MODEL 1
REMARK VINA RESULT:      -6.0      0.000      0.000
REMARK  Name = Gaxilose
REMARK  14 active torsions:
REMARK  status: ('A' for Active; 'I' for Inactive)
REMARK    1  A    between atoms: O_1  and  C_2
REMARK    2  A    between atoms: C_2  and  C_3
REMARK    3  A    between atoms: C_3  and  O_4
REMARK    4  A    between atoms: C_3  and  C_16
REMARK    5  A    between atoms: O_4  and  C_5
REMARK    6  A    between atoms: C_7  and  C_8
REMARK    7  A    between atoms: C_8  and  O_9
REMARK    8  A    between atoms: C_10  and  O_11
REMARK    9  A    between atoms: C_12  and  O_13
REMARK   10  A    between atoms: C_14  and  O_15
REMARK   11  A    between atoms: C_16  and  O_17
REMARK   12  A    between atoms: C_16  and  C_18
REMARK   13  A    between atoms: C_18  and  O_19
REMARK   14  A    between atoms: C_18  and  C_20
REMARK                            x       y       z     vdW  Elec       q    Type
REMARK                         _______ _______ _______ _____ _____    ______ ____
ROOT
ATOM      1  C   UNL     1      -9.030   6.191 131.023  0.00  0.00    +0.000 C 
ATOM      2  O   UNL     1      -9.139   5.213 129.968  0.00  0.00    +0.000 OA
ATOM      3  C   UNL     1      -8.563   3.956 130.366  0.00  0.00    +0.000 C 
ATOM      4  C   UNL     1      -9.382   3.384 131.534  0.00  0.00    +0.000 C 
ATOM      5  C   UNL     1      -9.293   4.333 132.698  0.00  0.00    +0.000 C 
ATOM      6  C   UNL     1      -9.827   5.682 132.286  0.00  0.00    +0.000 C 
ENDROOT
BRANCH   4   7
ATOM      7  O   UNL     1     -10.763   3.229 131.166  0.00  0.00    +0.000 OA
ATOM      8  H   UNL     1     -11.293   3.888 131.658  0.00  0.00    +0.000 HD
ENDBRANCH   4   7
BRANCH   5   9
ATOM      9  O   UNL     1     -10.039   3.853 133.816  0.00  0.00    +0.000 OA
ATOM     10  H   UNL     1      -9.613   4.227 134.611  0.00  0.00    +0.000 HD
ENDBRANCH   5   9
BRANCH   6  11
ATOM     11  O   UNL     1      -9.802   6.469 133.489  0.00  0.00    +0.000 OA
ATOM     12  H   UNL     1      -8.870   6.642 133.723  0.00  0.00    +0.000 HD
ENDBRANCH   6  11
BRANCH   1  13
ATOM     13  O   UNL     1      -9.515   7.445 130.521  0.00  0.00    +0.000 OA
BRANCH  13  14
ATOM     14  C   UNL     1     -10.625   7.301 129.626  0.00  0.00    +0.000 C 
BRANCH  14  15
ATOM     15  C   UNL     1     -11.977   7.480 130.354  0.00  0.00    +0.000 C 
BRANCH  15  16
ATOM     16  O   UNL     1     -13.065   6.842 129.716  0.00  0.00    +0.000 OA
ATOM     17  H   UNL     1     -12.730   6.622 128.827  0.00  0.00    +0.000 HD
ENDBRANCH  15  16
ENDBRANCH  14  15
BRANCH  14  18
ATOM     18  C   UNL     1     -10.537   8.239 128.422  0.00  0.00    +0.000 C 
BRANCH  18  19
ATOM     19  O   UNL     1     -11.732   9.050 128.391  0.00  0.00    +0.000 OA
ATOM     20  H   UNL     1     -11.525   9.886 127.933  0.00  0.00    +0.000 HD
ENDBRANCH  18  19
BRANCH  18  21
ATOM     21  C   UNL     1     -10.442   7.488 127.084  0.00  0.00    +0.000 C 
BRANCH  21  22
ATOM     22  O   UNL     1      -9.810   6.223 127.300  0.00  0.00    +0.000 OA
ATOM     23  H   UNL     1      -9.478   6.217 128.214  0.00  0.00    +0.000 HD
ENDBRANCH  21  22
BRANCH  21  24
ATOM     24  C   UNL     1     -11.781   7.274 126.384  0.00  0.00    +0.000 C 
ATOM     25  O   UNL     1     -12.703   6.640 126.868  0.00  0.00    +0.000 OA
ENDBRANCH  21  24
ENDBRANCH  18  21
ENDBRANCH  14  18
ENDBRANCH  13  14
ENDBRANCH   1  13
BRANCH   3  26
ATOM     26  C   UNL     1      -8.543   2.950 129.220  0.00  0.00    +0.000 C 
BRANCH  26  27
ATOM     27  O   UNL     1      -8.688   3.644 127.981  0.00  0.00    +0.000 OA
ATOM     28  H   UNL     1      -9.354   3.180 127.442  0.00  0.00    +0.000 HD
ENDBRANCH  26  27
ENDBRANCH   3  26
TORSDOF 14
ENDMDL
MODEL 2
REMARK VINA RESULT:      -5.9      1.625      5.077
REMARK  Name = Gaxilose
REMARK  14 active torsions:
REMARK  status: ('A' for Active; 'I' for Inactive)
REMARK    1  A    between atoms: O_1  and  C_2
REMARK    2  A    between atoms: C_2  and  C_3
REMARK    3  A    between atoms: C_3  and  O_4
REMARK    4  A    between atoms: C_3  and  C_16
REMARK    5  A    between atoms: O_4  and  C_5
REMARK    6  A    between atoms: C_7  and  C_8
REMARK    7  A    between atoms: C_8  and  O_9
REMARK    8  A    between atoms: C_10  and  O_11
REMARK    9  A    between atoms: C_12  and  O_13
REMARK   10  A    between atoms: C_14  and  O_15
REMARK   11  A    between atoms: C_16  and  O_17
REMARK   12  A    between atoms: C_16  and  C_18
REMARK   13  A    between atoms: C_18  and  O_19
REMARK   14  A    between atoms: C_18  and  C_20
REMARK                            x       y       z     vdW  Elec       q    Type
REMARK                         _______ _______ _______ _____ _____    ______ ____
ROOT
ATOM      1  C   UNL     1     -12.289   6.140 129.761  0.00  0.00    +0.000 C 
ATOM      2  O   UNL     1     -11.641   6.268 128.478  0.00  0.00    +0.000 OA
ATOM      3  C   UNL     1     -12.370   7.163 127.619  0.00  0.00    +0.000 C 
ATOM      4  C   UNL     1     -12.337   8.572 128.231  0.00  0.00    +0.000 C 
ATOM      5  C   UNL     1     -13.029   8.535 129.566  0.00  0.00    +0.000 C 
ATOM      6  C   UNL     1     -12.327   7.550 130.467  0.00  0.00    +0.000 C 
ENDROOT
BRANCH   4   7
ATOM      7  O   UNL     1     -10.985   9.020 128.421  0.00  0.00    +0.000 OA
ATOM      8  H   UNL     1     -10.856   9.231 129.368  0.00  0.00    +0.000 HD
ENDBRANCH   4   7
BRANCH   5   9
ATOM      9  O   UNL     1     -13.030   9.821 130.186  0.00  0.00    +0.000 OA
ATOM     10  H   UNL     1     -13.142   9.664 131.144  0.00  0.00    +0.000 HD
ENDBRANCH   5   9
BRANCH   6  11
ATOM     11  O   UNL     1     -12.989   7.675 131.737  0.00  0.00    +0.000 OA
ATOM     12  H   UNL     1     -12.471   7.184 132.403  0.00  0.00    +0.000 HD
ENDBRANCH   6  11
BRANCH   1  13
ATOM     13  O   UNL     1     -11.580   5.150 130.521  0.00  0.00    +0.000 OA
BRANCH  13  14
ATOM     14  C   UNL     1     -10.163   5.359 130.534  0.00  0.00    +0.000 C 
BRANCH  14  15
ATOM     15  C   UNL     1      -9.676   5.918 131.891  0.00  0.00    +0.000 C 
BRANCH  15  16
ATOM     16  O   UNL     1     -10.447   5.499 132.998  0.00  0.00    +0.000 OA
ATOM     17  H   UNL     1     -10.188   6.103 133.717  0.00  0.00    +0.000 HD
ENDBRANCH  15  16
ENDBRANCH  14  15
BRANCH  14  18
ATOM     18  C   UNL     1      -9.378   4.102 130.161  0.00  0.00    +0.000 C 
BRANCH  18  19
ATOM     19  O   UNL     1      -8.580   3.710 131.300  0.00  0.00    +0.000 OA
ATOM     20  H   UNL     1      -8.301   4.516 131.773  0.00  0.00    +0.000 HD
ENDBRANCH  18  19
BRANCH  18  21
ATOM     21  C   UNL     1      -8.427   4.319 128.972  0.00  0.00    +0.000 C 
BRANCH  21  22
ATOM     22  O   UNL     1      -8.919   5.396 128.170  0.00  0.00    +0.000 OA
ATOM     23  H   UNL     1      -8.147   5.859 127.801  0.00  0.00    +0.000 HD
ENDBRANCH  21  22
BRANCH  21  24
ATOM     24  C   UNL     1      -6.980   4.598 129.365  0.00  0.00    +0.000 C 
ATOM     25  O   UNL     1      -6.624   5.588 129.982  0.00  0.00    +0.000 OA
ENDBRANCH  21  24
ENDBRANCH  18  21
ENDBRANCH  14  18
ENDBRANCH  13  14
ENDBRANCH   1  13
BRANCH   3  26
ATOM     26  C   UNL     1     -11.780   7.208 126.212  0.00  0.00    +0.000 C 
BRANCH  26  27
ATOM     27  O   UNL     1     -10.415   6.796 126.260  0.00  0.00    +0.000 OA
ATOM     28  H   UNL     1     -10.161   6.461 125.381  0.00  0.00    +0.000 HD
ENDBRANCH  26  27
ENDBRANCH   3  26
TORSDOF 14
ENDMDL
MODEL 3
REMARK VINA RESULT:      -5.6      1.723      4.717
REMARK  Name = Gaxilose
REMARK  14 active torsions:
REMARK  status: ('A' for Active; 'I' for Inactive)
REMARK    1  A    between atoms: O_1  and  C_2
REMARK    2  A    between atoms: C_2  and  C_3
REMARK    3  A    between atoms: C_3  and  O_4
REMARK    4  A    between atoms: C_3  and  C_16
REMARK    5  A    between atoms: O_4  and  C_5
REMARK    6  A    between atoms: C_7  and  C_8
REMARK    7  A    between atoms: C_8  and  O_9
REMARK    8  A    between atoms: C_10  and  O_11
REMARK    9  A    between atoms: C_12  and  O_13
REMARK   10  A    between atoms: C_14  and  O_15
REMARK   11  A    between atoms: C_16  and  O_17
REMARK   12  A    between atoms: C_16  and  C_18
REMARK   13  A    between atoms: C_18  and  O_19
REMARK   14  A    between atoms: C_18  and  C_20
REMARK                            x       y       z     vdW  Elec       q    Type
REMARK                         _______ _______ _______ _____ _____    ______ ____
ROOT
ATOM      1  C   UNL     1     -11.795   5.325 129.956  0.00  0.00    +0.000 C 
ATOM      2  O   UNL     1     -11.605   5.860 128.629  0.00  0.00    +0.000 OA
ATOM      3  C   UNL     1     -12.713   6.692 128.243  0.00  0.00    +0.000 C 
ATOM      4  C   UNL     1     -12.759   7.917 129.170  0.00  0.00    +0.000 C 
ATOM      5  C   UNL     1     -12.991   7.447 130.580  0.00  0.00    +0.000 C 
ATOM      6  C   UNL     1     -11.878   6.515 130.988  0.00  0.00    +0.000 C 
ENDROOT
BRANCH   4   7
ATOM      7  O   UNL     1     -11.521   8.645 129.121  0.00  0.00    +0.000 OA
ATOM      8  H   UNL     1     -11.074   8.445 128.275  0.00  0.00    +0.000 HD
ENDBRANCH   4   7
BRANCH   5   9
ATOM      9  O   UNL     1     -13.042   8.545 131.490  0.00  0.00    +0.000 OA
ATOM     10  H   UNL     1     -13.537   9.255 131.037  0.00  0.00    +0.000 HD
ENDBRANCH   5   9
BRANCH   6  11
ATOM     11  O   UNL     1     -12.133   6.220 132.372  0.00  0.00    +0.000 OA
ATOM     12  H   UNL     1     -11.309   6.370 132.874  0.00  0.00    +0.000 HD
ENDBRANCH   6  11
BRANCH   1  13
ATOM     13  O   UNL     1     -10.717   4.418 130.230  0.00  0.00    +0.000 OA
BRANCH  13  14
ATOM     14  C   UNL     1      -9.686   4.997 131.037  0.00  0.00    +0.000 C 
BRANCH  14  15
ATOM     15  C   UNL     1      -9.344   4.111 132.257  0.00  0.00    +0.000 C 
BRANCH  15  16
ATOM     16  O   UNL     1      -9.949   4.530 133.463  0.00  0.00    +0.000 OA
ATOM     17  H   UNL     1     -10.880   4.255 133.376  0.00  0.00    +0.000 HD
ENDBRANCH  15  16
ENDBRANCH  14  15
BRANCH  14  18
ATOM     18  C   UNL     1      -8.422   5.319 130.240  0.00  0.00    +0.000 C 
BRANCH  18  19
ATOM     19  O   UNL     1      -8.426   6.731 129.933  0.00  0.00    +0.000 OA
ATOM     20  H   UNL     1      -8.341   7.228 130.768  0.00  0.00    +0.000 HD
ENDBRANCH  18  19
BRANCH  18  21
ATOM     21  C   UNL     1      -8.339   4.548 128.912  0.00  0.00    +0.000 C 
BRANCH  21  22
ATOM     22  O   UNL     1      -8.982   5.310 127.887  0.00  0.00    +0.000 OA
ATOM     23  H   UNL     1      -9.585   5.935 128.324  0.00  0.00    +0.000 HD
ENDBRANCH  21  22
BRANCH  21  24
ATOM     24  C   UNL     1      -6.920   4.200 128.472  0.00  0.00    +0.000 C 
ATOM     25  O   UNL     1      -5.987   4.985 128.514  0.00  0.00    +0.000 OA
ENDBRANCH  21  24
ENDBRANCH  18  21
ENDBRANCH  14  18
ENDBRANCH  13  14
ENDBRANCH   1  13
BRANCH   3  26
ATOM     26  C   UNL     1     -12.600   7.156 126.794  0.00  0.00    +0.000 C 
BRANCH  26  27
ATOM     27  O   UNL     1     -11.316   6.797 126.283  0.00  0.00    +0.000 OA
ATOM     28  H   UNL     1     -10.649   6.970 126.971  0.00  0.00    +0.000 HD
ENDBRANCH  26  27
ENDBRANCH   3  26
TORSDOF 14
ENDMDL
MODEL 4
REMARK VINA RESULT:      -5.5      1.518      5.319
REMARK  Name = Gaxilose
REMARK  14 active torsions:
REMARK  status: ('A' for Active; 'I' for Inactive)
REMARK    1  A    between atoms: O_1  and  C_2
REMARK    2  A    between atoms: C_2  and  C_3
REMARK    3  A    between atoms: C_3  and  O_4
REMARK    4  A    between atoms: C_3  and  C_16
REMARK    5  A    between atoms: O_4  and  C_5
REMARK    6  A    between atoms: C_7  and  C_8
REMARK    7  A    between atoms: C_8  and  O_9
REMARK    8  A    between atoms: C_10  and  O_11
REMARK    9  A    between atoms: C_12  and  O_13
REMARK   10  A    between atoms: C_14  and  O_15
REMARK   11  A    between atoms: C_16  and  O_17
REMARK   12  A    between atoms: C_16  and  C_18
REMARK   13  A    between atoms: C_18  and  O_19
REMARK   14  A    between atoms: C_18  and  C_20
REMARK                            x       y       z     vdW  Elec       q    Type
REMARK                         _______ _______ _______ _____ _____    ______ ____
ROOT
ATOM      1  C   UNL     1     -12.011   6.052 129.655  0.00  0.00    +0.000 C 
ATOM      2  O   UNL     1     -11.261   6.276 128.443  0.00  0.00    +0.000 OA
ATOM      3  C   UNL     1     -11.961   7.171 127.560  0.00  0.00    +0.000 C 
ATOM      4  C   UNL     1     -12.064   8.549 128.232  0.00  0.00    +0.000 C 
ATOM      5  C   UNL     1     -12.867   8.411 129.497  0.00  0.00    +0.000 C 
ATOM      6  C   UNL     1     -12.192   7.423 130.414  0.00  0.00    +0.000 C 
ENDROOT
BRANCH   4   7
ATOM      7  O   UNL     1     -10.762   9.059 128.563  0.00  0.00    +0.000 OA
ATOM      8  H   UNL     1     -10.426   9.574 127.803  0.00  0.00    +0.000 HD
ENDBRANCH   4   7
BRANCH   5   9
ATOM      9  O   UNL     1     -12.996   9.664 130.168  0.00  0.00    +0.000 OA
ATOM     10  H   UNL     1     -13.248   9.457 131.089  0.00  0.00    +0.000 HD
ENDBRANCH   5   9
BRANCH   6  11
ATOM     11  O   UNL     1     -12.969   7.452 131.623  0.00  0.00    +0.000 OA
ATOM     12  H   UNL     1     -13.620   8.177 131.552  0.00  0.00    +0.000 HD
ENDBRANCH   6  11
BRANCH   1  13
ATOM     13  O   UNL     1     -11.316   5.066 130.433  0.00  0.00    +0.000 OA
BRANCH  13  14
ATOM     14  C   UNL     1      -9.935   5.386 130.641  0.00  0.00    +0.000 C 
BRANCH  14  15
ATOM     15  C   UNL     1      -9.671   5.891 132.078  0.00  0.00    +0.000 C 
BRANCH  15  16
ATOM     16  O   UNL     1     -10.701   5.583 132.997  0.00  0.00    +0.000 OA
ATOM     17  H   UNL     1     -10.545   6.186 133.746  0.00  0.00    +0.000 HD
ENDBRANCH  15  16
ENDBRANCH  14  15
BRANCH  14  18
ATOM     18  C   UNL     1      -9.003   4.222 130.305  0.00  0.00    +0.000 C 
BRANCH  18  19
ATOM     19  O   UNL     1      -9.396   3.680 129.025  0.00  0.00    +0.000 OA
ATOM     20  H   UNL     1      -8.628   3.719 128.425  0.00  0.00    +0.000 HD
ENDBRANCH  18  19
BRANCH  18  21
ATOM     21  C   UNL     1      -9.067   3.085 131.339  0.00  0.00    +0.000 C 
BRANCH  21  22
ATOM     22  O   UNL     1     -10.433   2.719 131.549  0.00  0.00    +0.000 OA
ATOM     23  H   UNL     1     -10.816   3.366 132.166  0.00  0.00    +0.000 HD
ENDBRANCH  21  22
BRANCH  21  24
ATOM     24  C   UNL     1      -8.261   1.845 130.963  0.00  0.00    +0.000 C 
ATOM     25  O   UNL     1      -8.438   1.207 129.939  0.00  0.00    +0.000 OA
ENDBRANCH  21  24
ENDBRANCH  18  21
ENDBRANCH  14  18
ENDBRANCH  13  14
ENDBRANCH   1  13
BRANCH   3  26
ATOM     26  C   UNL     1     -11.254   7.314 126.216  0.00  0.00    +0.000 C 
BRANCH  26  27
ATOM     27  O   UNL     1     -10.194   6.362 126.137  0.00  0.00    +0.000 OA
ATOM     28  H   UNL     1     -10.181   5.843 126.961  0.00  0.00    +0.000 HD
ENDBRANCH  26  27
ENDBRANCH   3  26
TORSDOF 14
ENDMDL
MODEL 5
REMARK VINA RESULT:      -5.4      1.763      3.205
REMARK  Name = Gaxilose
REMARK  14 active torsions:
REMARK  status: ('A' for Active; 'I' for Inactive)
REMARK    1  A    between atoms: O_1  and  C_2
REMARK    2  A    between atoms: C_2  and  C_3
REMARK    3  A    between atoms: C_3  and  O_4
REMARK    4  A    between atoms: C_3  and  C_16
REMARK    5  A    between atoms: O_4  and  C_5
REMARK    6  A    between atoms: C_7  and  C_8
REMARK    7  A    between atoms: C_8  and  O_9
REMARK    8  A    between atoms: C_10  and  O_11
REMARK    9  A    between atoms: C_12  and  O_13
REMARK   10  A    between atoms: C_14  and  O_15
REMARK   11  A    between atoms: C_16  and  O_17
REMARK   12  A    between atoms: C_16  and  C_18
REMARK   13  A    between atoms: C_18  and  O_19
REMARK   14  A    between atoms: C_18  and  C_20
REMARK                            x       y       z     vdW  Elec       q    Type
REMARK                         _______ _______ _______ _____ _____    ______ ____
ROOT
ATOM      1  C   UNL     1      -9.644   6.119 130.071  0.00  0.00    +0.000 C 
ATOM      2  O   UNL     1      -8.217   6.323 130.000  0.00  0.00    +0.000 OA
ATOM      3  C   UNL     1      -7.653   6.486 131.314  0.00  0.00    +0.000 C 
ATOM      4  C   UNL     1      -7.835   5.177 132.097  0.00  0.00    +0.000 C 
ATOM      5  C   UNL     1      -9.307   4.905 132.248  0.00  0.00    +0.000 C 
ATOM      6  C   UNL     1      -9.939   4.799 130.883  0.00  0.00    +0.000 C 
ENDROOT
BRANCH   4   7
ATOM      7  O   UNL     1      -7.228   4.074 131.404  0.00  0.00    +0.000 OA
ATOM      8  H   UNL     1      -7.163   3.316 132.019  0.00  0.00    +0.000 HD
ENDBRANCH   4   7
BRANCH   5   9
ATOM      9  O   UNL     1      -9.540   3.696 132.969  0.00  0.00    +0.000 OA
ATOM     10  H   UNL     1      -8.673   3.250 133.045  0.00  0.00    +0.000 HD
ENDBRANCH   5   9
BRANCH   6  11
ATOM     11  O   UNL     1     -11.305   4.429 131.138  0.00  0.00    +0.000 OA
ATOM     12  H   UNL     1     -11.881   4.965 130.559  0.00  0.00    +0.000 HD
ENDBRANCH   6  11
BRANCH   1  13
ATOM     13  O   UNL     1     -10.156   6.080 128.731  0.00  0.00    +0.000 OA
BRANCH  13  14
ATOM     14  C   UNL     1     -11.090   7.131 128.455  0.00  0.00    +0.000 C 
BRANCH  14  15
ATOM     15  C   UNL     1     -10.937   7.674 127.016  0.00  0.00    +0.000 C 
BRANCH  15  16
ATOM     16  O   UNL     1     -10.818   6.669 126.029  0.00  0.00    +0.000 OA
ATOM     17  H   UNL     1     -11.651   6.725 125.525  0.00  0.00    +0.000 HD
ENDBRANCH  15  16
ENDBRANCH  14  15
BRANCH  14  18
ATOM     18  C   UNL     1     -12.538   6.717 128.719  0.00  0.00    +0.000 C 
BRANCH  18  19
ATOM     19  O   UNL     1     -13.307   6.969 127.523  0.00  0.00    +0.000 OA
ATOM     20  H   UNL     1     -12.930   7.747 127.071  0.00  0.00    +0.000 HD
ENDBRANCH  18  19
BRANCH  18  21
ATOM     21  C   UNL     1     -13.185   7.504 129.871  0.00  0.00    +0.000 C 
BRANCH  21  22
ATOM     22  O   UNL     1     -12.832   6.892 131.113  0.00  0.00    +0.000 OA
ATOM     23  H   UNL     1     -12.505   7.596 131.701  0.00  0.00    +0.000 HD
ENDBRANCH  21  22
BRANCH  21  24
ATOM     24  C   UNL     1     -12.815   8.984 129.910  0.00  0.00    +0.000 C 
ATOM     25  O   UNL     1     -13.177   9.794 129.073  0.00  0.00    +0.000 OA
ENDBRANCH  21  24
ENDBRANCH  18  21
ENDBRANCH  14  18
ENDBRANCH  13  14
ENDBRANCH   1  13
BRANCH   3  26
ATOM     26  C   UNL     1      -6.170   6.840 131.256  0.00  0.00    +0.000 C 
BRANCH  26  27
ATOM     27  O   UNL     1      -5.608   6.323 130.050  0.00  0.00    +0.000 OA
ATOM     28  H   UNL     1      -6.325   6.195 129.404  0.00  0.00    +0.000 HD
ENDBRANCH  26  27
ENDBRANCH   3  26
TORSDOF 14
ENDMDL
MODEL 6
REMARK VINA RESULT:      -5.3      1.465      5.893
REMARK  Name = Gaxilose
REMARK  14 active torsions:
REMARK  status: ('A' for Active; 'I' for Inactive)
REMARK    1  A    between atoms: O_1  and  C_2
REMARK    2  A    between atoms: C_2  and  C_3
REMARK    3  A    between atoms: C_3  and  O_4
REMARK    4  A    between atoms: C_3  and  C_16
REMARK    5  A    between atoms: O_4  and  C_5
REMARK    6  A    between atoms: C_7  and  C_8
REMARK    7  A    between atoms: C_8  and  O_9
REMARK    8  A    between atoms: C_10  and  O_11
REMARK    9  A    between atoms: C_12  and  O_13
REMARK   10  A    between atoms: C_14  and  O_15
REMARK   11  A    between atoms: C_16  and  O_17
REMARK   12  A    between atoms: C_16  and  C_18
REMARK   13  A    between atoms: C_18  and  O_19
REMARK   14  A    between atoms: C_18  and  C_20
REMARK                            x       y       z     vdW  Elec       q    Type
REMARK                         _______ _______ _______ _____ _____    ______ ____
ROOT
ATOM      1  C   UNL     1      -9.974   7.431 129.025  0.00  0.00    +0.000 C 
ATOM      2  O   UNL     1     -11.014   7.569 130.016  0.00  0.00    +0.000 OA
ATOM      3  C   UNL     1     -12.109   8.353 129.511  0.00  0.00    +0.000 C 
ATOM      4  C   UNL     1     -12.761   7.598 128.342  0.00  0.00    +0.000 C 
ATOM      5  C   UNL     1     -11.748   7.441 127.242  0.00  0.00    +0.000 C 
ATOM      6  C   UNL     1     -10.554   6.680 127.765  0.00  0.00    +0.000 C 
ENDROOT
BRANCH   4   7
ATOM      7  O   UNL     1     -13.203   6.294 128.756  0.00  0.00    +0.000 OA
ATOM      8  H   UNL     1     -13.005   5.656 128.042  0.00  0.00    +0.000 HD
ENDBRANCH   4   7
BRANCH   5   9
ATOM      9  O   UNL     1     -12.298   6.742 126.126  0.00  0.00    +0.000 OA
ATOM     10  H   UNL     1     -12.286   5.794 126.363  0.00  0.00    +0.000 HD
ENDBRANCH   5   9
BRANCH   6  11
ATOM     11  O   UNL     1      -9.709   6.488 126.618  0.00  0.00    +0.000 OA
ATOM     12  H   UNL     1      -9.348   7.357 126.355  0.00  0.00    +0.000 HD
ENDBRANCH   6  11
BRANCH   1  13
ATOM     13  O   UNL     1      -8.870   6.742 129.630  0.00  0.00    +0.000 OA
BRANCH  13  14
ATOM     14  C   UNL     1      -9.127   5.350 129.848  0.00  0.00    +0.000 C 
BRANCH  14  15
ATOM     15  C   UNL     1      -7.950   4.466 129.375  0.00  0.00    +0.000 C 
BRANCH  15  16
ATOM     16  O   UNL     1      -7.618   4.629 128.011  0.00  0.00    +0.000 OA
ATOM     17  H   UNL     1      -8.433   4.391 127.533  0.00  0.00    +0.000 HD
ENDBRANCH  15  16
ENDBRANCH  14  15
BRANCH  14  18
ATOM     18  C   UNL     1      -9.481   5.035 131.301  0.00  0.00    +0.000 C 
BRANCH  18  19
ATOM     19  O   UNL     1     -10.918   5.090 131.441  0.00  0.00    +0.000 OA
ATOM     20  H   UNL     1     -11.238   5.905 131.013  0.00  0.00    +0.000 HD
ENDBRANCH  18  19
BRANCH  18  21
ATOM     21  C   UNL     1      -8.871   6.036 132.297  0.00  0.00    +0.000 C 
BRANCH  21  22
ATOM     22  O   UNL     1      -9.865   6.411 133.253  0.00  0.00    +0.000 OA
ATOM     23  H   UNL     1      -9.421   6.931 133.945  0.00  0.00    +0.000 HD
ENDBRANCH  21  22
BRANCH  21  24
ATOM     24  C   UNL     1      -7.632   5.525 133.025  0.00  0.00    +0.000 C 
ATOM     25  O   UNL     1      -7.608   5.258 134.215  0.00  0.00    +0.000 OA
ENDBRANCH  21  24
ENDBRANCH  18  21
ENDBRANCH  14  18
ENDBRANCH  13  14
ENDBRANCH   1  13
BRANCH   3  26
ATOM     26  C   UNL     1     -13.157   8.628 130.585  0.00  0.00    +0.000 C 
BRANCH  26  27
ATOM     27  O   UNL     1     -13.209   7.522 131.486  0.00  0.00    +0.000 OA
ATOM     28  H   UNL     1     -13.867   6.884 131.155  0.00  0.00    +0.000 HD
ENDBRANCH  26  27
ENDBRANCH   3  26
TORSDOF 14
ENDMDL
MODEL 7
REMARK VINA RESULT:      -5.3      1.672      5.628
REMARK  Name = Gaxilose
REMARK  14 active torsions:
REMARK  status: ('A' for Active; 'I' for Inactive)
REMARK    1  A    between atoms: O_1  and  C_2
REMARK    2  A    between atoms: C_2  and  C_3
REMARK    3  A    between atoms: C_3  and  O_4
REMARK    4  A    between atoms: C_3  and  C_16
REMARK    5  A    between atoms: O_4  and  C_5
REMARK    6  A    between atoms: C_7  and  C_8
REMARK    7  A    between atoms: C_8  and  O_9
REMARK    8  A    between atoms: C_10  and  O_11
REMARK    9  A    between atoms: C_12  and  O_13
REMARK   10  A    between atoms: C_14  and  O_15
REMARK   11  A    between atoms: C_16  and  O_17
REMARK   12  A    between atoms: C_16  and  C_18
REMARK   13  A    between atoms: C_18  and  O_19
REMARK   14  A    between atoms: C_18  and  C_20
REMARK                            x       y       z     vdW  Elec       q    Type
REMARK                         _______ _______ _______ _____ _____    ______ ____
ROOT
ATOM      1  C   UNL     1     -10.917   5.473 130.020  0.00  0.00    +0.000 C 
ATOM      2  O   UNL     1     -11.087   6.157 128.761  0.00  0.00    +0.000 OA
ATOM      3  C   UNL     1     -12.460   6.534 128.558  0.00  0.00    +0.000 C 
ATOM      4  C   UNL     1     -12.855   7.560 129.632  0.00  0.00    +0.000 C 
ATOM      5  C   UNL     1     -12.739   6.912 130.985  0.00  0.00    +0.000 C 
ATOM      6  C   UNL     1     -11.321   6.443 131.196  0.00  0.00    +0.000 C 
ENDROOT
BRANCH   4   7
ATOM      7  O   UNL     1     -11.990   8.707 129.591  0.00  0.00    +0.000 OA
ATOM      8  H   UNL     1     -12.466   9.441 129.153  0.00  0.00    +0.000 HD
ENDBRANCH   4   7
BRANCH   5   9
ATOM      9  O   UNL     1     -13.094   7.821 132.027  0.00  0.00    +0.000 OA
ATOM     10  H   UNL     1     -12.443   8.549 131.989  0.00  0.00    +0.000 HD
ENDBRANCH   5   9
BRANCH   6  11
ATOM     11  O   UNL     1     -11.294   5.950 132.546  0.00  0.00    +0.000 OA
ATOM     12  H   UNL     1     -11.715   6.616 133.124  0.00  0.00    +0.000 HD
ENDBRANCH   6  11
BRANCH   1  13
ATOM     13  O   UNL     1      -9.556   5.026 130.104  0.00  0.00    +0.000 OA
BRANCH  13  14
ATOM     14  C   UNL     1      -9.433   3.598 130.118  0.00  0.00    +0.000 C 
BRANCH  14  15
ATOM     15  C   UNL     1      -8.457   3.094 129.030  0.00  0.00    +0.000 C 
BRANCH  15  16
ATOM     16  O   UNL     1      -9.028   2.169 128.127  0.00  0.00    +0.000 OA
ATOM     17  H   UNL     1      -8.544   1.339 128.292  0.00  0.00    +0.000 HD
ENDBRANCH  15  16
ENDBRANCH  14  15
BRANCH  14  18
ATOM     18  C   UNL     1      -9.031   3.054 131.489  0.00  0.00    +0.000 C 
BRANCH  18  19
ATOM     19  O   UNL     1     -10.183   3.121 132.359  0.00  0.00    +0.000 OA
ATOM     20  H   UNL     1     -10.311   2.245 132.769  0.00  0.00    +0.000 HD
ENDBRANCH  18  19
BRANCH  18  21
ATOM     21  C   UNL     1      -7.897   3.859 132.145  0.00  0.00    +0.000 C 
BRANCH  21  22
ATOM     22  O   UNL     1      -8.425   5.090 132.646  0.00  0.00    +0.000 OA
ATOM     23  H   UNL     1      -9.216   4.875 133.170  0.00  0.00    +0.000 HD
ENDBRANCH  21  22
BRANCH  21  24
ATOM     24  C   UNL     1      -7.169   3.124 133.267  0.00  0.00    +0.000 C 
ATOM     25  O   UNL     1      -7.576   2.094 133.776  0.00  0.00    +0.000 OA
ENDBRANCH  21  24
ENDBRANCH  18  21
ENDBRANCH  14  18
ENDBRANCH  13  14
ENDBRANCH   1  13
BRANCH   3  26
ATOM     26  C   UNL     1     -12.688   7.135 127.175  0.00  0.00    +0.000 C 
BRANCH  26  27
ATOM     27  O   UNL     1     -11.710   6.622 126.271  0.00  0.00    +0.000 OA
ATOM     28  H   UNL     1     -10.857   7.052 126.461  0.00  0.00    +0.000 HD
ENDBRANCH  26  27
ENDBRANCH   3  26
TORSDOF 14
ENDMDL
MODEL 8
REMARK VINA RESULT:      -5.1      5.825      8.447
REMARK  Name = Gaxilose
REMARK  14 active torsions:
REMARK  status: ('A' for Active; 'I' for Inactive)
REMARK    1  A    between atoms: O_1  and  C_2
REMARK    2  A    between atoms: C_2  and  C_3
REMARK    3  A    between atoms: C_3  and  O_4
REMARK    4  A    between atoms: C_3  and  C_16
REMARK    5  A    between atoms: O_4  and  C_5
REMARK    6  A    between atoms: C_7  and  C_8
REMARK    7  A    between atoms: C_8  and  O_9
REMARK    8  A    between atoms: C_10  and  O_11
REMARK    9  A    between atoms: C_12  and  O_13
REMARK   10  A    between atoms: C_14  and  O_15
REMARK   11  A    between atoms: C_16  and  O_17
REMARK   12  A    between atoms: C_16  and  C_18
REMARK   13  A    between atoms: C_18  and  O_19
REMARK   14  A    between atoms: C_18  and  C_20
REMARK                            x       y       z     vdW  Elec       q    Type
REMARK                         _______ _______ _______ _____ _____    ______ ____
ROOT
ATOM      1  C   UNL     1      -7.634  -0.065 124.505  0.00  0.00    +0.000 C 
ATOM      2  O   UNL     1      -6.654  -0.991 123.991  0.00  0.00    +0.000 OA
ATOM      3  C   UNL     1      -6.450  -2.086 124.902  0.00  0.00    +0.000 C 
ATOM      4  C   UNL     1      -7.753  -2.893 125.004  0.00  0.00    +0.000 C 
ATOM      5  C   UNL     1      -8.828  -2.006 125.569  0.00  0.00    +0.000 C 
ATOM      6  C   UNL     1      -9.015  -0.810 124.669  0.00  0.00    +0.000 C 
ENDROOT
BRANCH   4   7
ATOM      7  O   UNL     1      -8.171  -3.363 123.711  0.00  0.00    +0.000 OA
ATOM      8  H   UNL     1      -7.469  -3.156 123.063  0.00  0.00    +0.000 HD
ENDBRANCH   4   7
BRANCH   5   9
ATOM      9  O   UNL     1     -10.068  -2.703 125.687  0.00  0.00    +0.000 OA
ATOM     10  H   UNL     1     -10.722  -2.189 125.176  0.00  0.00    +0.000 HD
ENDBRANCH   5   9
BRANCH   6  11
ATOM     11  O   UNL     1     -10.128  -0.096 125.232  0.00  0.00    +0.000 OA
ATOM     12  H   UNL     1     -10.736   0.146 124.507  0.00  0.00    +0.000 HD
ENDBRANCH   6  11
BRANCH   1  13
ATOM     13  O   UNL     1      -7.702   1.055 123.610  0.00  0.00    +0.000 OA
BRANCH  13  14
ATOM     14  C   UNL     1      -7.262   2.280 124.207  0.00  0.00    +0.000 C 
BRANCH  14  15
ATOM     15  C   UNL     1      -7.029   3.384 123.150  0.00  0.00    +0.000 C 
BRANCH  15  16
ATOM     16  O   UNL     1      -8.202   3.798 122.480  0.00  0.00    +0.000 OA
ATOM     17  H   UNL     1      -7.947   4.625 122.033  0.00  0.00    +0.000 HD
ENDBRANCH  15  16
ENDBRANCH  14  15
BRANCH  14  18
ATOM     18  C   UNL     1      -8.207   2.778 125.300  0.00  0.00    +0.000 C 
BRANCH  18  19
ATOM     19  O   UNL     1      -9.533   2.888 124.738  0.00  0.00    +0.000 OA
ATOM     20  H   UNL     1      -9.463   2.826 123.767  0.00  0.00    +0.000 HD
ENDBRANCH  18  19
BRANCH  18  21
ATOM     21  C   UNL     1      -7.812   4.158 125.852  0.00  0.00    +0.000 C 
BRANCH  21  22
ATOM     22  O   UNL     1      -8.748   5.133 125.388  0.00  0.00    +0.000 OA
ATOM     23  H   UNL     1      -8.911   5.752 126.122  0.00  0.00    +0.000 HD
ENDBRANCH  21  22
BRANCH  21  24
ATOM     24  C   UNL     1      -7.719   4.226 127.373  0.00  0.00    +0.000 C 
ATOM     25  O   UNL     1      -8.505   4.842 128.072  0.00  0.00    +0.000 OA
ENDBRANCH  21  24
ENDBRANCH  18  21
ENDBRANCH  14  18
ENDBRANCH  13  14
ENDBRANCH   1  13
BRANCH   3  26
ATOM     26  C   UNL     1      -5.320  -3.004 124.445  0.00  0.00    +0.000 C 
BRANCH  26  27
ATOM     27  O   UNL     1      -5.201  -2.935 123.024  0.00  0.00    +0.000 OA
ATOM     28  H   UNL     1      -5.358  -2.015 122.744  0.00  0.00    +0.000 HD
ENDBRANCH  26  27
ENDBRANCH   3  26
TORSDOF 14
ENDMDL
MODEL 9
REMARK VINA RESULT:      -5.0      1.814      3.255
REMARK  Name = Gaxilose
REMARK  14 active torsions:
REMARK  status: ('A' for Active; 'I' for Inactive)
REMARK    1  A    between atoms: O_1  and  C_2
REMARK    2  A    between atoms: C_2  and  C_3
REMARK    3  A    between atoms: C_3  and  O_4
REMARK    4  A    between atoms: C_3  and  C_16
REMARK    5  A    between atoms: O_4  and  C_5
REMARK    6  A    between atoms: C_7  and  C_8
REMARK    7  A    between atoms: C_8  and  O_9
REMARK    8  A    between atoms: C_10  and  O_11
REMARK    9  A    between atoms: C_12  and  O_13
REMARK   10  A    between atoms: C_14  and  O_15
REMARK   11  A    between atoms: C_16  and  O_17
REMARK   12  A    between atoms: C_16  and  C_18
REMARK   13  A    between atoms: C_18  and  O_19
REMARK   14  A    between atoms: C_18  and  C_20
REMARK                            x       y       z     vdW  Elec       q    Type
REMARK                         _______ _______ _______ _____ _____    ______ ____
ROOT
ATOM      1  C   UNL     1      -9.854   4.400 130.096  0.00  0.00    +0.000 C 
ATOM      2  O   UNL     1      -9.299   4.520 128.769  0.00  0.00    +0.000 OA
ATOM      3  C   UNL     1      -7.974   3.961 128.711  0.00  0.00    +0.000 C 
ATOM      4  C   UNL     1      -8.064   2.450 128.977  0.00  0.00    +0.000 C 
ATOM      5  C   UNL     1      -8.605   2.234 130.364  0.00  0.00    +0.000 C 
ATOM      6  C   UNL     1      -9.967   2.873 130.475  0.00  0.00    +0.000 C 
ENDROOT
BRANCH   4   7
ATOM      7  O   UNL     1      -8.939   1.812 128.032  0.00  0.00    +0.000 OA
ATOM      8  H   UNL     1      -9.520   1.191 128.516  0.00  0.00    +0.000 HD
ENDBRANCH   4   7
BRANCH   5   9
ATOM      9  O   UNL     1      -8.712   0.844 130.668  0.00  0.00    +0.000 OA
ATOM     10  H   UNL     1      -8.172   0.696 131.469  0.00  0.00    +0.000 HD
ENDBRANCH   5   9
BRANCH   6  11
ATOM     11  O   UNL     1     -10.436   2.514 131.785  0.00  0.00    +0.000 OA
ATOM     12  H   UNL     1     -11.278   2.981 131.949  0.00  0.00    +0.000 HD
ENDBRANCH   6  11
BRANCH   1  13
ATOM     13  O   UNL     1     -11.119   5.078 130.112  0.00  0.00    +0.000 OA
BRANCH  13  14
ATOM     14  C   UNL     1     -11.266   5.968 131.224  0.00  0.00    +0.000 C 
BRANCH  14  15
ATOM     15  C   UNL     1      -9.904   6.313 131.868  0.00  0.00    +0.000 C 
BRANCH  15  16
ATOM     16  O   UNL     1      -9.923   6.340 133.281  0.00  0.00    +0.000 OA
ATOM     17  H   UNL     1      -9.108   6.814 133.526  0.00  0.00    +0.000 HD
ENDBRANCH  15  16
ENDBRANCH  14  15
BRANCH  14  18
ATOM     18  C   UNL     1     -12.025   7.245 130.862  0.00  0.00    +0.000 C 
BRANCH  18  19
ATOM     19  O   UNL     1     -13.333   7.185 131.472  0.00  0.00    +0.000 OA
ATOM     20  H   UNL     1     -13.997   7.075 130.767  0.00  0.00    +0.000 HD
ENDBRANCH  18  19
BRANCH  18  21
ATOM     21  C   UNL     1     -12.218   7.418 129.346  0.00  0.00    +0.000 C 
BRANCH  21  22
ATOM     22  O   UNL     1     -13.118   6.414 128.871  0.00  0.00    +0.000 OA
ATOM     23  H   UNL     1     -13.878   6.393 129.480  0.00  0.00    +0.000 HD
ENDBRANCH  21  22
BRANCH  21  24
ATOM     24  C   UNL     1     -12.726   8.794 128.928  0.00  0.00    +0.000 C 
ATOM     25  O   UNL     1     -12.937   9.704 129.712  0.00  0.00    +0.000 OA
ENDBRANCH  21  24
ENDBRANCH  18  21
ENDBRANCH  14  18
ENDBRANCH  13  14
ENDBRANCH   1  13
BRANCH   3  26
ATOM     26  C   UNL     1      -7.314   4.199 127.357  0.00  0.00    +0.000 C 
BRANCH  26  27
ATOM     27  O   UNL     1      -8.317   4.225 126.341  0.00  0.00    +0.000 OA
ATOM     28  H   UNL     1      -8.309   5.102 125.919  0.00  0.00    +0.000 HD
ENDBRANCH  26  27
ENDBRANCH   3  26
TORSDOF 14
ENDMDL
