MODEL 1
REMARK VINA RESULT:      -7.9      0.000      0.000
REMARK  Name = Gefitinib
REMARK  8 active torsions:
REMARK  status: ('A' for Active; 'I' for Inactive)
REMARK    1  A    between atoms: C_1  and  O_2
REMARK    2  A    between atoms: O_2  and  C_3
REMARK    3  A    between atoms: C_4  and  O_5
REMARK    4  A    between atoms: O_5  and  C_6
REMARK    5  A    between atoms: C_6  and  C_7
REMARK    6  A    between atoms: C_7  and  C_8
REMARK    7  A    between atoms: C_8  and  N_9
REMARK    8  A    between atoms: N_18  and  C_19
REMARK                            x       y       z     vdW  Elec       q    Type
REMARK                         _______ _______ _______ _____ _____    ______ ____
ROOT
ATOM      1  C   UNL     1      -4.583   7.396 130.532  0.00  0.00    +0.000 A 
ATOM      2  C   UNL     1      -5.675   6.593 130.841  0.00  0.00    +0.000 A 
ATOM      3  C   UNL     1      -5.820   6.132 132.135  0.00  0.00    +0.000 A 
ATOM      4  C   UNL     1      -4.790   6.141 133.087  0.00  0.00    +0.000 A 
ATOM      5  C   UNL     1      -4.845   5.445 134.320  0.00  0.00    +0.000 A 
ATOM      6  N   UNL     1      -5.884   4.553 134.681  0.00  0.00    +0.000 N 
ATOM      7  N   UNL     1      -3.859   5.606 135.224  0.00  0.00    +0.000 NA
ATOM      8  C   UNL     1      -2.841   6.400 134.858  0.00  0.00    +0.000 A 
ATOM      9  N   UNL     1      -2.676   7.028 133.680  0.00  0.00    +0.000 NA
ATOM     10  C   UNL     1      -3.666   6.885 132.784  0.00  0.00    +0.000 A 
ATOM     11  C   UNL     1      -3.586   7.515 131.523  0.00  0.00    +0.000 A 
ATOM     12  H   UNL     1      -5.832   4.268 135.650  0.00  0.00    +0.000 HD
ENDROOT
BRANCH   6  13
ATOM     13  C   UNL     1      -6.958   4.043 133.916  0.00  0.00    +0.000 A 
ATOM     14  C   UNL     1      -6.759   2.939 133.069  0.00  0.00    +0.000 A 
ATOM     15  C   UNL     1      -7.861   2.209 132.596  0.00  0.00    +0.000 A 
ATOM     16 CL   UNL     1      -7.602   0.794 131.645  0.00  0.00    +0.000 Cl
ATOM     17  C   UNL     1      -9.158   2.576 132.958  0.00  0.00    +0.000 A 
ATOM     18  F   UNL     1     -10.213   1.831 132.594  0.00  0.00    +0.000 F 
ATOM     19  C   UNL     1      -9.373   3.698 133.747  0.00  0.00    +0.000 A 
ATOM     20  C   UNL     1      -8.280   4.456 134.187  0.00  0.00    +0.000 A 
ENDBRANCH   6  13
BRANCH   1  22
ATOM     21  C   UNL     1      -3.241   7.392 128.502  0.00  0.00    +0.000 C 
ATOM     22  O   UNL     1      -4.250   7.984 129.331  0.00  0.00    +0.000 OA
ENDBRANCH   1  22
BRANCH   2  23
ATOM     23  O   UNL     1      -6.669   6.023 130.074  0.00  0.00    +0.000 OA
BRANCH  23  24
ATOM     24  C   UNL     1      -7.849   5.966 130.802  0.00  0.00    +0.000 C 
BRANCH  24  25
ATOM     25  C   UNL     1      -8.769   7.124 130.693  0.00  0.00    +0.000 C 
BRANCH  25  26
ATOM     26  C   UNL     1     -10.022   6.823 129.868  0.00  0.00    +0.000 C 
BRANCH  26  27
ATOM     27  N   UNL     1     -10.807   8.000 129.421  0.00  0.00    +0.000 NA
ATOM     28  C   UNL     1     -12.240   7.685 129.616  0.00  0.00    +0.000 C 
ATOM     29  C   UNL     1     -12.638   6.495 128.723  0.00  0.00    +0.000 C 
ATOM     30  O   UNL     1     -12.449   6.759 127.322  0.00  0.00    +0.000 OA
ATOM     31  C   UNL     1     -11.206   7.385 126.943  0.00  0.00    +0.000 C 
ATOM     32  C   UNL     1     -10.671   8.390 127.991  0.00  0.00    +0.000 C 
ENDBRANCH  26  27
ENDBRANCH  25  26
ENDBRANCH  24  25
ENDBRANCH  23  24
ENDBRANCH   2  23
TORSDOF 7
ENDMDL
MODEL 2
REMARK VINA RESULT:      -7.5      7.693     10.642
REMARK  Name = Gefitinib
REMARK  8 active torsions:
REMARK  status: ('A' for Active; 'I' for Inactive)
REMARK    1  A    between atoms: C_1  and  O_2
REMARK    2  A    between atoms: O_2  and  C_3
REMARK    3  A    between atoms: C_4  and  O_5
REMARK    4  A    between atoms: O_5  and  C_6
REMARK    5  A    between atoms: C_6  and  C_7
REMARK    6  A    between atoms: C_7  and  C_8
REMARK    7  A    between atoms: C_8  and  N_9
REMARK    8  A    between atoms: N_18  and  C_19
REMARK                            x       y       z     vdW  Elec       q    Type
REMARK                         _______ _______ _______ _____ _____    ______ ____
ROOT
ATOM      1  C   UNL     1      -7.161   0.458 128.453  0.00  0.00    +0.000 A 
ATOM      2  C   UNL     1      -7.044  -0.471 127.426  0.00  0.00    +0.000 A 
ATOM      3  C   UNL     1      -7.137  -0.037 126.118  0.00  0.00    +0.000 A 
ATOM      4  C   UNL     1      -7.657   1.210 125.744  0.00  0.00    +0.000 A 
ATOM      5  C   UNL     1      -7.994   1.562 124.414  0.00  0.00    +0.000 A 
ATOM      6  N   UNL     1      -7.972   0.656 123.325  0.00  0.00    +0.000 N 
ATOM      7  N   UNL     1      -8.376   2.823 124.131  0.00  0.00    +0.000 NA
ATOM      8  C   UNL     1      -8.461   3.666 125.172  0.00  0.00    +0.000 A 
ATOM      9  N   UNL     1      -8.238   3.389 126.469  0.00  0.00    +0.000 NA
ATOM     10  C   UNL     1      -7.838   2.138 126.752  0.00  0.00    +0.000 A 
ATOM     11  C   UNL     1      -7.571   1.757 128.085  0.00  0.00    +0.000 A 
ATOM     12  H   UNL     1      -8.096   1.118 122.434  0.00  0.00    +0.000 HD
ENDROOT
BRANCH   6  13
ATOM     13  C   UNL     1      -7.781  -0.744 123.305  0.00  0.00    +0.000 A 
ATOM     14  C   UNL     1      -6.485  -1.277 123.208  0.00  0.00    +0.000 A 
ATOM     15  C   UNL     1      -6.250  -2.620 123.547  0.00  0.00    +0.000 A 
ATOM     16 CL   UNL     1      -4.640  -3.235 123.527  0.00  0.00    +0.000 Cl
ATOM     17  C   UNL     1      -7.300  -3.432 123.977  0.00  0.00    +0.000 A 
ATOM     18  F   UNL     1      -7.076  -4.686 124.397  0.00  0.00    +0.000 F 
ATOM     19  C   UNL     1      -8.596  -2.935 124.023  0.00  0.00    +0.000 A 
ATOM     20  C   UNL     1      -8.843  -1.609 123.645  0.00  0.00    +0.000 A 
ENDBRANCH   6  13
BRANCH   1  22
ATOM     21  C   UNL     1      -8.233   0.472 130.636  0.00  0.00    +0.000 C 
ATOM     22  O   UNL     1      -7.078   0.264 129.814  0.00  0.00    +0.000 OA
ENDBRANCH   1  22
BRANCH   2  23
ATOM     23  O   UNL     1      -6.950  -1.847 127.410  0.00  0.00    +0.000 OA
BRANCH  23  24
ATOM     24  C   UNL     1      -8.194  -2.406 127.667  0.00  0.00    +0.000 C 
BRANCH  24  25
ATOM     25  C   UNL     1      -8.250  -3.512 128.652  0.00  0.00    +0.000 C 
BRANCH  25  26
ATOM     26  C   UNL     1      -7.606  -3.156 129.995  0.00  0.00    +0.000 C 
BRANCH  26  27
ATOM     27  N   UNL     1      -6.409  -3.945 130.373  0.00  0.00    +0.000 NA
ATOM     28  C   UNL     1      -6.189  -3.761 131.825  0.00  0.00    +0.000 C 
ATOM     29  C   UNL     1      -5.884  -2.281 132.121  0.00  0.00    +0.000 C 
ATOM     30  O   UNL     1      -4.702  -1.808 131.451  0.00  0.00    +0.000 OA
ATOM     31  C   UNL     1      -4.558  -2.168 130.062  0.00  0.00    +0.000 C 
ATOM     32  C   UNL     1      -5.125  -3.567 129.720  0.00  0.00    +0.000 C 
ENDBRANCH  26  27
ENDBRANCH  25  26
ENDBRANCH  24  25
ENDBRANCH  23  24
ENDBRANCH   2  23
TORSDOF 7
ENDMDL
MODEL 3
REMARK VINA RESULT:      -7.3      5.958      7.987
REMARK  Name = Gefitinib
REMARK  8 active torsions:
REMARK  status: ('A' for Active; 'I' for Inactive)
REMARK    1  A    between atoms: C_1  and  O_2
REMARK    2  A    between atoms: O_2  and  C_3
REMARK    3  A    between atoms: C_4  and  O_5
REMARK    4  A    between atoms: O_5  and  C_6
REMARK    5  A    between atoms: C_6  and  C_7
REMARK    6  A    between atoms: C_7  and  C_8
REMARK    7  A    between atoms: C_8  and  N_9
REMARK    8  A    between atoms: N_18  and  C_19
REMARK                            x       y       z     vdW  Elec       q    Type
REMARK                         _______ _______ _______ _____ _____    ______ ____
ROOT
ATOM      1  C   UNL     1      -8.694   1.516 125.845  0.00  0.00    +0.000 A 
ATOM      2  C   UNL     1      -8.047   1.168 127.025  0.00  0.00    +0.000 A 
ATOM      3  C   UNL     1      -7.727  -0.158 127.246  0.00  0.00    +0.000 A 
ATOM      4  C   UNL     1      -8.284  -1.225 126.528  0.00  0.00    +0.000 A 
ATOM      5  C   UNL     1      -8.165  -2.584 126.909  0.00  0.00    +0.000 A 
ATOM      6  N   UNL     1      -7.585  -3.018 128.127  0.00  0.00    +0.000 N 
ATOM      7  N   UNL     1      -8.630  -3.552 126.096  0.00  0.00    +0.000 NA
ATOM      8  C   UNL     1      -9.238  -3.141 124.971  0.00  0.00    +0.000 A 
ATOM      9  N   UNL     1      -9.463  -1.875 124.579  0.00  0.00    +0.000 NA
ATOM     10  C   UNL     1      -8.982  -0.908 125.379  0.00  0.00    +0.000 A 
ATOM     11  C   UNL     1      -9.161   0.451 125.044  0.00  0.00    +0.000 A 
ATOM     12  H   UNL     1      -7.453  -4.021 128.159  0.00  0.00    +0.000 HD
ENDROOT
BRANCH   6  13
ATOM     13  C   UNL     1      -7.159  -2.276 129.251  0.00  0.00    +0.000 A 
ATOM     14  C   UNL     1      -5.848  -1.769 129.306  0.00  0.00    +0.000 A 
ATOM     15  C   UNL     1      -5.527  -0.748 130.215  0.00  0.00    +0.000 A 
ATOM     16 CL   UNL     1      -3.946  -0.061 130.200  0.00  0.00    +0.000 Cl
ATOM     17  C   UNL     1      -6.501  -0.234 131.071  0.00  0.00    +0.000 A 
ATOM     18  F   UNL     1      -6.235   0.806 131.876  0.00  0.00    +0.000 F 
ATOM     19  C   UNL     1      -7.785  -0.764 131.069  0.00  0.00    +0.000 A 
ATOM     20  C   UNL     1      -8.100  -1.812 130.194  0.00  0.00    +0.000 A 
ENDBRANCH   6  13
BRANCH   1  22
ATOM     21  C   UNL     1      -8.095   3.736 125.051  0.00  0.00    +0.000 C 
ATOM     22  O   UNL     1      -9.084   2.760 125.403  0.00  0.00    +0.000 OA
ENDBRANCH   1  22
BRANCH   2  23
ATOM     23  O   UNL     1      -7.715   1.879 128.158  0.00  0.00    +0.000 OA
BRANCH  23  24
ATOM     24  C   UNL     1      -8.861   2.166 128.886  0.00  0.00    +0.000 C 
BRANCH  24  25
ATOM     25  C   UNL     1      -8.677   2.716 130.251  0.00  0.00    +0.000 C 
BRANCH  25  26
ATOM     26  C   UNL     1      -9.857   3.569 130.721  0.00  0.00    +0.000 C 
BRANCH  26  27
ATOM     27  N   UNL     1     -10.219   4.716 129.853  0.00  0.00    +0.000 NA
ATOM     28  C   UNL     1      -9.138   5.721 129.962  0.00  0.00    +0.000 C 
ATOM     29  C   UNL     1      -9.055   6.241 131.409  0.00  0.00    +0.000 C 
ATOM     30  O   UNL     1     -10.270   6.877 131.846  0.00  0.00    +0.000 OA
ATOM     31  C   UNL     1     -11.503   6.196 131.539  0.00  0.00    +0.000 C 
ATOM     32  C   UNL     1     -11.477   5.439 130.189  0.00  0.00    +0.000 C 
ENDBRANCH  26  27
ENDBRANCH  25  26
ENDBRANCH  24  25
ENDBRANCH  23  24
ENDBRANCH   2  23
TORSDOF 7
ENDMDL
MODEL 4
REMARK VINA RESULT:      -7.3      2.983      6.721
REMARK  Name = Gefitinib
REMARK  8 active torsions:
REMARK  status: ('A' for Active; 'I' for Inactive)
REMARK    1  A    between atoms: C_1  and  O_2
REMARK    2  A    between atoms: O_2  and  C_3
REMARK    3  A    between atoms: C_4  and  O_5
REMARK    4  A    between atoms: O_5  and  C_6
REMARK    5  A    between atoms: C_6  and  C_7
REMARK    6  A    between atoms: C_7  and  C_8
REMARK    7  A    between atoms: C_8  and  N_9
REMARK    8  A    between atoms: N_18  and  C_19
REMARK                            x       y       z     vdW  Elec       q    Type
REMARK                         _______ _______ _______ _____ _____    ______ ____
ROOT
ATOM      1  C   UNL     1     -10.233   6.478 127.787  0.00  0.00    +0.000 A 
ATOM      2  C   UNL     1      -9.471   5.748 128.691  0.00  0.00    +0.000 A 
ATOM      3  C   UNL     1      -9.941   5.581 129.980  0.00  0.00    +0.000 A 
ATOM      4  C   UNL     1     -10.965   6.354 130.543  0.00  0.00    +0.000 A 
ATOM      5  C   UNL     1     -11.277   6.371 131.925  0.00  0.00    +0.000 A 
ATOM      6  N   UNL     1     -10.511   5.713 132.918  0.00  0.00    +0.000 N 
ATOM      7  N   UNL     1     -12.354   7.053 132.361  0.00  0.00    +0.000 NA
ATOM      8  C   UNL     1     -13.045   7.730 131.430  0.00  0.00    +0.000 A 
ATOM      9  N   UNL     1     -12.768   7.832 130.118  0.00  0.00    +0.000 NA
ATOM     10  C   UNL     1     -11.706   7.136 129.677  0.00  0.00    +0.000 A 
ATOM     11  C   UNL     1     -11.343   7.174 128.314  0.00  0.00    +0.000 A 
ATOM     12  H   UNL     1     -10.966   5.711 133.821  0.00  0.00    +0.000 HD
ENDROOT
BRANCH   6  13
ATOM     13  C   UNL     1      -9.260   5.062 132.825  0.00  0.00    +0.000 A 
ATOM     14  C   UNL     1      -8.079   5.816 132.719  0.00  0.00    +0.000 A 
ATOM     15  C   UNL     1      -6.837   5.219 132.988  0.00  0.00    +0.000 A 
ATOM     16 CL   UNL     1      -5.405   6.179 132.959  0.00  0.00    +0.000 Cl
ATOM     17  C   UNL     1      -6.767   3.875 133.358  0.00  0.00    +0.000 A 
ATOM     18  F   UNL     1      -5.599   3.316 133.712  0.00  0.00    +0.000 F 
ATOM     19  C   UNL     1      -7.919   3.102 133.410  0.00  0.00    +0.000 A 
ATOM     20  C   UNL     1      -9.156   3.682 133.101  0.00  0.00    +0.000 A 
ENDBRANCH   6  13
BRANCH   1  22
ATOM     21  C   UNL     1     -10.784   7.715 125.766  0.00  0.00    +0.000 C 
ATOM     22  O   UNL     1      -9.982   6.752 126.460  0.00  0.00    +0.000 OA
ENDBRANCH   1  22
BRANCH   2  23
ATOM     23  O   UNL     1      -8.211   5.193 128.624  0.00  0.00    +0.000 OA
BRANCH  23  24
ATOM     24  C   UNL     1      -8.169   4.029 129.378  0.00  0.00    +0.000 C 
BRANCH  24  25
ATOM     25  C   UNL     1      -6.831   3.471 129.689  0.00  0.00    +0.000 C 
BRANCH  25  26
ATOM     26  C   UNL     1      -5.698   4.481 129.499  0.00  0.00    +0.000 C 
BRANCH  26  27
ATOM     27  N   UNL     1      -4.333   3.997 129.817  0.00  0.00    +0.000 NA
ATOM     28  C   UNL     1      -3.399   5.131 129.636  0.00  0.00    +0.000 C 
ATOM     29  C   UNL     1      -3.403   5.577 128.162  0.00  0.00    +0.000 C 
ATOM     30  O   UNL     1      -2.984   4.536 127.261  0.00  0.00    +0.000 OA
ATOM     31  C   UNL     1      -3.549   3.227 127.478  0.00  0.00    +0.000 C 
ATOM     32  C   UNL     1      -3.799   2.896 128.969  0.00  0.00    +0.000 C 
ENDBRANCH  26  27
ENDBRANCH  25  26
ENDBRANCH  24  25
ENDBRANCH  23  24
ENDBRANCH   2  23
TORSDOF 7
ENDMDL
MODEL 5
REMARK VINA RESULT:      -7.3      6.889      8.566
REMARK  Name = Gefitinib
REMARK  8 active torsions:
REMARK  status: ('A' for Active; 'I' for Inactive)
REMARK    1  A    between atoms: C_1  and  O_2
REMARK    2  A    between atoms: O_2  and  C_3
REMARK    3  A    between atoms: C_4  and  O_5
REMARK    4  A    between atoms: O_5  and  C_6
REMARK    5  A    between atoms: C_6  and  C_7
REMARK    6  A    between atoms: C_7  and  C_8
REMARK    7  A    between atoms: C_8  and  N_9
REMARK    8  A    between atoms: N_18  and  C_19
REMARK                            x       y       z     vdW  Elec       q    Type
REMARK                         _______ _______ _______ _____ _____    ______ ____
ROOT
ATOM      1  C   UNL     1      -7.637   1.864 129.678  0.00  0.00    +0.000 A 
ATOM      2  C   UNL     1      -7.890   1.158 128.508  0.00  0.00    +0.000 A 
ATOM      3  C   UNL     1      -8.085  -0.208 128.580  0.00  0.00    +0.000 A 
ATOM      4  C   UNL     1      -7.732  -0.988 129.689  0.00  0.00    +0.000 A 
ATOM      5  C   UNL     1      -7.686  -2.404 129.679  0.00  0.00    +0.000 A 
ATOM      6  N   UNL     1      -7.861  -3.195 128.516  0.00  0.00    +0.000 N 
ATOM      7  N   UNL     1      -7.452  -3.076 130.824  0.00  0.00    +0.000 NA
ATOM      8  C   UNL     1      -7.222  -2.328 131.915  0.00  0.00    +0.000 A 
ATOM      9  N   UNL     1      -7.167  -0.986 131.990  0.00  0.00    +0.000 NA
ATOM     10  C   UNL     1      -7.420  -0.314 130.854  0.00  0.00    +0.000 A 
ATOM     11  C   UNL     1      -7.394   1.097 130.838  0.00  0.00    +0.000 A 
ATOM     12  H   UNL     1      -7.944  -4.181 128.726  0.00  0.00    +0.000 HD
ENDROOT
BRANCH   6  13
ATOM     13  C   UNL     1      -7.957  -2.814 127.159  0.00  0.00    +0.000 A 
ATOM     14  C   UNL     1      -6.799  -2.481 126.436  0.00  0.00    +0.000 A 
ATOM     15  C   UNL     1      -6.829  -2.458 125.032  0.00  0.00    +0.000 A 
ATOM     16 CL   UNL     1      -5.377  -2.154 124.153  0.00  0.00    +0.000 Cl
ATOM     17  C   UNL     1      -8.006  -2.760 124.347  0.00  0.00    +0.000 A 
ATOM     18  F   UNL     1      -8.026  -2.837 123.008  0.00  0.00    +0.000 F 
ATOM     19  C   UNL     1      -9.173  -3.034 125.049  0.00  0.00    +0.000 A 
ATOM     20  C   UNL     1      -9.160  -3.016 126.449  0.00  0.00    +0.000 A 
ENDBRANCH   6  13
BRANCH   1  22
ATOM     21  C   UNL     1      -6.249   3.834 129.343  0.00  0.00    +0.000 C 
ATOM     22  O   UNL     1      -7.438   3.216 129.852  0.00  0.00    +0.000 OA
ENDBRANCH   1  22
BRANCH   2  23
ATOM     23  O   UNL     1      -7.893   1.517 127.177  0.00  0.00    +0.000 OA
BRANCH  23  24
ATOM     24  C   UNL     1      -8.870   0.803 126.499  0.00  0.00    +0.000 C 
BRANCH  24  25
ATOM     25  C   UNL     1      -8.756   0.731 125.023  0.00  0.00    +0.000 C 
BRANCH  25  26
ATOM     26  C   UNL     1      -7.661   1.639 124.458  0.00  0.00    +0.000 C 
BRANCH  26  27
ATOM     27  N   UNL     1      -8.072   3.023 124.118  0.00  0.00    +0.000 NA
ATOM     28  C   UNL     1      -8.015   3.159 122.645  0.00  0.00    +0.000 C 
ATOM     29  C   UNL     1      -6.565   2.974 122.161  0.00  0.00    +0.000 C 
ATOM     30  O   UNL     1      -5.662   3.948 122.712  0.00  0.00    +0.000 OA
ATOM     31  C   UNL     1      -5.778   4.212 124.125  0.00  0.00    +0.000 C 
ATOM     32  C   UNL     1      -7.228   4.124 124.658  0.00  0.00    +0.000 C 
ENDBRANCH  26  27
ENDBRANCH  25  26
ENDBRANCH  24  25
ENDBRANCH  23  24
ENDBRANCH   2  23
TORSDOF 7
ENDMDL
MODEL 6
REMARK VINA RESULT:      -7.3      4.285      6.086
REMARK  Name = Gefitinib
REMARK  8 active torsions:
REMARK  status: ('A' for Active; 'I' for Inactive)
REMARK    1  A    between atoms: C_1  and  O_2
REMARK    2  A    between atoms: O_2  and  C_3
REMARK    3  A    between atoms: C_4  and  O_5
REMARK    4  A    between atoms: O_5  and  C_6
REMARK    5  A    between atoms: C_6  and  C_7
REMARK    6  A    between atoms: C_7  and  C_8
REMARK    7  A    between atoms: C_8  and  N_9
REMARK    8  A    between atoms: N_18  and  C_19
REMARK                            x       y       z     vdW  Elec       q    Type
REMARK                         _______ _______ _______ _____ _____    ______ ____
ROOT
ATOM      1  C   UNL     1      -8.390   1.805 126.987  0.00  0.00    +0.000 A 
ATOM      2  C   UNL     1      -8.520   2.073 128.344  0.00  0.00    +0.000 A 
ATOM      3  C   UNL     1      -7.942   1.210 129.255  0.00  0.00    +0.000 A 
ATOM      4  C   UNL     1      -7.510  -0.085 128.936  0.00  0.00    +0.000 A 
ATOM      5  C   UNL     1      -7.158  -1.063 129.899  0.00  0.00    +0.000 A 
ATOM      6  N   UNL     1      -7.327  -0.895 131.296  0.00  0.00    +0.000 N 
ATOM      7  N   UNL     1      -6.640  -2.241 129.500  0.00  0.00    +0.000 NA
ATOM      8  C   UNL     1      -6.539  -2.427 128.175  0.00  0.00    +0.000 A 
ATOM      9  N   UNL     1      -6.925  -1.586 127.199  0.00  0.00    +0.000 NA
ATOM     10  C   UNL     1      -7.424  -0.402 127.594  0.00  0.00    +0.000 A 
ATOM     11  C   UNL     1      -7.846   0.549 126.641  0.00  0.00    +0.000 A 
ATOM     12  H   UNL     1      -6.885  -1.632 131.831  0.00  0.00    +0.000 HD
ENDROOT
BRANCH   6  13
ATOM     13  C   UNL     1      -7.978   0.127 132.022  0.00  0.00    +0.000 A 
ATOM     14  C   UNL     1      -7.224   1.062 132.753  0.00  0.00    +0.000 A 
ATOM     15  C   UNL     1      -7.811   2.268 133.167  0.00  0.00    +0.000 A 
ATOM     16 CL   UNL     1      -6.850   3.453 133.970  0.00  0.00    +0.000 Cl
ATOM     17  C   UNL     1      -9.144   2.545 132.861  0.00  0.00    +0.000 A 
ATOM     18  F   UNL     1      -9.691   3.733 133.164  0.00  0.00    +0.000 F 
ATOM     19  C   UNL     1      -9.918   1.607 132.189  0.00  0.00    +0.000 A 
ATOM     20  C   UNL     1      -9.349   0.384 131.811  0.00  0.00    +0.000 A 
ENDBRANCH   6  13
BRANCH   1  22
ATOM     21  C   UNL     1      -9.269   1.847 124.718  0.00  0.00    +0.000 C 
ATOM     22  O   UNL     1      -8.854   2.528 125.910  0.00  0.00    +0.000 OA
ENDBRANCH   1  22
BRANCH   2  23
ATOM     23  O   UNL     1      -9.232   3.019 129.050  0.00  0.00    +0.000 OA
BRANCH  23  24
ATOM     24  C   UNL     1      -8.425   4.118 129.309  0.00  0.00    +0.000 C 
BRANCH  24  25
ATOM     25  C   UNL     1      -8.924   5.108 130.294  0.00  0.00    +0.000 C 
BRANCH  25  26
ATOM     26  C   UNL     1      -9.510   6.363 129.642  0.00  0.00    +0.000 C 
BRANCH  26  27
ATOM     27  N   UNL     1     -10.703   6.157 128.786  0.00  0.00    +0.000 NA
ATOM     28  C   UNL     1     -10.601   7.089 127.641  0.00  0.00    +0.000 C 
ATOM     29  C   UNL     1     -10.640   8.542 128.148  0.00  0.00    +0.000 C 
ATOM     30  O   UNL     1     -11.857   8.859 128.846  0.00  0.00    +0.000 OA
ATOM     31  C   UNL     1     -12.323   7.891 129.808  0.00  0.00    +0.000 C 
ATOM     32  C   UNL     1     -12.028   6.425 129.408  0.00  0.00    +0.000 C 
ENDBRANCH  26  27
ENDBRANCH  25  26
ENDBRANCH  24  25
ENDBRANCH  23  24
ENDBRANCH   2  23
TORSDOF 7
ENDMDL
MODEL 7
REMARK VINA RESULT:      -7.3      6.686      9.353
REMARK  Name = Gefitinib
REMARK  8 active torsions:
REMARK  status: ('A' for Active; 'I' for Inactive)
REMARK    1  A    between atoms: C_1  and  O_2
REMARK    2  A    between atoms: O_2  and  C_3
REMARK    3  A    between atoms: C_4  and  O_5
REMARK    4  A    between atoms: O_5  and  C_6
REMARK    5  A    between atoms: C_6  and  C_7
REMARK    6  A    between atoms: C_7  and  C_8
REMARK    7  A    between atoms: C_8  and  N_9
REMARK    8  A    between atoms: N_18  and  C_19
REMARK                            x       y       z     vdW  Elec       q    Type
REMARK                         _______ _______ _______ _____ _____    ______ ____
ROOT
ATOM      1  C   UNL     1      -8.616   2.731 125.073  0.00  0.00    +0.000 A 
ATOM      2  C   UNL     1      -7.900   1.865 125.890  0.00  0.00    +0.000 A 
ATOM      3  C   UNL     1      -7.766   0.544 125.509  0.00  0.00    +0.000 A 
ATOM      4  C   UNL     1      -8.560  -0.070 124.531  0.00  0.00    +0.000 A 
ATOM      5  C   UNL     1      -8.611  -1.469 124.314  0.00  0.00    +0.000 A 
ATOM      6  N   UNL     1      -7.969  -2.423 125.143  0.00  0.00    +0.000 N 
ATOM      7  N   UNL     1      -9.312  -1.962 123.275  0.00  0.00    +0.000 NA
ATOM      8  C   UNL     1      -9.973  -1.065 122.526  0.00  0.00    +0.000 A 
ATOM      9  N   UNL     1     -10.043   0.264 122.714  0.00  0.00    +0.000 NA
ATOM     10  C   UNL     1      -9.329   0.761 123.739  0.00  0.00    +0.000 A 
ATOM     11  C   UNL     1      -9.333   2.146 124.007  0.00  0.00    +0.000 A 
ATOM     12  H   UNL     1      -7.991  -3.355 124.751  0.00  0.00    +0.000 HD
ENDROOT
BRANCH   6  13
ATOM     13  C   UNL     1      -7.305  -2.259 126.380  0.00  0.00    +0.000 A 
ATOM     14  C   UNL     1      -7.973  -2.550 127.582  0.00  0.00    +0.000 A 
ATOM     15  C   UNL     1      -7.241  -2.743 128.764  0.00  0.00    +0.000 A 
ATOM     16 CL   UNL     1      -8.060  -3.203 130.210  0.00  0.00    +0.000 Cl
ATOM     17  C   UNL     1      -5.849  -2.642 128.755  0.00  0.00    +0.000 A 
ATOM     18  F   UNL     1      -5.129  -2.919 129.853  0.00  0.00    +0.000 F 
ATOM     19  C   UNL     1      -5.180  -2.299 127.588  0.00  0.00    +0.000 A 
ATOM     20  C   UNL     1      -5.908  -2.063 126.415  0.00  0.00    +0.000 A 
ENDBRANCH   6  13
BRANCH   1  22
ATOM     21  C   UNL     1      -7.790   4.953 125.621  0.00  0.00    +0.000 C 
ATOM     22  O   UNL     1      -8.857   4.078 125.235  0.00  0.00    +0.000 OA
ENDBRANCH   1  22
BRANCH   2  23
ATOM     23  O   UNL     1      -7.333   2.005 127.139  0.00  0.00    +0.000 OA
BRANCH  23  24
ATOM     24  C   UNL     1      -7.903   1.097 128.019  0.00  0.00    +0.000 C 
BRANCH  24  25
ATOM     25  C   UNL     1      -7.212   0.883 129.314  0.00  0.00    +0.000 C 
BRANCH  25  26
ATOM     26  C   UNL     1      -8.038   1.338 130.520  0.00  0.00    +0.000 C 
BRANCH  26  27
ATOM     27  N   UNL     1      -7.886   2.760 130.914  0.00  0.00    +0.000 NA
ATOM     28  C   UNL     1      -6.704   2.856 131.800  0.00  0.00    +0.000 C 
ATOM     29  C   UNL     1      -6.947   2.041 133.083  0.00  0.00    +0.000 C 
ATOM     30  O   UNL     1      -8.080   2.508 133.837  0.00  0.00    +0.000 OA
ATOM     31  C   UNL     1      -9.280   2.796 133.090  0.00  0.00    +0.000 C 
ATOM     32  C   UNL     1      -9.012   3.366 131.677  0.00  0.00    +0.000 C 
ENDBRANCH  26  27
ENDBRANCH  25  26
ENDBRANCH  24  25
ENDBRANCH  23  24
ENDBRANCH   2  23
TORSDOF 7
ENDMDL
MODEL 8
REMARK VINA RESULT:      -7.3      6.709      8.157
REMARK  Name = Gefitinib
REMARK  8 active torsions:
REMARK  status: ('A' for Active; 'I' for Inactive)
REMARK    1  A    between atoms: C_1  and  O_2
REMARK    2  A    between atoms: O_2  and  C_3
REMARK    3  A    between atoms: C_4  and  O_5
REMARK    4  A    between atoms: O_5  and  C_6
REMARK    5  A    between atoms: C_6  and  C_7
REMARK    6  A    between atoms: C_7  and  C_8
REMARK    7  A    between atoms: C_8  and  N_9
REMARK    8  A    between atoms: N_18  and  C_19
REMARK                            x       y       z     vdW  Elec       q    Type
REMARK                         _______ _______ _______ _____ _____    ______ ____
ROOT
ATOM      1  C   UNL     1      -6.432   2.438 126.569  0.00  0.00    +0.000 A 
ATOM      2  C   UNL     1      -6.280   1.136 127.029  0.00  0.00    +0.000 A 
ATOM      3  C   UNL     1      -7.089   0.691 128.057  0.00  0.00    +0.000 A 
ATOM      4  C   UNL     1      -7.828   1.541 128.891  0.00  0.00    +0.000 A 
ATOM      5  C   UNL     1      -8.449   1.127 130.095  0.00  0.00    +0.000 A 
ATOM      6  N   UNL     1      -8.287  -0.159 130.669  0.00  0.00    +0.000 N 
ATOM      7  N   UNL     1      -9.239   1.984 130.772  0.00  0.00    +0.000 NA
ATOM      8  C   UNL     1      -9.342   3.223 130.265  0.00  0.00    +0.000 A 
ATOM      9  N   UNL     1      -8.723   3.716 129.178  0.00  0.00    +0.000 NA
ATOM     10  C   UNL     1      -7.950   2.858 128.491  0.00  0.00    +0.000 A 
ATOM     11  C   UNL     1      -7.268   3.283 127.330  0.00  0.00    +0.000 A 
ATOM     12  H   UNL     1      -8.920  -0.322 131.441  0.00  0.00    +0.000 HD
ENDROOT
BRANCH   6  13
ATOM     13  C   UNL     1      -7.419  -1.215 130.312  0.00  0.00    +0.000 A 
ATOM     14  C   UNL     1      -6.103  -1.243 130.804  0.00  0.00    +0.000 A 
ATOM     15  C   UNL     1      -5.362  -2.435 130.764  0.00  0.00    +0.000 A 
ATOM     16 CL   UNL     1      -3.788  -2.485 131.466  0.00  0.00    +0.000 Cl
ATOM     17  C   UNL     1      -5.924  -3.596 130.233  0.00  0.00    +0.000 A 
ATOM     18  F   UNL     1      -5.266  -4.765 130.276  0.00  0.00    +0.000 F 
ATOM     19  C   UNL     1      -7.203  -3.570 129.690  0.00  0.00    +0.000 A 
ATOM     20  C   UNL     1      -7.930  -2.374 129.689  0.00  0.00    +0.000 A 
ENDBRANCH   6  13
BRANCH   1  22
ATOM     21  C   UNL     1      -4.471   3.653 125.795  0.00  0.00    +0.000 C 
ATOM     22  O   UNL     1      -5.764   3.084 125.552  0.00  0.00    +0.000 OA
ENDBRANCH   1  22
BRANCH   2  23
ATOM     23  O   UNL     1      -5.373   0.138 126.742  0.00  0.00    +0.000 OA
BRANCH  23  24
ATOM     24  C   UNL     1      -5.930  -1.100 127.027  0.00  0.00    +0.000 C 
BRANCH  24  25
ATOM     25  C   UNL     1      -5.708  -2.186 126.042  0.00  0.00    +0.000 C 
BRANCH  25  26
ATOM     26  C   UNL     1      -6.894  -2.394 125.097  0.00  0.00    +0.000 C 
BRANCH  26  27
ATOM     27  N   UNL     1      -8.169  -1.754 125.502  0.00  0.00    +0.000 NA
ATOM     28  C   UNL     1      -9.223  -2.794 125.473  0.00  0.00    +0.000 C 
ATOM     29  C   UNL     1      -9.400  -3.315 124.035  0.00  0.00    +0.000 C 
ATOM     30  O   UNL     1      -9.795  -2.286 123.111  0.00  0.00    +0.000 OA
ATOM     31  C   UNL     1      -9.087  -1.032 123.196  0.00  0.00    +0.000 C 
ATOM     32  C   UNL     1      -8.668  -0.651 124.636  0.00  0.00    +0.000 C 
ENDBRANCH  26  27
ENDBRANCH  25  26
ENDBRANCH  24  25
ENDBRANCH  23  24
ENDBRANCH   2  23
TORSDOF 7
ENDMDL
MODEL 9
REMARK VINA RESULT:      -7.2      7.704     10.054
REMARK  Name = Gefitinib
REMARK  8 active torsions:
REMARK  status: ('A' for Active; 'I' for Inactive)
REMARK    1  A    between atoms: C_1  and  O_2
REMARK    2  A    between atoms: O_2  and  C_3
REMARK    3  A    between atoms: C_4  and  O_5
REMARK    4  A    between atoms: O_5  and  C_6
REMARK    5  A    between atoms: C_6  and  C_7
REMARK    6  A    between atoms: C_7  and  C_8
REMARK    7  A    between atoms: C_8  and  N_9
REMARK    8  A    between atoms: N_18  and  C_19
REMARK                            x       y       z     vdW  Elec       q    Type
REMARK                         _______ _______ _______ _____ _____    ______ ____
ROOT
ATOM      1  C   UNL     1      -9.346   1.911 123.799  0.00  0.00    +0.000 A 
ATOM      2  C   UNL     1      -8.611   2.118 124.960  0.00  0.00    +0.000 A 
ATOM      3  C   UNL     1      -7.520   2.965 124.918  0.00  0.00    +0.000 A 
ATOM      4  C   UNL     1      -6.901   3.383 123.731  0.00  0.00    +0.000 A 
ATOM      5  C   UNL     1      -5.644   4.032 123.679  0.00  0.00    +0.000 A 
ATOM      6  N   UNL     1      -4.801   4.218 124.803  0.00  0.00    +0.000 N 
ATOM      7  N   UNL     1      -5.180   4.504 122.505  0.00  0.00    +0.000 NA
ATOM      8  C   UNL     1      -5.947   4.271 121.428  0.00  0.00    +0.000 A 
ATOM      9  N   UNL     1      -7.108   3.594 121.381  0.00  0.00    +0.000 NA
ATOM     10  C   UNL     1      -7.582   3.140 122.553  0.00  0.00    +0.000 A 
ATOM     11  C   UNL     1      -8.799   2.426 122.604  0.00  0.00    +0.000 A 
ATOM     12  H   UNL     1      -4.019   4.829 124.605  0.00  0.00    +0.000 HD
ENDROOT
BRANCH   6  13
ATOM     13  C   UNL     1      -4.907   3.713 126.118  0.00  0.00    +0.000 A 
ATOM     14  C   UNL     1      -5.671   4.399 127.078  0.00  0.00    +0.000 A 
ATOM     15  C   UNL     1      -6.080   3.743 128.250  0.00  0.00    +0.000 A 
ATOM     16 CL   UNL     1      -7.106   4.560 129.370  0.00  0.00    +0.000 Cl
ATOM     17  C   UNL     1      -5.728   2.412 128.473  0.00  0.00    +0.000 A 
ATOM     18  F   UNL     1      -6.192   1.743 129.540  0.00  0.00    +0.000 F 
ATOM     19  C   UNL     1      -4.925   1.738 127.561  0.00  0.00    +0.000 A 
ATOM     20  C   UNL     1      -4.479   2.400 126.410  0.00  0.00    +0.000 A 
ENDBRANCH   6  13
BRANCH   1  22
ATOM     21  C   UNL     1     -10.555   0.263 122.478  0.00  0.00    +0.000 C 
ATOM     22  O   UNL     1     -10.472   1.140 123.609  0.00  0.00    +0.000 OA
ENDBRANCH   1  22
BRANCH   2  23
ATOM     23  O   UNL     1      -8.661   1.554 126.216  0.00  0.00    +0.000 OA
BRANCH  23  24
ATOM     24  C   UNL     1      -7.903   0.392 126.241  0.00  0.00    +0.000 C 
BRANCH  24  25
ATOM     25  C   UNL     1      -8.610  -0.884 125.971  0.00  0.00    +0.000 C 
BRANCH  25  26
ATOM     26  C   UNL     1      -7.663  -2.077 125.819  0.00  0.00    +0.000 C 
BRANCH  26  27
ATOM     27  N   UNL     1      -7.970  -3.015 124.712  0.00  0.00    +0.000 NA
ATOM     28  C   UNL     1      -6.747  -3.804 124.440  0.00  0.00    +0.000 C 
ATOM     29  C   UNL     1      -5.622  -2.869 123.959  0.00  0.00    +0.000 C 
ATOM     30  O   UNL     1      -5.955  -2.171 122.746  0.00  0.00    +0.000 OA
ATOM     31  C   UNL     1      -7.271  -1.586 122.676  0.00  0.00    +0.000 C 
ATOM     32  C   UNL     1      -8.357  -2.409 123.409  0.00  0.00    +0.000 C 
ENDBRANCH  26  27
ENDBRANCH  25  26
ENDBRANCH  24  25
ENDBRANCH  23  24
ENDBRANCH   2  23
TORSDOF 7
ENDMDL
