MODEL 1
REMARK VINA RESULT:      -6.2      0.000      0.000
REMARK  Name = Gemcitabine
REMARK  4 active torsions:
REMARK  status: ('A' for Active; 'I' for Inactive)
REMARK    1  A    between atoms: N_6  and  C_9
REMARK    2  A    between atoms: C_11  and  C_12
REMARK    3  A    between atoms: C_12  and  O_13
REMARK    4  A    between atoms: C_14  and  O_15
REMARK                            x       y       z     vdW  Elec       q    Type
REMARK                         _______ _______ _______ _____ _____    ______ ____
ROOT
ATOM      1  C   UNL     1      -9.327  -0.315 124.014  0.00  0.00    +0.000 C 
ATOM      2  O   UNL     1      -9.432   0.395 122.751  0.00  0.00    +0.000 OA
ATOM      3  C   UNL     1      -9.525   1.806 123.053  0.00  0.00    +0.000 C 
ATOM      4  C   UNL     1      -8.862   2.029 124.410  0.00  0.00    +0.000 C 
ATOM      5  C   UNL     1      -9.180   0.730 125.127  0.00  0.00    +0.000 C 
ATOM      6  F   UNL     1     -10.376   0.855 125.778  0.00  0.00    +0.000 F 
ATOM      7  F   UNL     1      -8.266   0.398 126.059  0.00  0.00    +0.000 F 
ENDROOT
BRANCH   1  13
ATOM      8  N   UNL     1      -5.399  -4.192 123.943  0.00  0.00    +0.000 N 
ATOM      9  C   UNL     1      -6.352  -3.219 124.003  0.00  0.00    +0.000 A 
ATOM     10  N   UNL     1      -7.533  -3.548 124.424  0.00  0.00    +0.000 NA
ATOM     11  C   UNL     1      -8.505  -2.585 124.519  0.00  0.00    +0.000 A 
ATOM     12  O   UNL     1      -9.563  -2.824 125.109  0.00  0.00    +0.000 OA
ATOM     13  N   UNL     1      -8.280  -1.338 123.936  0.00  0.00    +0.000 N 
ATOM     14  C   UNL     1      -7.043  -1.022 123.412  0.00  0.00    +0.000 A 
ATOM     15  C   UNL     1      -6.014  -1.855 123.558  0.00  0.00    +0.000 A 
ATOM     16  H   UNL     1      -5.701  -5.152 124.071  0.00  0.00    +0.000 HD
ATOM     17  H   UNL     1      -4.497  -4.040 123.515  0.00  0.00    +0.000 HD
ENDBRANCH   1  13
BRANCH   4  18
ATOM     18  O   UNL     1      -9.348   3.201 125.075  0.00  0.00    +0.000 OA
ATOM     19  H   UNL     1      -9.481   2.996 126.016  0.00  0.00    +0.000 HD
ENDBRANCH   4  18
BRANCH   3  20
ATOM     20  C   UNL     1      -8.873   2.647 121.948  0.00  0.00    +0.000 C 
BRANCH  20  21
ATOM     21  O   UNL     1      -8.250   3.823 122.451  0.00  0.00    +0.000 OA
ATOM     22  H   UNL     1      -8.933   4.495 122.612  0.00  0.00    +0.000 HD
ENDBRANCH  20  21
ENDBRANCH   3  20
TORSDOF 4
ENDMDL
MODEL 2
REMARK VINA RESULT:      -6.2      2.960      5.298
REMARK  Name = Gemcitabine
REMARK  4 active torsions:
REMARK  status: ('A' for Active; 'I' for Inactive)
REMARK    1  A    between atoms: N_6  and  C_9
REMARK    2  A    between atoms: C_11  and  C_12
REMARK    3  A    between atoms: C_12  and  O_13
REMARK    4  A    between atoms: C_14  and  O_15
REMARK                            x       y       z     vdW  Elec       q    Type
REMARK                         _______ _______ _______ _____ _____    ______ ____
ROOT
ATOM      1  C   UNL     1      -9.520  -1.246 124.193  0.00  0.00    +0.000 C 
ATOM      2  O   UNL     1      -9.499  -1.355 125.642  0.00  0.00    +0.000 OA
ATOM      3  C   UNL     1      -8.944  -2.649 125.972  0.00  0.00    +0.000 C 
ATOM      4  C   UNL     1      -8.058  -3.078 124.805  0.00  0.00    +0.000 C 
ATOM      5  C   UNL     1      -8.785  -2.466 123.622  0.00  0.00    +0.000 C 
ATOM      6  F   UNL     1      -9.708  -3.356 123.149  0.00  0.00    +0.000 F 
ATOM      7  F   UNL     1      -7.971  -2.169 122.592  0.00  0.00    +0.000 F 
ENDROOT
BRANCH   1  13
ATOM      8  N   UNL     1      -7.686   3.645 122.408  0.00  0.00    +0.000 N 
ATOM      9  C   UNL     1      -8.118   2.416 122.812  0.00  0.00    +0.000 A 
ATOM     10  N   UNL     1      -9.335   2.074 122.526  0.00  0.00    +0.000 NA
ATOM     11  C   UNL     1      -9.790   0.834 122.895  0.00  0.00    +0.000 A 
ATOM     12  O   UNL     1     -10.862   0.407 122.456  0.00  0.00    +0.000 OA
ATOM     13  N   UNL     1      -9.024   0.069 123.776  0.00  0.00    +0.000 N 
ATOM     14  C   UNL     1      -7.760   0.481 124.145  0.00  0.00    +0.000 A 
ATOM     15  C   UNL     1      -7.204   1.550 123.578  0.00  0.00    +0.000 A 
ATOM     16  H   UNL     1      -8.382   4.293 122.054  0.00  0.00    +0.000 HD
ATOM     17  H   UNL     1      -6.797   4.027 122.697  0.00  0.00    +0.000 HD
ENDBRANCH   1  13
BRANCH   4  18
ATOM     18  O   UNL     1      -7.902  -4.501 124.725  0.00  0.00    +0.000 OA
ATOM     19  H   UNL     1      -8.506  -4.845 124.046  0.00  0.00    +0.000 HD
ENDBRANCH   4  18
BRANCH   3  20
ATOM     20  C   UNL     1      -8.168  -2.591 127.294  0.00  0.00    +0.000 C 
BRANCH  20  21
ATOM     21  O   UNL     1      -6.758  -2.592 127.100  0.00  0.00    +0.000 OA
ATOM     22  H   UNL     1      -6.569  -2.396 126.167  0.00  0.00    +0.000 HD
ENDBRANCH  20  21
ENDBRANCH   3  20
TORSDOF 4
ENDMDL
MODEL 3
REMARK VINA RESULT:      -6.0      9.123     10.634
REMARK  Name = Gemcitabine
REMARK  4 active torsions:
REMARK  status: ('A' for Active; 'I' for Inactive)
REMARK    1  A    between atoms: N_6  and  C_9
REMARK    2  A    between atoms: C_11  and  C_12
REMARK    3  A    between atoms: C_12  and  O_13
REMARK    4  A    between atoms: C_14  and  O_15
REMARK                            x       y       z     vdW  Elec       q    Type
REMARK                         _______ _______ _______ _____ _____    ______ ____
ROOT
ATOM      1  C   UNL     1      -9.736   6.202 131.407  0.00  0.00    +0.000 C 
ATOM      2  O   UNL     1      -8.494   6.874 131.750  0.00  0.00    +0.000 OA
ATOM      3  C   UNL     1      -7.417   5.934 131.529  0.00  0.00    +0.000 C 
ATOM      4  C   UNL     1      -7.894   4.931 130.482  0.00  0.00    +0.000 C 
ATOM      5  C   UNL     1      -9.378   4.846 130.787  0.00  0.00    +0.000 C 
ATOM      6  F   UNL     1      -9.593   3.865 131.713  0.00  0.00    +0.000 F 
ATOM      7  F   UNL     1     -10.126   4.533 129.711  0.00  0.00    +0.000 F 
ENDROOT
BRANCH   1  13
ATOM      8  N   UNL     1     -13.070   9.355 128.339  0.00  0.00    +0.000 N 
ATOM      9  C   UNL     1     -12.256   8.540 129.068  0.00  0.00    +0.000 A 
ATOM     10  N   UNL     1     -12.734   8.011 130.150  0.00  0.00    +0.000 NA
ATOM     11  C   UNL     1     -11.947   7.166 130.891  0.00  0.00    +0.000 A 
ATOM     12  O   UNL     1     -12.441   6.491 131.800  0.00  0.00    +0.000 OA
ATOM     13  N   UNL     1     -10.584   7.086 130.602  0.00  0.00    +0.000 N 
ATOM     14  C   UNL     1     -10.065   7.721 129.493  0.00  0.00    +0.000 A 
ATOM     15  C   UNL     1     -10.870   8.322 128.618  0.00  0.00    +0.000 A 
ATOM     16  H   UNL     1     -13.947   9.640 128.762  0.00  0.00    +0.000 HD
ATOM     17  H   UNL     1     -12.733   9.895 127.555  0.00  0.00    +0.000 HD
ENDBRANCH   1  13
BRANCH   4  18
ATOM     18  O   UNL     1      -7.205   3.677 130.567  0.00  0.00    +0.000 OA
ATOM     19  H   UNL     1      -6.486   3.669 129.913  0.00  0.00    +0.000 HD
ENDBRANCH   4  18
BRANCH   3  20
ATOM     20  C   UNL     1      -6.139   6.661 131.091  0.00  0.00    +0.000 C 
BRANCH  20  21
ATOM     21  O   UNL     1      -5.617   6.158 129.866  0.00  0.00    +0.000 OA
ATOM     22  H   UNL     1      -5.773   5.199 129.828  0.00  0.00    +0.000 HD
ENDBRANCH  20  21
ENDBRANCH   3  20
TORSDOF 4
ENDMDL
MODEL 4
REMARK VINA RESULT:      -5.7      8.668     10.545
REMARK  Name = Gemcitabine
REMARK  4 active torsions:
REMARK  status: ('A' for Active; 'I' for Inactive)
REMARK    1  A    between atoms: N_6  and  C_9
REMARK    2  A    between atoms: C_11  and  C_12
REMARK    3  A    between atoms: C_12  and  O_13
REMARK    4  A    between atoms: C_14  and  O_15
REMARK                            x       y       z     vdW  Elec       q    Type
REMARK                         _______ _______ _______ _____ _____    ______ ____
ROOT
ATOM      1  C   UNL     1      -8.923   5.126 130.478  0.00  0.00    +0.000 C 
ATOM      2  O   UNL     1      -9.165   4.018 131.386  0.00  0.00    +0.000 OA
ATOM      3  C   UNL     1      -8.267   4.171 132.508  0.00  0.00    +0.000 C 
ATOM      4  C   UNL     1      -7.925   5.655 132.620  0.00  0.00    +0.000 C 
ATOM      5  C   UNL     1      -7.948   6.089 131.167  0.00  0.00    +0.000 C 
ATOM      6  F   UNL     1      -6.704   5.922 130.626  0.00  0.00    +0.000 F 
ATOM      7  F   UNL     1      -8.269   7.387 131.003  0.00  0.00    +0.000 F 
ENDROOT
BRANCH   1  13
ATOM      8  N   UNL     1     -13.597   7.456 128.692  0.00  0.00    +0.000 N 
ATOM      9  C   UNL     1     -12.427   6.924 129.145  0.00  0.00    +0.000 A 
ATOM     10  N   UNL     1     -11.501   6.659 128.278  0.00  0.00    +0.000 NA
ATOM     11  C   UNL     1     -10.303   6.147 128.707  0.00  0.00    +0.000 A 
ATOM     12  O   UNL     1      -9.341   6.083 127.936  0.00  0.00    +0.000 OA
ATOM     13  N   UNL     1     -10.194   5.697 130.023  0.00  0.00    +0.000 N 
ATOM     14  C   UNL     1     -11.219   5.907 130.923  0.00  0.00    +0.000 A 
ATOM     15  C   UNL     1     -12.276   6.644 130.585  0.00  0.00    +0.000 A 
ATOM     16  H   UNL     1     -13.750   7.464 127.689  0.00  0.00    +0.000 HD
ATOM     17  H   UNL     1     -14.403   7.577 129.288  0.00  0.00    +0.000 HD
ENDBRANCH   1  13
BRANCH   4  18
ATOM     18  O   UNL     1      -6.673   5.884 133.281  0.00  0.00    +0.000 OA
ATOM     19  H   UNL     1      -6.716   5.505 134.175  0.00  0.00    +0.000 HD
ENDBRANCH   4  18
BRANCH   3  20
ATOM     20  C   UNL     1      -8.901   3.628 133.795  0.00  0.00    +0.000 C 
BRANCH  20  21
ATOM     21  O   UNL     1      -8.913   4.586 134.846  0.00  0.00    +0.000 OA
ATOM     22  H   UNL     1      -8.283   4.309 135.532  0.00  0.00    +0.000 HD
ENDBRANCH  20  21
ENDBRANCH   3  20
TORSDOF 4
ENDMDL
MODEL 5
REMARK VINA RESULT:      -5.6      1.714      2.127
REMARK  Name = Gemcitabine
REMARK  4 active torsions:
REMARK  status: ('A' for Active; 'I' for Inactive)
REMARK    1  A    between atoms: N_6  and  C_9
REMARK    2  A    between atoms: C_11  and  C_12
REMARK    3  A    between atoms: C_12  and  O_13
REMARK    4  A    between atoms: C_14  and  O_15
REMARK                            x       y       z     vdW  Elec       q    Type
REMARK                         _______ _______ _______ _____ _____    ______ ____
ROOT
ATOM      1  C   UNL     1      -8.345  -0.146 125.500  0.00  0.00    +0.000 C 
ATOM      2  O   UNL     1      -9.593  -0.200 124.758  0.00  0.00    +0.000 OA
ATOM      3  C   UNL     1     -10.026   1.162 124.537  0.00  0.00    +0.000 C 
ATOM      4  C   UNL     1      -8.783   2.048 124.573  0.00  0.00    +0.000 C 
ATOM      5  C   UNL     1      -7.914   1.324 125.585  0.00  0.00    +0.000 C 
ATOM      6  F   UNL     1      -8.192   1.794 126.837  0.00  0.00    +0.000 F 
ATOM      7  F   UNL     1      -6.596   1.510 125.385  0.00  0.00    +0.000 F 
ENDROOT
BRANCH   1  13
ATOM      8  N   UNL     1      -4.520  -3.553 123.443  0.00  0.00    +0.000 N 
ATOM      9  C   UNL     1      -5.433  -2.676 123.948  0.00  0.00    +0.000 A 
ATOM     10  N   UNL     1      -5.598  -2.641 125.233  0.00  0.00    +0.000 NA
ATOM     11  C   UNL     1      -6.491  -1.750 125.773  0.00  0.00    +0.000 A 
ATOM     12  O   UNL     1      -6.514  -1.551 126.991  0.00  0.00    +0.000 OA
ATOM     13  N   UNL     1      -7.372  -1.080 124.924  0.00  0.00    +0.000 N 
ATOM     14  C   UNL     1      -7.245  -1.188 123.554  0.00  0.00    +0.000 A 
ATOM     15  C   UNL     1      -6.212  -1.836 123.020  0.00  0.00    +0.000 A 
ATOM     16  H   UNL     1      -4.137  -4.247 124.076  0.00  0.00    +0.000 HD
ATOM     17  H   UNL     1      -4.423  -3.722 122.452  0.00  0.00    +0.000 HD
ENDBRANCH   1  13
BRANCH   4  18
ATOM     18  O   UNL     1      -9.083   3.405 124.923  0.00  0.00    +0.000 OA
ATOM     19  H   UNL     1      -9.811   3.720 124.362  0.00  0.00    +0.000 HD
ENDBRANCH   4  18
BRANCH   3  20
ATOM     20  C   UNL     1     -10.784   1.288 123.210  0.00  0.00    +0.000 C 
BRANCH  20  21
ATOM     21  O   UNL     1     -10.650   0.131 122.392  0.00  0.00    +0.000 OA
ATOM     22  H   UNL     1      -9.916  -0.409 122.730  0.00  0.00    +0.000 HD
ENDBRANCH  20  21
ENDBRANCH   3  20
TORSDOF 4
ENDMDL
MODEL 6
REMARK VINA RESULT:      -5.6      2.252      3.008
REMARK  Name = Gemcitabine
REMARK  4 active torsions:
REMARK  status: ('A' for Active; 'I' for Inactive)
REMARK    1  A    between atoms: N_6  and  C_9
REMARK    2  A    between atoms: C_11  and  C_12
REMARK    3  A    between atoms: C_12  and  O_13
REMARK    4  A    between atoms: C_14  and  O_15
REMARK                            x       y       z     vdW  Elec       q    Type
REMARK                         _______ _______ _______ _____ _____    ______ ____
ROOT
ATOM      1  C   UNL     1      -8.261   2.300 123.288  0.00  0.00    +0.000 C 
ATOM      2  O   UNL     1      -7.663   2.686 122.020  0.00  0.00    +0.000 OA
ATOM      3  C   UNL     1      -6.818   3.833 122.270  0.00  0.00    +0.000 C 
ATOM      4  C   UNL     1      -6.395   3.778 123.737  0.00  0.00    +0.000 C 
ATOM      5  C   UNL     1      -7.613   3.150 124.388  0.00  0.00    +0.000 C 
ATOM      6  F   UNL     1      -8.486   4.136 124.756  0.00  0.00    +0.000 F 
ATOM      7  F   UNL     1      -7.322   2.455 125.503  0.00  0.00    +0.000 F 
ENDROOT
BRANCH   1  13
ATOM      8  N   UNL     1      -8.068  -3.149 124.145  0.00  0.00    +0.000 N 
ATOM      9  C   UNL     1      -8.101  -1.797 123.979  0.00  0.00    +0.000 A 
ATOM     10  N   UNL     1      -9.245  -1.197 124.086  0.00  0.00    +0.000 NA
ATOM     11  C   UNL     1      -9.306   0.166 123.949  0.00  0.00    +0.000 A 
ATOM     12  O   UNL     1     -10.335   0.778 124.252  0.00  0.00    +0.000 OA
ATOM     13  N   UNL     1      -8.191   0.846 123.459  0.00  0.00    +0.000 N 
ATOM     14  C   UNL     1      -6.995   0.184 123.265  0.00  0.00    +0.000 A 
ATOM     15  C   UNL     1      -6.853  -1.083 123.652  0.00  0.00    +0.000 A 
ATOM     16  H   UNL     1      -8.956  -3.639 124.180  0.00  0.00    +0.000 HD
ATOM     17  H   UNL     1      -7.240  -3.697 123.959  0.00  0.00    +0.000 HD
ENDBRANCH   1  13
BRANCH   4  18
ATOM     18  O   UNL     1      -6.049   5.067 124.259  0.00  0.00    +0.000 OA
ATOM     19  H   UNL     1      -6.080   5.031 125.229  0.00  0.00    +0.000 HD
ENDBRANCH   4  18
BRANCH   3  20
ATOM     20  C   UNL     1      -5.612   3.841 121.323  0.00  0.00    +0.000 C 
BRANCH  20  21
ATOM     21  O   UNL     1      -4.844   5.034 121.425  0.00  0.00    +0.000 OA
ATOM     22  H   UNL     1      -5.102   5.505 122.235  0.00  0.00    +0.000 HD
ENDBRANCH  20  21
ENDBRANCH   3  20
TORSDOF 4
ENDMDL
MODEL 7
REMARK VINA RESULT:      -5.5      2.326      3.113
REMARK  Name = Gemcitabine
REMARK  4 active torsions:
REMARK  status: ('A' for Active; 'I' for Inactive)
REMARK    1  A    between atoms: N_6  and  C_9
REMARK    2  A    between atoms: C_11  and  C_12
REMARK    3  A    between atoms: C_12  and  O_13
REMARK    4  A    between atoms: C_14  and  O_15
REMARK                            x       y       z     vdW  Elec       q    Type
REMARK                         _______ _______ _______ _____ _____    ______ ____
ROOT
ATOM      1  C   UNL     1      -7.905   1.036 123.942  0.00  0.00    +0.000 C 
ATOM      2  O   UNL     1      -6.541   1.479 124.176  0.00  0.00    +0.000 OA
ATOM      3  C   UNL     1      -6.580   2.907 124.397  0.00  0.00    +0.000 C 
ATOM      4  C   UNL     1      -7.973   3.250 124.921  0.00  0.00    +0.000 C 
ATOM      5  C   UNL     1      -8.834   2.228 124.204  0.00  0.00    +0.000 C 
ATOM      6  F   UNL     1      -9.242   2.742 123.005  0.00  0.00    +0.000 F 
ATOM      7  F   UNL     1      -9.950   1.900 124.883  0.00  0.00    +0.000 F 
ENDROOT
BRANCH   1  13
ATOM      8  N   UNL     1      -9.157  -3.522 126.793  0.00  0.00    +0.000 N 
ATOM      9  C   UNL     1      -8.885  -2.375 126.109  0.00  0.00    +0.000 A 
ATOM     10  N   UNL     1      -9.299  -2.282 124.885  0.00  0.00    +0.000 NA
ATOM     11  C   UNL     1      -9.063  -1.129 124.180  0.00  0.00    +0.000 A 
ATOM     12  O   UNL     1      -9.624  -0.935 123.097  0.00  0.00    +0.000 OA
ATOM     13  N   UNL     1      -8.179  -0.186 124.705  0.00  0.00    +0.000 N 
ATOM     14  C   UNL     1      -7.673  -0.333 125.980  0.00  0.00    +0.000 A 
ATOM     15  C   UNL     1      -8.109  -1.311 126.772  0.00  0.00    +0.000 A 
ATOM     16  H   UNL     1      -9.521  -4.307 126.263  0.00  0.00    +0.000 HD
ATOM     17  H   UNL     1      -8.766  -3.715 127.703  0.00  0.00    +0.000 HD
ENDBRANCH   1  13
BRANCH   4  18
ATOM     18  O   UNL     1      -8.339   4.611 124.661  0.00  0.00    +0.000 OA
ATOM     19  H   UNL     1      -8.776   4.659 123.795  0.00  0.00    +0.000 HD
ENDBRANCH   4  18
BRANCH   3  20
ATOM     20  C   UNL     1      -5.476   3.340 125.371  0.00  0.00    +0.000 C 
BRANCH  20  21
ATOM     21  O   UNL     1      -5.992   3.957 126.544  0.00  0.00    +0.000 OA
ATOM     22  H   UNL     1      -6.825   4.407 126.322  0.00  0.00    +0.000 HD
ENDBRANCH  20  21
ENDBRANCH   3  20
TORSDOF 4
ENDMDL
MODEL 8
REMARK VINA RESULT:      -5.5      8.274      9.148
REMARK  Name = Gemcitabine
REMARK  4 active torsions:
REMARK  status: ('A' for Active; 'I' for Inactive)
REMARK    1  A    between atoms: N_6  and  C_9
REMARK    2  A    between atoms: C_11  and  C_12
REMARK    3  A    between atoms: C_12  and  O_13
REMARK    4  A    between atoms: C_14  and  O_15
REMARK                            x       y       z     vdW  Elec       q    Type
REMARK                         _______ _______ _______ _____ _____    ______ ____
ROOT
ATOM      1  C   UNL     1      -9.490   5.265 129.676  0.00  0.00    +0.000 C 
ATOM      2  O   UNL     1      -9.470   6.286 128.642  0.00  0.00    +0.000 OA
ATOM      3  C   UNL     1     -10.753   6.953 128.666  0.00  0.00    +0.000 C 
ATOM      4  C   UNL     1     -11.323   6.798 130.074  0.00  0.00    +0.000 C 
ATOM      5  C   UNL     1     -10.787   5.437 130.478  0.00  0.00    +0.000 C 
ATOM      6  F   UNL     1     -11.675   4.471 130.095  0.00  0.00    +0.000 F 
ATOM      7  F   UNL     1     -10.619   5.304 131.807  0.00  0.00    +0.000 F 
ENDROOT
BRANCH   1  13
ATOM      8  N   UNL     1      -4.881   5.243 132.713  0.00  0.00    +0.000 N 
ATOM      9  C   UNL     1      -6.045   5.249 132.003  0.00  0.00    +0.000 A 
ATOM     10  N   UNL     1      -6.481   4.120 131.540  0.00  0.00    +0.000 NA
ATOM     11  C   UNL     1      -7.663   4.090 130.844  0.00  0.00    +0.000 A 
ATOM     12  O   UNL     1      -8.202   3.012 130.577  0.00  0.00    +0.000 OA
ATOM     13  N   UNL     1      -8.241   5.295 130.442  0.00  0.00    +0.000 N 
ATOM     14  C   UNL     1      -7.720   6.499 130.870  0.00  0.00    +0.000 A 
ATOM     15  C   UNL     1      -6.734   6.530 131.765  0.00  0.00    +0.000 A 
ATOM     16  H   UNL     1      -4.330   4.391 132.703  0.00  0.00    +0.000 HD
ATOM     17  H   UNL     1      -4.419   6.094 133.001  0.00  0.00    +0.000 HD
ENDBRANCH   1  13
BRANCH   4  18
ATOM     18  O   UNL     1     -12.752   6.899 130.104  0.00  0.00    +0.000 OA
ATOM     19  H   UNL     1     -13.041   6.996 131.027  0.00  0.00    +0.000 HD
ENDBRANCH   4  18
BRANCH   3  20
ATOM     20  C   UNL     1     -10.611   8.426 128.261  0.00  0.00    +0.000 C 
BRANCH  20  21
ATOM     21  O   UNL     1     -11.832   9.147 128.383  0.00  0.00    +0.000 OA
ATOM     22  H   UNL     1     -12.566   8.513 128.449  0.00  0.00    +0.000 HD
ENDBRANCH  20  21
ENDBRANCH   3  20
TORSDOF 4
ENDMDL
MODEL 9
REMARK VINA RESULT:      -5.4      9.129     10.608
REMARK  Name = Gemcitabine
REMARK  4 active torsions:
REMARK  status: ('A' for Active; 'I' for Inactive)
REMARK    1  A    between atoms: N_6  and  C_9
REMARK    2  A    between atoms: C_11  and  C_12
REMARK    3  A    between atoms: C_12  and  O_13
REMARK    4  A    between atoms: C_14  and  O_15
REMARK                            x       y       z     vdW  Elec       q    Type
REMARK                         _______ _______ _______ _____ _____    ______ ____
ROOT
ATOM      1  C   UNL     1      -9.132   5.553 131.134  0.00  0.00    +0.000 C 
ATOM      2  O   UNL     1      -8.945   4.131 130.897  0.00  0.00    +0.000 OA
ATOM      3  C   UNL     1      -8.859   3.484 132.187  0.00  0.00    +0.000 C 
ATOM      4  C   UNL     1      -9.603   4.363 133.190  0.00  0.00    +0.000 C 
ATOM      5  C   UNL     1      -9.339   5.752 132.640  0.00  0.00    +0.000 C 
ATOM      6  F   UNL     1      -8.184   6.241 133.184  0.00  0.00    +0.000 F 
ATOM      7  F   UNL     1     -10.311   6.636 132.937  0.00  0.00    +0.000 F 
ENDROOT
BRANCH   1  13
ATOM      8  N   UNL     1     -13.069   7.733 127.937  0.00  0.00    +0.000 N 
ATOM      9  C   UNL     1     -12.115   7.218 128.763  0.00  0.00    +0.000 A 
ATOM     10  N   UNL     1     -10.944   7.773 128.761  0.00  0.00    +0.000 NA
ATOM     11  C   UNL     1      -9.970   7.294 129.601  0.00  0.00    +0.000 A 
ATOM     12  O   UNL     1      -8.925   7.929 129.770  0.00  0.00    +0.000 OA
ATOM     13  N   UNL     1     -10.181   6.080 130.255  0.00  0.00    +0.000 N 
ATOM     14  C   UNL     1     -11.406   5.449 130.184  0.00  0.00    +0.000 A 
ATOM     15  C   UNL     1     -12.440   6.043 129.592  0.00  0.00    +0.000 A 
ATOM     16  H   UNL     1     -12.772   8.412 127.244  0.00  0.00    +0.000 HD
ATOM     17  H   UNL     1     -13.962   7.282 127.796  0.00  0.00    +0.000 HD
ENDBRANCH   1  13
BRANCH   4  18
ATOM     18  O   UNL     1      -9.149   4.168 134.535  0.00  0.00    +0.000 OA
ATOM     19  H   UNL     1      -9.080   3.214 134.709  0.00  0.00    +0.000 HD
ENDBRANCH   4  18
BRANCH   3  20
ATOM     20  C   UNL     1      -9.437   2.064 132.126  0.00  0.00    +0.000 C 
BRANCH  20  21
ATOM     21  O   UNL     1      -8.675   1.198 131.292  0.00  0.00    +0.000 OA
ATOM     22  H   UNL     1      -8.996   1.280 130.379  0.00  0.00    +0.000 HD
ENDBRANCH  20  21
ENDBRANCH   3  20
TORSDOF 4
ENDMDL
