MODEL 1
REMARK VINA RESULT:      -6.4      0.000      0.000
REMARK  Name = Gemfibrozil
REMARK  11 active torsions:
REMARK  status: ('A' for Active; 'I' for Inactive)
REMARK    1  A    between atoms: C_1  and  C_2
REMARK    2  A    between atoms: C_4  and  O_5
REMARK    3  A    between atoms: O_5  and  C_6
REMARK    4  A    between atoms: C_6  and  C_7
REMARK    5  A    between atoms: C_7  and  C_8
REMARK    6  A    between atoms: C_8  and  C_9
REMARK    7  A    between atoms: C_9  and  C_10
REMARK    8  A    between atoms: C_9  and  C_11
REMARK    9  A    between atoms: C_9  and  C_12
REMARK   10  A    between atoms: C_12  and  O_13
REMARK   11  A    between atoms: C_15  and  C_16
REMARK                            x       y       z     vdW  Elec       q    Type
REMARK                         _______ _______ _______ _____ _____    ______ ____
ROOT
ATOM      1  C   UNL     1     -11.820   6.622 131.880  0.00  0.00    +0.000 C 
ENDROOT
BRANCH   1   2
ATOM      2  O   UNL     1     -10.480   6.435 131.487  0.00  0.00    +0.000 OA
BRANCH   2   6
ATOM      3  C   UNL     1      -7.686   5.207 135.232  0.00  0.00    +0.000 C 
ATOM      4  C   UNL     1      -8.437   4.802 134.000  0.00  0.00    +0.000 A 
ATOM      5  C   UNL     1      -9.147   5.735 133.233  0.00  0.00    +0.000 A 
ATOM      6  C   UNL     1      -9.857   5.358 132.072  0.00  0.00    +0.000 A 
ATOM      7  C   UNL     1      -9.854   4.009 131.661  0.00  0.00    +0.000 A 
ATOM      8  C   UNL     1     -10.525   3.369 130.470  0.00  0.00    +0.000 C 
ATOM      9  C   UNL     1      -9.132   3.088 132.448  0.00  0.00    +0.000 A 
ATOM     10  C   UNL     1      -8.437   3.471 133.595  0.00  0.00    +0.000 A 
ENDBRANCH   2   6
ENDBRANCH   1   2
BRANCH   1  11
ATOM     11  C   UNL     1     -12.637   7.321 130.842  0.00  0.00    +0.000 C 
BRANCH  11  12
ATOM     12  C   UNL     1     -12.541   6.558 129.509  0.00  0.00    +0.000 C 
BRANCH  12  13
ATOM     13  C   UNL     1     -12.017   7.442 128.366  0.00  0.00    +0.000 C 
ATOM     14  C   UNL     1     -12.737   7.051 127.061  0.00  0.00    +0.000 C 
ATOM     15  C   UNL     1     -12.319   8.916 128.696  0.00  0.00    +0.000 C 
BRANCH  13  16
ATOM     16  C   UNL     1     -10.507   7.328 128.110  0.00  0.00    +0.000 C 
ATOM     17  O   UNL     1     -10.050   6.720 127.143  0.00  0.00    +0.000 OA
BRANCH  16  18
ATOM     18  O   UNL     1      -9.674   7.921 128.985  0.00  0.00    +0.000 OA
ATOM     19  H   UNL     1      -8.741   7.647 129.000  0.00  0.00    +0.000 HD
ENDBRANCH  16  18
ENDBRANCH  13  16
ENDBRANCH  12  13
ENDBRANCH  11  12
ENDBRANCH   1  11
TORSDOF 7
ENDMDL
MODEL 2
REMARK VINA RESULT:      -6.2      1.488      2.221
REMARK  Name = Gemfibrozil
REMARK  11 active torsions:
REMARK  status: ('A' for Active; 'I' for Inactive)
REMARK    1  A    between atoms: C_1  and  C_2
REMARK    2  A    between atoms: C_4  and  O_5
REMARK    3  A    between atoms: O_5  and  C_6
REMARK    4  A    between atoms: C_6  and  C_7
REMARK    5  A    between atoms: C_7  and  C_8
REMARK    6  A    between atoms: C_8  and  C_9
REMARK    7  A    between atoms: C_9  and  C_10
REMARK    8  A    between atoms: C_9  and  C_11
REMARK    9  A    between atoms: C_9  and  C_12
REMARK   10  A    between atoms: C_12  and  O_13
REMARK   11  A    between atoms: C_15  and  C_16
REMARK                            x       y       z     vdW  Elec       q    Type
REMARK                         _______ _______ _______ _____ _____    ______ ____
ROOT
ATOM      1  C   UNL     1     -11.392   6.447 131.899  0.00  0.00    +0.000 C 
ENDROOT
BRANCH   1   2
ATOM      2  O   UNL     1     -10.080   6.799 131.526  0.00  0.00    +0.000 OA
BRANCH   2   6
ATOM      3  C   UNL     1      -9.774   2.017 132.144  0.00  0.00    +0.000 C 
ATOM      4  C   UNL     1      -9.094   3.327 131.882  0.00  0.00    +0.000 A 
ATOM      5  C   UNL     1      -9.813   4.527 131.809  0.00  0.00    +0.000 A 
ATOM      6  C   UNL     1      -9.177   5.763 131.561  0.00  0.00    +0.000 A 
ATOM      7  C   UNL     1      -7.778   5.803 131.387  0.00  0.00    +0.000 A 
ATOM      8  C   UNL     1      -6.880   6.987 131.119  0.00  0.00    +0.000 C 
ATOM      9  C   UNL     1      -7.075   4.583 131.466  0.00  0.00    +0.000 A 
ATOM     10  C   UNL     1      -7.714   3.368 131.707  0.00  0.00    +0.000 A 
ENDBRANCH   2   6
ENDBRANCH   1   2
BRANCH   1  11
ATOM     11  C   UNL     1     -12.434   7.187 131.122  0.00  0.00    +0.000 C 
BRANCH  11  12
ATOM     12  C   UNL     1     -12.422   6.709 129.659  0.00  0.00    +0.000 C 
BRANCH  12  13
ATOM     13  C   UNL     1     -12.361   7.879 128.663  0.00  0.00    +0.000 C 
ATOM     14  C   UNL     1     -13.345   7.605 127.510  0.00  0.00    +0.000 C 
ATOM     15  C   UNL     1     -12.768   9.174 129.389  0.00  0.00    +0.000 C 
BRANCH  13  16
ATOM     16  C   UNL     1     -10.978   8.116 128.039  0.00  0.00    +0.000 C 
ATOM     17  O   UNL     1     -10.825   8.302 126.833  0.00  0.00    +0.000 OA
BRANCH  16  18
ATOM     18  O   UNL     1      -9.909   8.116 128.859  0.00  0.00    +0.000 OA
ATOM     19  H   UNL     1      -9.376   7.306 128.929  0.00  0.00    +0.000 HD
ENDBRANCH  16  18
ENDBRANCH  13  16
ENDBRANCH  12  13
ENDBRANCH  11  12
ENDBRANCH   1  11
TORSDOF 7
ENDMDL
MODEL 3
REMARK VINA RESULT:      -6.1      9.661     10.353
REMARK  Name = Gemfibrozil
REMARK  11 active torsions:
REMARK  status: ('A' for Active; 'I' for Inactive)
REMARK    1  A    between atoms: C_1  and  C_2
REMARK    2  A    between atoms: C_4  and  O_5
REMARK    3  A    between atoms: O_5  and  C_6
REMARK    4  A    between atoms: C_6  and  C_7
REMARK    5  A    between atoms: C_7  and  C_8
REMARK    6  A    between atoms: C_8  and  C_9
REMARK    7  A    between atoms: C_9  and  C_10
REMARK    8  A    between atoms: C_9  and  C_11
REMARK    9  A    between atoms: C_9  and  C_12
REMARK   10  A    between atoms: C_12  and  O_13
REMARK   11  A    between atoms: C_15  and  C_16
REMARK                            x       y       z     vdW  Elec       q    Type
REMARK                         _______ _______ _______ _____ _____    ______ ____
ROOT
ATOM      1  C   UNL     1      -8.839  -3.653 127.890  0.00  0.00    +0.000 C 
ENDROOT
BRANCH   1   2
ATOM      2  O   UNL     1      -8.147  -2.601 128.523  0.00  0.00    +0.000 OA
BRANCH   2   6
ATOM      3  C   UNL     1      -5.396  -5.157 131.563  0.00  0.00    +0.000 C 
ATOM      4  C   UNL     1      -5.497  -4.208 130.407  0.00  0.00    +0.000 A 
ATOM      5  C   UNL     1      -6.736  -3.774 129.919  0.00  0.00    +0.000 A 
ATOM      6  C   UNL     1      -6.836  -2.881 128.830  0.00  0.00    +0.000 A 
ATOM      7  C   UNL     1      -5.663  -2.401 128.213  0.00  0.00    +0.000 A 
ATOM      8  C   UNL     1      -5.512  -1.449 127.050  0.00  0.00    +0.000 C 
ATOM      9  C   UNL     1      -4.427  -2.851 128.722  0.00  0.00    +0.000 A 
ATOM     10  C   UNL     1      -4.340  -3.736 129.795  0.00  0.00    +0.000 A 
ENDBRANCH   2   6
ENDBRANCH   1   2
BRANCH   1  11
ATOM     11  C   UNL     1      -8.536  -3.751 126.430  0.00  0.00    +0.000 C 
BRANCH  11  12
ATOM     12  C   UNL     1      -9.176  -2.564 125.689  0.00  0.00    +0.000 C 
BRANCH  12  13
ATOM     13  C   UNL     1      -8.754  -2.501 124.212  0.00  0.00    +0.000 C 
ATOM     14  C   UNL     1      -7.295  -2.976 124.089  0.00  0.00    +0.000 C 
ATOM     15  C   UNL     1      -9.668  -3.430 123.391  0.00  0.00    +0.000 C 
BRANCH  13  16
ATOM     16  C   UNL     1      -8.837  -1.102 123.583  0.00  0.00    +0.000 C 
ATOM     17  O   UNL     1      -7.962  -0.254 123.750  0.00  0.00    +0.000 OA
BRANCH  16  18
ATOM     18  O   UNL     1      -9.913  -0.815 122.825  0.00  0.00    +0.000 OA
ATOM     19  H   UNL     1      -9.784  -0.652 121.875  0.00  0.00    +0.000 HD
ENDBRANCH  16  18
ENDBRANCH  13  16
ENDBRANCH  12  13
ENDBRANCH  11  12
ENDBRANCH   1  11
TORSDOF 7
ENDMDL
MODEL 4
REMARK VINA RESULT:      -6.1      7.810      9.750
REMARK  Name = Gemfibrozil
REMARK  11 active torsions:
REMARK  status: ('A' for Active; 'I' for Inactive)
REMARK    1  A    between atoms: C_1  and  C_2
REMARK    2  A    between atoms: C_4  and  O_5
REMARK    3  A    between atoms: O_5  and  C_6
REMARK    4  A    between atoms: C_6  and  C_7
REMARK    5  A    between atoms: C_7  and  C_8
REMARK    6  A    between atoms: C_8  and  C_9
REMARK    7  A    between atoms: C_9  and  C_10
REMARK    8  A    between atoms: C_9  and  C_11
REMARK    9  A    between atoms: C_9  and  C_12
REMARK   10  A    between atoms: C_12  and  O_13
REMARK   11  A    between atoms: C_15  and  C_16
REMARK                            x       y       z     vdW  Elec       q    Type
REMARK                         _______ _______ _______ _____ _____    ______ ____
ROOT
ATOM      1  C   UNL     1      -5.483  -0.188 126.410  0.00  0.00    +0.000 C 
ENDROOT
BRANCH   1   2
ATOM      2  O   UNL     1      -5.254  -1.220 125.478  0.00  0.00    +0.000 OA
BRANCH   2   6
ATOM      3  C   UNL     1      -8.928  -3.643 127.470  0.00  0.00    +0.000 C 
ATOM      4  C   UNL     1      -8.212  -3.176 126.239  0.00  0.00    +0.000 A 
ATOM      5  C   UNL     1      -7.044  -2.406 126.316  0.00  0.00    +0.000 A 
ATOM      6  C   UNL     1      -6.367  -1.962 125.160  0.00  0.00    +0.000 A 
ATOM      7  C   UNL     1      -6.867  -2.302 123.886  0.00  0.00    +0.000 A 
ATOM      8  C   UNL     1      -6.327  -1.955 122.520  0.00  0.00    +0.000 C 
ATOM      9  C   UNL     1      -8.043  -3.079 123.833  0.00  0.00    +0.000 A 
ATOM     10  C   UNL     1      -8.706  -3.508 124.982  0.00  0.00    +0.000 A 
ENDBRANCH   2   6
ENDBRANCH   1   2
BRANCH   1  11
ATOM     11  C   UNL     1      -5.787   1.124 125.761  0.00  0.00    +0.000 C 
BRANCH  11  12
ATOM     12  C   UNL     1      -7.290   1.428 125.891  0.00  0.00    +0.000 C 
BRANCH  12  13
ATOM     13  C   UNL     1      -7.954   1.680 124.527  0.00  0.00    +0.000 C 
ATOM     14  C   UNL     1      -6.925   1.415 123.413  0.00  0.00    +0.000 C 
ATOM     15  C   UNL     1      -9.144   0.715 124.366  0.00  0.00    +0.000 C 
BRANCH  13  16
ATOM     16  C   UNL     1      -8.489   3.106 124.330  0.00  0.00    +0.000 C 
ATOM     17  O   UNL     1      -8.929   3.776 125.263  0.00  0.00    +0.000 OA
BRANCH  16  18
ATOM     18  O   UNL     1      -8.465   3.621 123.086  0.00  0.00    +0.000 OA
ATOM     19  H   UNL     1      -8.842   4.505 122.941  0.00  0.00    +0.000 HD
ENDBRANCH  16  18
ENDBRANCH  13  16
ENDBRANCH  12  13
ENDBRANCH  11  12
ENDBRANCH   1  11
TORSDOF 7
ENDMDL
MODEL 5
REMARK VINA RESULT:      -6.0      1.899      2.531
REMARK  Name = Gemfibrozil
REMARK  11 active torsions:
REMARK  status: ('A' for Active; 'I' for Inactive)
REMARK    1  A    between atoms: C_1  and  C_2
REMARK    2  A    between atoms: C_4  and  O_5
REMARK    3  A    between atoms: O_5  and  C_6
REMARK    4  A    between atoms: C_6  and  C_7
REMARK    5  A    between atoms: C_7  and  C_8
REMARK    6  A    between atoms: C_8  and  C_9
REMARK    7  A    between atoms: C_9  and  C_10
REMARK    8  A    between atoms: C_9  and  C_11
REMARK    9  A    between atoms: C_9  and  C_12
REMARK   10  A    between atoms: C_12  and  O_13
REMARK   11  A    between atoms: C_15  and  C_16
REMARK                            x       y       z     vdW  Elec       q    Type
REMARK                         _______ _______ _______ _____ _____    ______ ____
ROOT
ATOM      1  C   UNL     1     -10.687   5.423 130.929  0.00  0.00    +0.000 C 
ENDROOT
BRANCH   1   2
ATOM      2  O   UNL     1     -10.094   6.233 131.917  0.00  0.00    +0.000 OA
BRANCH   2   6
ATOM      3  C   UNL     1      -5.544   7.326 130.713  0.00  0.00    +0.000 C 
ATOM      4  C   UNL     1      -6.498   6.526 131.548  0.00  0.00    +0.000 A 
ATOM      5  C   UNL     1      -7.885   6.671 131.422  0.00  0.00    +0.000 A 
ATOM      6  C   UNL     1      -8.787   5.920 132.207  0.00  0.00    +0.000 A 
ATOM      7  C   UNL     1      -8.288   4.990 133.143  0.00  0.00    +0.000 A 
ATOM      8  C   UNL     1      -9.041   4.079 134.083  0.00  0.00    +0.000 C 
ATOM      9  C   UNL     1      -6.888   4.860 133.251  0.00  0.00    +0.000 A 
ATOM     10  C   UNL     1      -6.007   5.610 132.473  0.00  0.00    +0.000 A 
ENDBRANCH   2   6
ENDBRANCH   1   2
BRANCH   1  11
ATOM     11  C   UNL     1     -12.016   5.936 130.478  0.00  0.00    +0.000 C 
BRANCH  11  12
ATOM     12  C   UNL     1     -11.998   7.475 130.466  0.00  0.00    +0.000 C 
BRANCH  12  13
ATOM     13  C   UNL     1     -12.167   8.050 129.050  0.00  0.00    +0.000 C 
ATOM     14  C   UNL     1     -13.045   7.092 128.224  0.00  0.00    +0.000 C 
ATOM     15  C   UNL     1     -12.856   9.424 129.148  0.00  0.00    +0.000 C 
BRANCH  13  16
ATOM     16  C   UNL     1     -10.853   8.248 128.281  0.00  0.00    +0.000 C 
ATOM     17  O   UNL     1      -9.761   8.293 128.846  0.00  0.00    +0.000 OA
BRANCH  16  18
ATOM     18  O   UNL     1     -10.920   8.376 126.942  0.00  0.00    +0.000 OA
ATOM     19  H   UNL     1     -11.794   8.477 126.527  0.00  0.00    +0.000 HD
ENDBRANCH  16  18
ENDBRANCH  13  16
ENDBRANCH  12  13
ENDBRANCH  11  12
ENDBRANCH   1  11
TORSDOF 7
ENDMDL
MODEL 6
REMARK VINA RESULT:      -6.0      2.600      3.366
REMARK  Name = Gemfibrozil
REMARK  11 active torsions:
REMARK  status: ('A' for Active; 'I' for Inactive)
REMARK    1  A    between atoms: C_1  and  C_2
REMARK    2  A    between atoms: C_4  and  O_5
REMARK    3  A    between atoms: O_5  and  C_6
REMARK    4  A    between atoms: C_6  and  C_7
REMARK    5  A    between atoms: C_7  and  C_8
REMARK    6  A    between atoms: C_8  and  C_9
REMARK    7  A    between atoms: C_9  and  C_10
REMARK    8  A    between atoms: C_9  and  C_11
REMARK    9  A    between atoms: C_9  and  C_12
REMARK   10  A    between atoms: C_12  and  O_13
REMARK   11  A    between atoms: C_15  and  C_16
REMARK                            x       y       z     vdW  Elec       q    Type
REMARK                         _______ _______ _______ _____ _____    ______ ____
ROOT
ATOM      1  C   UNL     1      -9.168   6.878 130.695  0.00  0.00    +0.000 C 
ENDROOT
BRANCH   1   2
ATOM      2  O   UNL     1      -7.844   7.304 130.470  0.00  0.00    +0.000 OA
BRANCH   2   6
ATOM      3  C   UNL     1      -7.470   4.756 134.559  0.00  0.00    +0.000 C 
ATOM      4  C   UNL     1      -6.804   5.492 133.435  0.00  0.00    +0.000 A 
ATOM      5  C   UNL     1      -7.545   6.102 132.415  0.00  0.00    +0.000 A 
ATOM      6  C   UNL     1      -6.922   6.795 131.355  0.00  0.00    +0.000 A 
ATOM      7  C   UNL     1      -5.515   6.888 131.315  0.00  0.00    +0.000 A 
ATOM      8  C   UNL     1      -4.629   7.570 130.300  0.00  0.00    +0.000 C 
ATOM      9  C   UNL     1      -4.790   6.268 132.353  0.00  0.00    +0.000 A 
ATOM     10  C   UNL     1      -5.416   5.582 133.393  0.00  0.00    +0.000 A 
ENDBRANCH   2   6
ENDBRANCH   1   2
BRANCH   1  11
ATOM     11  C   UNL     1      -9.918   6.622 129.427  0.00  0.00    +0.000 C 
BRANCH  11  12
ATOM     12  C   UNL     1     -10.541   7.936 128.922  0.00  0.00    +0.000 C 
BRANCH  12  13
ATOM     13  C   UNL     1     -11.876   7.708 128.194  0.00  0.00    +0.000 C 
ATOM     14  C   UNL     1     -12.595   6.505 128.834  0.00  0.00    +0.000 C 
ATOM     15  C   UNL     1     -12.749   8.967 128.345  0.00  0.00    +0.000 C 
BRANCH  13  16
ATOM     16  C   UNL     1     -11.743   7.417 126.692  0.00  0.00    +0.000 C 
ATOM     17  O   UNL     1     -10.909   7.981 125.986  0.00  0.00    +0.000 OA
BRANCH  16  18
ATOM     18  O   UNL     1     -12.578   6.510 126.150  0.00  0.00    +0.000 OA
ATOM     19  H   UNL     1     -12.408   6.204 125.243  0.00  0.00    +0.000 HD
ENDBRANCH  16  18
ENDBRANCH  13  16
ENDBRANCH  12  13
ENDBRANCH  11  12
ENDBRANCH   1  11
TORSDOF 7
ENDMDL
MODEL 7
REMARK VINA RESULT:      -5.9      9.036     11.377
REMARK  Name = Gemfibrozil
REMARK  11 active torsions:
REMARK  status: ('A' for Active; 'I' for Inactive)
REMARK    1  A    between atoms: C_1  and  C_2
REMARK    2  A    between atoms: C_4  and  O_5
REMARK    3  A    between atoms: O_5  and  C_6
REMARK    4  A    between atoms: C_6  and  C_7
REMARK    5  A    between atoms: C_7  and  C_8
REMARK    6  A    between atoms: C_8  and  C_9
REMARK    7  A    between atoms: C_9  and  C_10
REMARK    8  A    between atoms: C_9  and  C_11
REMARK    9  A    between atoms: C_9  and  C_12
REMARK   10  A    between atoms: C_12  and  O_13
REMARK   11  A    between atoms: C_15  and  C_16
REMARK                            x       y       z     vdW  Elec       q    Type
REMARK                         _______ _______ _______ _____ _____    ______ ____
ROOT
ATOM      1  C   UNL     1      -9.029  -2.688 126.116  0.00  0.00    +0.000 C 
ENDROOT
BRANCH   1   2
ATOM      2  O   UNL     1      -8.663  -3.597 125.104  0.00  0.00    +0.000 OA
BRANCH   2   6
ATOM      3  C   UNL     1      -4.103  -4.392 123.721  0.00  0.00    +0.000 C 
ATOM      4  C   UNL     1      -5.368  -3.599 123.589  0.00  0.00    +0.000 A 
ATOM      5  C   UNL     1      -6.497  -3.882 124.369  0.00  0.00    +0.000 A 
ATOM      6  C   UNL     1      -7.691  -3.138 124.247  0.00  0.00    +0.000 A 
ATOM      7  C   UNL     1      -7.759  -2.076 123.322  0.00  0.00    +0.000 A 
ATOM      8  C   UNL     1      -8.907  -1.145 123.014  0.00  0.00    +0.000 C 
ATOM      9  C   UNL     1      -6.610  -1.810 122.548  0.00  0.00    +0.000 A 
ATOM     10  C   UNL     1      -5.437  -2.553 122.674  0.00  0.00    +0.000 A 
ENDBRANCH   2   6
ENDBRANCH   1   2
BRANCH   1  11
ATOM     11  C   UNL     1      -8.001  -2.576 127.196  0.00  0.00    +0.000 C 
BRANCH  11  12
ATOM     12  C   UNL     1      -7.579  -1.104 127.356  0.00  0.00    +0.000 C 
BRANCH  12  13
ATOM     13  C   UNL     1      -6.054  -0.923 127.286  0.00  0.00    +0.000 C 
ATOM     14  C   UNL     1      -5.379  -2.296 127.462  0.00  0.00    +0.000 C 
ATOM     15  C   UNL     1      -5.683  -0.341 125.909  0.00  0.00    +0.000 C 
BRANCH  13  16
ATOM     16  C   UNL     1      -5.472   0.015 128.354  0.00  0.00    +0.000 C 
ATOM     17  O   UNL     1      -5.920   1.143 128.551  0.00  0.00    +0.000 OA
BRANCH  16  18
ATOM     18  O   UNL     1      -4.436  -0.433 129.088  0.00  0.00    +0.000 OA
ATOM     19  H   UNL     1      -4.473  -1.338 129.442  0.00  0.00    +0.000 HD
ENDBRANCH  16  18
ENDBRANCH  13  16
ENDBRANCH  12  13
ENDBRANCH  11  12
ENDBRANCH   1  11
TORSDOF 7
ENDMDL
MODEL 8
REMARK VINA RESULT:      -5.8      2.518      3.656
REMARK  Name = Gemfibrozil
REMARK  11 active torsions:
REMARK  status: ('A' for Active; 'I' for Inactive)
REMARK    1  A    between atoms: C_1  and  C_2
REMARK    2  A    between atoms: C_4  and  O_5
REMARK    3  A    between atoms: O_5  and  C_6
REMARK    4  A    between atoms: C_6  and  C_7
REMARK    5  A    between atoms: C_7  and  C_8
REMARK    6  A    between atoms: C_8  and  C_9
REMARK    7  A    between atoms: C_9  and  C_10
REMARK    8  A    between atoms: C_9  and  C_11
REMARK    9  A    between atoms: C_9  and  C_12
REMARK   10  A    between atoms: C_12  and  O_13
REMARK   11  A    between atoms: C_15  and  C_16
REMARK                            x       y       z     vdW  Elec       q    Type
REMARK                         _______ _______ _______ _____ _____    ______ ____
ROOT
ATOM      1  C   UNL     1      -9.023   6.846 130.185  0.00  0.00    +0.000 C 
ENDROOT
BRANCH   1   2
ATOM      2  O   UNL     1      -7.779   7.449 130.458  0.00  0.00    +0.000 OA
BRANCH   2   6
ATOM      3  C   UNL     1      -8.127   4.640 134.374  0.00  0.00    +0.000 C 
ATOM      4  C   UNL     1      -7.268   5.364 133.382  0.00  0.00    +0.000 A 
ATOM      5  C   UNL     1      -7.824   6.109 132.334  0.00  0.00    +0.000 A 
ATOM      6  C   UNL     1      -7.018   6.792 131.397  0.00  0.00    +0.000 A 
ATOM      7  C   UNL     1      -5.614   6.734 131.513  0.00  0.00    +0.000 A 
ATOM      8  C   UNL     1      -4.555   7.374 130.648  0.00  0.00    +0.000 C 
ATOM      9  C   UNL     1      -5.077   5.979 132.576  0.00  0.00    +0.000 A 
ATOM     10  C   UNL     1      -5.883   5.305 133.493  0.00  0.00    +0.000 A 
ENDBRANCH   2   6
ENDBRANCH   1   2
BRANCH   1  11
ATOM     11  C   UNL     1      -9.953   7.747 129.439  0.00  0.00    +0.000 C 
BRANCH  11  12
ATOM     12  C   UNL     1     -11.162   6.939 128.936  0.00  0.00    +0.000 C 
BRANCH  12  13
ATOM     13  C   UNL     1     -12.485   7.425 129.550  0.00  0.00    +0.000 C 
ATOM     14  C   UNL     1     -12.530   8.963 129.487  0.00  0.00    +0.000 C 
ATOM     15  C   UNL     1     -13.657   6.843 128.737  0.00  0.00    +0.000 C 
BRANCH  13  16
ATOM     16  C   UNL     1     -12.697   7.019 131.016  0.00  0.00    +0.000 C 
ATOM     17  O   UNL     1     -13.390   7.681 131.787  0.00  0.00    +0.000 OA
BRANCH  16  18
ATOM     18  O   UNL     1     -12.094   5.897 131.452  0.00  0.00    +0.000 OA
ATOM     19  H   UNL     1     -11.222   5.665 131.089  0.00  0.00    +0.000 HD
ENDBRANCH  16  18
ENDBRANCH  13  16
ENDBRANCH  12  13
ENDBRANCH  11  12
ENDBRANCH   1  11
TORSDOF 7
ENDMDL
MODEL 9
REMARK VINA RESULT:      -5.7      9.264     11.920
REMARK  Name = Gemfibrozil
REMARK  11 active torsions:
REMARK  status: ('A' for Active; 'I' for Inactive)
REMARK    1  A    between atoms: C_1  and  C_2
REMARK    2  A    between atoms: C_4  and  O_5
REMARK    3  A    between atoms: O_5  and  C_6
REMARK    4  A    between atoms: C_6  and  C_7
REMARK    5  A    between atoms: C_7  and  C_8
REMARK    6  A    between atoms: C_8  and  C_9
REMARK    7  A    between atoms: C_9  and  C_10
REMARK    8  A    between atoms: C_9  and  C_11
REMARK    9  A    between atoms: C_9  and  C_12
REMARK   10  A    between atoms: C_12  and  O_13
REMARK   11  A    between atoms: C_15  and  C_16
REMARK                            x       y       z     vdW  Elec       q    Type
REMARK                         _______ _______ _______ _____ _____    ______ ____
ROOT
ATOM      1  C   UNL     1      -8.655  -3.834 126.194  0.00  0.00    +0.000 C 
ENDROOT
BRANCH   1   2
ATOM      2  O   UNL     1      -8.974  -3.344 124.912  0.00  0.00    +0.000 OA
BRANCH   2   6
ATOM      3  C   UNL     1      -4.386  -4.410 123.837  0.00  0.00    +0.000 C 
ATOM      4  C   UNL     1      -5.567  -3.501 123.678  0.00  0.00    +0.000 A 
ATOM      5  C   UNL     1      -6.780  -3.751 124.333  0.00  0.00    +0.000 A 
ATOM      6  C   UNL     1      -7.896  -2.898 124.185  0.00  0.00    +0.000 A 
ATOM      7  C   UNL     1      -7.795  -1.756 123.363  0.00  0.00    +0.000 A 
ATOM      8  C   UNL     1      -8.833  -0.705 123.053  0.00  0.00    +0.000 C 
ATOM      9  C   UNL     1      -6.564  -1.524 122.715  0.00  0.00    +0.000 A 
ATOM     10  C   UNL     1      -5.471  -2.376 122.866  0.00  0.00    +0.000 A 
ENDBRANCH   2   6
ENDBRANCH   1   2
BRANCH   1  11
ATOM     11  C   UNL     1      -8.578  -2.755 127.226  0.00  0.00    +0.000 C 
BRANCH  11  12
ATOM     12  C   UNL     1      -8.413  -3.386 128.620  0.00  0.00    +0.000 C 
BRANCH  12  13
ATOM     13  C   UNL     1      -7.264  -2.746 129.417  0.00  0.00    +0.000 C 
ATOM     14  C   UNL     1      -6.106  -2.423 128.455  0.00  0.00    +0.000 C 
ATOM     15  C   UNL     1      -7.771  -1.444 130.066  0.00  0.00    +0.000 C 
BRANCH  13  16
ATOM     16  C   UNL     1      -6.697  -3.628 130.539  0.00  0.00    +0.000 C 
ATOM     17  O   UNL     1      -6.010  -4.622 130.309  0.00  0.00    +0.000 OA
BRANCH  16  18
ATOM     18  O   UNL     1      -6.971  -3.283 131.812  0.00  0.00    +0.000 OA
ATOM     19  H   UNL     1      -7.436  -2.445 131.977  0.00  0.00    +0.000 HD
ENDBRANCH  16  18
ENDBRANCH  13  16
ENDBRANCH  12  13
ENDBRANCH  11  12
ENDBRANCH   1  11
TORSDOF 7
ENDMDL
