MODEL 1
REMARK VINA RESULT:      -7.0      0.000      0.000
REMARK  Name = Gemifloxacin
REMARK  7 active torsions:
REMARK  status: ('A' for Active; 'I' for Inactive)
REMARK    1  A    between atoms: C_1  and  O_2
REMARK    2  A    between atoms: O_2  and  N_3
REMARK    3  A    between atoms: C_8  and  C_9
REMARK    4  A    between atoms: C_9  and  N_10
REMARK    5  A    between atoms: C_20  and  C_26
REMARK    6  A    between atoms: N_22  and  C_23
REMARK    7  A    between atoms: C_26  and  O_27
REMARK                            x       y       z     vdW  Elec       q    Type
REMARK                         _______ _______ _______ _____ _____    ______ ____
ROOT
ATOM      1  N   UNL     1     -11.110   6.951 131.062  0.00  0.00    +0.000 NA
ATOM      2  C   UNL     1      -9.978   6.468 130.633  0.00  0.00    +0.000 C 
ATOM      3  C   UNL     1      -9.625   5.968 129.238  0.00  0.00    +0.000 C 
ATOM      4  N   UNL     1      -8.578   4.991 129.537  0.00  0.00    +0.000 N 
ATOM      5  C   UNL     1      -7.870   5.348 130.770  0.00  0.00    +0.000 C 
ATOM      6  C   UNL     1      -8.748   6.383 131.530  0.00  0.00    +0.000 C 
ATOM      7  C   UNL     1      -8.428   3.789 128.868  0.00  0.00    +0.000 A 
ATOM      8  N   UNL     1      -8.073   3.796 127.544  0.00  0.00    +0.000 NA
ATOM      9  C   UNL     1      -7.833   2.605 126.882  0.00  0.00    +0.000 A 
ATOM     10  C   UNL     1      -7.989   1.374 127.523  0.00  0.00    +0.000 A 
ATOM     11  C   UNL     1      -8.383   1.352 128.856  0.00  0.00    +0.000 A 
ATOM     12  C   UNL     1      -8.589   2.557 129.524  0.00  0.00    +0.000 A 
ATOM     13  F   UNL     1      -8.979   2.501 130.807  0.00  0.00    +0.000 F 
ATOM     14  C   UNL     1      -7.739   0.091 126.817  0.00  0.00    +0.000 A 
ATOM     15  O   UNL     1      -7.908  -0.955 127.434  0.00  0.00    +0.000 OA
ATOM     16  C   UNL     1      -7.298   0.115 125.394  0.00  0.00    +0.000 A 
ATOM     17  C   UNL     1      -7.170   1.348 124.878  0.00  0.00    +0.000 A 
ATOM     18  N   UNL     1      -7.389   2.567 125.511  0.00  0.00    +0.000 N 
ENDROOT
BRANCH  18  19
ATOM     19  C   UNL     1      -7.169   3.835 124.775  0.00  0.00    +0.000 C 
ATOM     20  C   UNL     1      -5.869   4.611 124.787  0.00  0.00    +0.000 C 
ATOM     21  C   UNL     1      -6.298   3.885 123.544  0.00  0.00    +0.000 C 
ENDBRANCH  18  19
BRANCH   1  23
ATOM     22  C   UNL     1     -12.547   8.260 129.807  0.00  0.00    +0.000 C 
ATOM     23  O   UNL     1     -12.132   6.918 130.101  0.00  0.00    +0.000 OA
ENDBRANCH   1  23
BRANCH  16  24
ATOM     24  C   UNL     1      -7.038  -1.147 124.644  0.00  0.00    +0.000 C 
ATOM     25  O   UNL     1      -6.035  -1.332 123.962  0.00  0.00    +0.000 OA
BRANCH  24  26
ATOM     26  O   UNL     1      -7.962  -2.129 124.727  0.00  0.00    +0.000 OA
ATOM     27  H   UNL     1      -8.677  -2.083 125.380  0.00  0.00    +0.000 HD
ENDBRANCH  24  26
ENDBRANCH  16  24
BRANCH   6  28
ATOM     28  C   UNL     1      -9.018   5.943 132.968  0.00  0.00    +0.000 C 
BRANCH  28  29
ATOM     29  N   UNL     1     -10.063   4.930 133.058  0.00  0.00    +0.000 NA
ATOM     30  H   UNL     1      -9.698   4.034 133.370  0.00  0.00    +0.000 HD
ATOM     31  H   UNL     1     -10.537   4.801 132.168  0.00  0.00    +0.000 HD
ENDBRANCH  28  29
ENDBRANCH   6  28
TORSDOF 6
ENDMDL
MODEL 2
REMARK VINA RESULT:      -6.8      6.037      7.672
REMARK  Name = Gemifloxacin
REMARK  7 active torsions:
REMARK  status: ('A' for Active; 'I' for Inactive)
REMARK    1  A    between atoms: C_1  and  O_2
REMARK    2  A    between atoms: O_2  and  N_3
REMARK    3  A    between atoms: C_8  and  C_9
REMARK    4  A    between atoms: C_9  and  N_10
REMARK    5  A    between atoms: C_20  and  C_26
REMARK    6  A    between atoms: N_22  and  C_23
REMARK    7  A    between atoms: C_26  and  O_27
REMARK                            x       y       z     vdW  Elec       q    Type
REMARK                         _______ _______ _______ _____ _____    ______ ____
ROOT
ATOM      1  N   UNL     1      -3.446  -2.862 132.244  0.00  0.00    +0.000 NA
ATOM      2  C   UNL     1      -4.169  -3.344 131.273  0.00  0.00    +0.000 C 
ATOM      3  C   UNL     1      -4.161  -2.958 129.799  0.00  0.00    +0.000 C 
ATOM      4  N   UNL     1      -5.533  -3.284 129.407  0.00  0.00    +0.000 N 
ATOM      5  C   UNL     1      -6.068  -4.366 130.240  0.00  0.00    +0.000 C 
ATOM      6  C   UNL     1      -5.156  -4.486 131.494  0.00  0.00    +0.000 C 
ATOM      7  C   UNL     1      -6.285  -2.530 128.524  0.00  0.00    +0.000 A 
ATOM      8  N   UNL     1      -5.904  -2.456 127.210  0.00  0.00    +0.000 NA
ATOM      9  C   UNL     1      -6.692  -1.780 126.295  0.00  0.00    +0.000 A 
ATOM     10  C   UNL     1      -7.860  -1.121 126.688  0.00  0.00    +0.000 A 
ATOM     11  C   UNL     1      -8.237  -1.158 128.026  0.00  0.00    +0.000 A 
ATOM     12  C   UNL     1      -7.457  -1.871 128.933  0.00  0.00    +0.000 A 
ATOM     13  F   UNL     1      -7.844  -1.880 130.218  0.00  0.00    +0.000 F 
ATOM     14  C   UNL     1      -8.706  -0.387 125.713  0.00  0.00    +0.000 A 
ATOM     15  O   UNL     1      -9.711   0.181 126.127  0.00  0.00    +0.000 OA
ATOM     16  C   UNL     1      -8.311  -0.363 124.277  0.00  0.00    +0.000 A 
ATOM     17  C   UNL     1      -7.181  -1.034 124.005  0.00  0.00    +0.000 A 
ATOM     18  N   UNL     1      -6.369  -1.735 124.890  0.00  0.00    +0.000 N 
ENDROOT
BRANCH  18  19
ATOM     19  C   UNL     1      -5.162  -2.440 124.393  0.00  0.00    +0.000 C 
ATOM     20  C   UNL     1      -5.138  -3.895 123.976  0.00  0.00    +0.000 C 
ATOM     21  C   UNL     1      -5.020  -2.815 122.938  0.00  0.00    +0.000 C 
ENDBRANCH  18  19
BRANCH   1  23
ATOM     22  C   UNL     1      -3.033  -0.603 132.536  0.00  0.00    +0.000 C 
ATOM     23  O   UNL     1      -2.622  -1.796 131.851  0.00  0.00    +0.000 OA
ENDBRANCH   1  23
BRANCH  16  24
ATOM     24  C   UNL     1      -9.129   0.363 123.263  0.00  0.00    +0.000 C 
ATOM     25  O   UNL     1      -8.972   1.549 122.992  0.00  0.00    +0.000 OA
BRANCH  24  26
ATOM     26  O   UNL     1     -10.090  -0.333 122.618  0.00  0.00    +0.000 OA
ATOM     27  H   UNL     1     -10.103  -1.302 122.643  0.00  0.00    +0.000 HD
ENDBRANCH  24  26
ENDBRANCH  16  24
BRANCH   6  28
ATOM     28  C   UNL     1      -5.964  -4.406 132.788  0.00  0.00    +0.000 C 
BRANCH  28  29
ATOM     29  N   UNL     1      -6.515  -3.077 133.024  0.00  0.00    +0.000 NA
ATOM     30  H   UNL     1      -7.213  -3.081 133.764  0.00  0.00    +0.000 HD
ATOM     31  H   UNL     1      -6.931  -2.689 132.183  0.00  0.00    +0.000 HD
ENDBRANCH  28  29
ENDBRANCH   6  28
TORSDOF 6
ENDMDL
MODEL 3
REMARK VINA RESULT:      -6.7      4.373      7.741
REMARK  Name = Gemifloxacin
REMARK  7 active torsions:
REMARK  status: ('A' for Active; 'I' for Inactive)
REMARK    1  A    between atoms: C_1  and  O_2
REMARK    2  A    between atoms: O_2  and  N_3
REMARK    3  A    between atoms: C_8  and  C_9
REMARK    4  A    between atoms: C_9  and  N_10
REMARK    5  A    between atoms: C_20  and  C_26
REMARK    6  A    between atoms: N_22  and  C_23
REMARK    7  A    between atoms: C_26  and  O_27
REMARK                            x       y       z     vdW  Elec       q    Type
REMARK                         _______ _______ _______ _____ _____    ______ ____
ROOT
ATOM      1  N   UNL     1      -9.666  -0.647 124.468  0.00  0.00    +0.000 NA
ATOM      2  C   UNL     1      -8.991  -0.467 125.569  0.00  0.00    +0.000 C 
ATOM      3  C   UNL     1      -8.715   0.833 126.313  0.00  0.00    +0.000 C 
ATOM      4  N   UNL     1      -7.448   0.523 126.977  0.00  0.00    +0.000 N 
ATOM      5  C   UNL     1      -7.333  -0.916 127.232  0.00  0.00    +0.000 C 
ATOM      6  C   UNL     1      -8.388  -1.635 126.343  0.00  0.00    +0.000 C 
ATOM      7  C   UNL     1      -6.417   1.432 127.139  0.00  0.00    +0.000 A 
ATOM      8  N   UNL     1      -6.602   2.520 127.952  0.00  0.00    +0.000 NA
ATOM      9  C   UNL     1      -5.555   3.391 128.196  0.00  0.00    +0.000 A 
ATOM     10  C   UNL     1      -4.308   3.216 127.590  0.00  0.00    +0.000 A 
ATOM     11  C   UNL     1      -4.119   2.136 126.735  0.00  0.00    +0.000 A 
ATOM     12  C   UNL     1      -5.168   1.245 126.523  0.00  0.00    +0.000 A 
ATOM     13  F   UNL     1      -4.956   0.219 125.684  0.00  0.00    +0.000 F 
ATOM     14  C   UNL     1      -3.182   4.151 127.842  0.00  0.00    +0.000 A 
ATOM     15  O   UNL     1      -2.118   3.948 127.268  0.00  0.00    +0.000 OA
ATOM     16  C   UNL     1      -3.379   5.297 128.773  0.00  0.00    +0.000 A 
ATOM     17  C   UNL     1      -4.608   5.367 129.308  0.00  0.00    +0.000 A 
ATOM     18  N   UNL     1      -5.682   4.508 129.099  0.00  0.00    +0.000 N 
ENDROOT
BRANCH  18  19
ATOM     19  C   UNL     1      -6.966   4.737 129.805  0.00  0.00    +0.000 C 
ATOM     20  C   UNL     1      -7.292   4.190 131.178  0.00  0.00    +0.000 C 
ATOM     21  C   UNL     1      -7.049   5.661 130.996  0.00  0.00    +0.000 C 
ENDBRANCH  18  19
BRANCH   1  23
ATOM     22  C   UNL     1     -10.078   0.420 122.457  0.00  0.00    +0.000 C 
ATOM     23  O   UNL     1     -10.114   0.548 123.886  0.00  0.00    +0.000 OA
ENDBRANCH   1  23
BRANCH  16  24
ATOM     24  C   UNL     1      -2.278   6.263 129.054  0.00  0.00    +0.000 C 
ATOM     25  O   UNL     1      -1.892   6.535 130.187  0.00  0.00    +0.000 OA
BRANCH  24  26
ATOM     26  O   UNL     1      -1.685   6.864 128.000  0.00  0.00    +0.000 OA
ATOM     27  H   UNL     1      -1.988   7.730 127.689  0.00  0.00    +0.000 HD
ENDBRANCH  24  26
ENDBRANCH  16  24
BRANCH   6  28
ATOM     28  C   UNL     1      -7.750  -2.726 125.484  0.00  0.00    +0.000 C 
BRANCH  28  29
ATOM     29  N   UNL     1      -6.900  -2.186 124.431  0.00  0.00    +0.000 NA
ATOM     30  H   UNL     1      -7.335  -1.400 123.955  0.00  0.00    +0.000 HD
ATOM     31  H   UNL     1      -6.660  -2.894 123.743  0.00  0.00    +0.000 HD
ENDBRANCH  28  29
ENDBRANCH   6  28
TORSDOF 6
ENDMDL
MODEL 4
REMARK VINA RESULT:      -6.7      4.950      7.163
REMARK  Name = Gemifloxacin
REMARK  7 active torsions:
REMARK  status: ('A' for Active; 'I' for Inactive)
REMARK    1  A    between atoms: C_1  and  O_2
REMARK    2  A    between atoms: O_2  and  N_3
REMARK    3  A    between atoms: C_8  and  C_9
REMARK    4  A    between atoms: C_9  and  N_10
REMARK    5  A    between atoms: C_20  and  C_26
REMARK    6  A    between atoms: N_22  and  C_23
REMARK    7  A    between atoms: C_26  and  O_27
REMARK                            x       y       z     vdW  Elec       q    Type
REMARK                         _______ _______ _______ _____ _____    ______ ____
ROOT
ATOM      1  N   UNL     1      -4.190  -2.887 132.242  0.00  0.00    +0.000 NA
ATOM      2  C   UNL     1      -5.083  -3.027 131.303  0.00  0.00    +0.000 C 
ATOM      3  C   UNL     1      -4.976  -2.662 129.828  0.00  0.00    +0.000 C 
ATOM      4  N   UNL     1      -6.376  -2.402 129.491  0.00  0.00    +0.000 N 
ATOM      5  C   UNL     1      -7.271  -3.182 130.352  0.00  0.00    +0.000 C 
ATOM      6  C   UNL     1      -6.438  -3.673 131.571  0.00  0.00    +0.000 C 
ATOM      7  C   UNL     1      -6.792  -1.399 128.633  0.00  0.00    +0.000 A 
ATOM      8  N   UNL     1      -6.465  -1.473 127.305  0.00  0.00    +0.000 NA
ATOM      9  C   UNL     1      -6.946  -0.527 126.417  0.00  0.00    +0.000 A 
ATOM     10  C   UNL     1      -7.731   0.544 126.851  0.00  0.00    +0.000 A 
ATOM     11  C   UNL     1      -8.039   0.650 128.203  0.00  0.00    +0.000 A 
ATOM     12  C   UNL     1      -7.580  -0.326 129.084  0.00  0.00    +0.000 A 
ATOM     13  F   UNL     1      -7.888  -0.189 130.383  0.00  0.00    +0.000 F 
ATOM     14  C   UNL     1      -8.244   1.567 125.905  0.00  0.00    +0.000 A 
ATOM     15  O   UNL     1      -8.916   2.490 126.353  0.00  0.00    +0.000 OA
ATOM     16  C   UNL     1      -7.929   1.443 124.454  0.00  0.00    +0.000 A 
ATOM     17  C   UNL     1      -7.179   0.374 124.143  0.00  0.00    +0.000 A 
ATOM     18  N   UNL     1      -6.686  -0.603 125.001  0.00  0.00    +0.000 N 
ENDROOT
BRANCH  18  19
ATOM     19  C   UNL     1      -5.889  -1.731 124.461  0.00  0.00    +0.000 C 
ATOM     20  C   UNL     1      -6.462  -3.088 124.111  0.00  0.00    +0.000 C 
ATOM     21  C   UNL     1      -6.014  -2.159 123.019  0.00  0.00    +0.000 C 
ENDBRANCH  18  19
BRANCH   1  23
ATOM     22  C   UNL     1      -2.635  -1.261 132.784  0.00  0.00    +0.000 C 
ATOM     23  O   UNL     1      -3.020  -2.243 131.810  0.00  0.00    +0.000 OA
ENDBRANCH   1  23
BRANCH  16  24
ATOM     24  C   UNL     1      -8.421   2.447 123.468  0.00  0.00    +0.000 C 
ATOM     25  O   UNL     1      -9.028   2.147 122.445  0.00  0.00    +0.000 OA
BRANCH  24  26
ATOM     26  O   UNL     1      -8.178   3.751 123.723  0.00  0.00    +0.000 OA
ATOM     27  H   UNL     1      -7.432   4.016 124.284  0.00  0.00    +0.000 HD
ENDBRANCH  24  26
ENDBRANCH  16  24
BRANCH   6  28
ATOM     28  C   UNL     1      -7.095  -3.285 132.894  0.00  0.00    +0.000 C 
BRANCH  28  29
ATOM     29  N   UNL     1      -7.038  -1.851 133.150  0.00  0.00    +0.000 NA
ATOM     30  H   UNL     1      -6.834  -1.321 132.306  0.00  0.00    +0.000 HD
ATOM     31  H   UNL     1      -6.345  -1.623 133.856  0.00  0.00    +0.000 HD
ENDBRANCH  28  29
ENDBRANCH   6  28
TORSDOF 6
ENDMDL
MODEL 5
REMARK VINA RESULT:      -6.7      1.783      2.055
REMARK  Name = Gemifloxacin
REMARK  7 active torsions:
REMARK  status: ('A' for Active; 'I' for Inactive)
REMARK    1  A    between atoms: C_1  and  O_2
REMARK    2  A    between atoms: O_2  and  N_3
REMARK    3  A    between atoms: C_8  and  C_9
REMARK    4  A    between atoms: C_9  and  N_10
REMARK    5  A    between atoms: C_20  and  C_26
REMARK    6  A    between atoms: N_22  and  C_23
REMARK    7  A    between atoms: C_26  and  O_27
REMARK                            x       y       z     vdW  Elec       q    Type
REMARK                         _______ _______ _______ _____ _____    ______ ____
ROOT
ATOM      1  N   UNL     1      -9.305   5.943 131.214  0.00  0.00    +0.000 NA
ATOM      2  C   UNL     1      -8.493   5.390 130.357  0.00  0.00    +0.000 C 
ATOM      3  C   UNL     1      -8.777   4.943 128.929  0.00  0.00    +0.000 C 
ATOM      4  N   UNL     1      -7.803   3.864 128.763  0.00  0.00    +0.000 N 
ATOM      5  C   UNL     1      -6.630   4.088 129.614  0.00  0.00    +0.000 C 
ATOM      6  C   UNL     1      -7.022   5.149 130.682  0.00  0.00    +0.000 C 
ATOM      7  C   UNL     1      -8.054   2.695 128.069  0.00  0.00    +0.000 A 
ATOM      8  N   UNL     1      -8.257   2.747 126.714  0.00  0.00    +0.000 NA
ATOM      9  C   UNL     1      -8.422   1.580 125.990  0.00  0.00    +0.000 A 
ATOM     10  C   UNL     1      -8.433   0.332 126.617  0.00  0.00    +0.000 A 
ATOM     11  C   UNL     1      -8.265   0.267 127.996  0.00  0.00    +0.000 A 
ATOM     12  C   UNL     1      -8.064   1.445 128.712  0.00  0.00    +0.000 A 
ATOM     13  F   UNL     1      -7.914   1.349 130.042  0.00  0.00    +0.000 F 
ATOM     14  C   UNL     1      -8.618  -0.925 125.847  0.00  0.00    +0.000 A 
ATOM     15  O   UNL     1      -8.631  -1.987 126.460  0.00  0.00    +0.000 OA
ATOM     16  C   UNL     1      -8.780  -0.857 124.367  0.00  0.00    +0.000 A 
ATOM     17  C   UNL     1      -8.743   0.387 123.866  0.00  0.00    +0.000 A 
ATOM     18  N   UNL     1      -8.568   1.582 124.555  0.00  0.00    +0.000 N 
ENDROOT
BRANCH  18  19
ATOM     19  C   UNL     1      -8.532   2.868 123.817  0.00  0.00    +0.000 C 
ATOM     20  C   UNL     1      -7.362   3.335 122.978  0.00  0.00    +0.000 C 
ATOM     21  C   UNL     1      -8.639   2.909 122.312  0.00  0.00    +0.000 C 
ENDBRANCH  18  19
BRANCH   1  23
ATOM     22  C   UNL     1     -11.475   6.470 131.822  0.00  0.00    +0.000 C 
ATOM     23  O   UNL     1     -10.623   6.052 130.744  0.00  0.00    +0.000 OA
ENDBRANCH   1  23
BRANCH  16  24
ATOM     24  C   UNL     1      -8.969  -2.092 123.553  0.00  0.00    +0.000 C 
ATOM     25  O   UNL     1      -8.334  -2.330 122.531  0.00  0.00    +0.000 OA
BRANCH  24  26
ATOM     26  O   UNL     1      -9.891  -2.985 123.972  0.00  0.00    +0.000 OA
ATOM     27  H   UNL     1     -10.599  -3.282 123.380  0.00  0.00    +0.000 HD
ENDBRANCH  24  26
ENDBRANCH  16  24
BRANCH   6  28
ATOM     28  C   UNL     1      -6.741   4.652 132.099  0.00  0.00    +0.000 C 
BRANCH  28  29
ATOM     29  N   UNL     1      -7.789   3.775 132.605  0.00  0.00    +0.000 NA
ATOM     30  H   UNL     1      -8.331   4.215 133.343  0.00  0.00    +0.000 HD
ATOM     31  H   UNL     1      -7.409   2.900 132.953  0.00  0.00    +0.000 HD
ENDBRANCH  28  29
ENDBRANCH   6  28
TORSDOF 6
ENDMDL
MODEL 6
REMARK VINA RESULT:      -6.5      5.480      9.269
REMARK  Name = Gemifloxacin
REMARK  7 active torsions:
REMARK  status: ('A' for Active; 'I' for Inactive)
REMARK    1  A    between atoms: C_1  and  O_2
REMARK    2  A    between atoms: O_2  and  N_3
REMARK    3  A    between atoms: C_8  and  C_9
REMARK    4  A    between atoms: C_9  and  N_10
REMARK    5  A    between atoms: C_20  and  C_26
REMARK    6  A    between atoms: N_22  and  C_23
REMARK    7  A    between atoms: C_26  and  O_27
REMARK                            x       y       z     vdW  Elec       q    Type
REMARK                         _______ _______ _______ _____ _____    ______ ____
ROOT
ATOM      1  N   UNL     1      -6.220  -3.260 123.810  0.00  0.00    +0.000 NA
ATOM      2  C   UNL     1      -6.799  -2.536 124.727  0.00  0.00    +0.000 C 
ATOM      3  C   UNL     1      -6.167  -1.827 125.917  0.00  0.00    +0.000 C 
ATOM      4  N   UNL     1      -7.280  -1.806 126.867  0.00  0.00    +0.000 N 
ATOM      5  C   UNL     1      -8.565  -1.801 126.161  0.00  0.00    +0.000 C 
ATOM      6  C   UNL     1      -8.295  -2.240 124.693  0.00  0.00    +0.000 C 
ATOM      7  C   UNL     1      -7.137  -1.987 128.231  0.00  0.00    +0.000 A 
ATOM      8  N   UNL     1      -6.464  -1.046 128.967  0.00  0.00    +0.000 NA
ATOM      9  C   UNL     1      -6.387  -1.165 130.343  0.00  0.00    +0.000 A 
ATOM     10  C   UNL     1      -6.945  -2.259 131.010  0.00  0.00    +0.000 A 
ATOM     11  C   UNL     1      -7.599  -3.238 130.271  0.00  0.00    +0.000 A 
ATOM     12  C   UNL     1      -7.702  -3.092 128.890  0.00  0.00    +0.000 A 
ATOM     13  F   UNL     1      -8.331  -4.060 128.205  0.00  0.00    +0.000 F 
ATOM     14  C   UNL     1      -6.860  -2.396 132.486  0.00  0.00    +0.000 A 
ATOM     15  O   UNL     1      -7.359  -3.387 133.008  0.00  0.00    +0.000 OA
ATOM     16  C   UNL     1      -6.176  -1.337 133.280  0.00  0.00    +0.000 A 
ATOM     17  C   UNL     1      -5.685  -0.328 132.544  0.00  0.00    +0.000 A 
ATOM     18  N   UNL     1      -5.752  -0.165 131.164  0.00  0.00    +0.000 N 
ENDROOT
BRANCH  18  19
ATOM     19  C   UNL     1      -5.167   1.041 130.529  0.00  0.00    +0.000 C 
ATOM     20  C   UNL     1      -5.874   2.375 130.424  0.00  0.00    +0.000 C 
ATOM     21  C   UNL     1      -4.708   2.216 131.358  0.00  0.00    +0.000 C 
ENDBRANCH  18  19
BRANCH   1  23
ATOM     22  C   UNL     1      -4.479  -4.772 123.619  0.00  0.00    +0.000 C 
ATOM     23  O   UNL     1      -4.847  -3.447 124.029  0.00  0.00    +0.000 OA
ENDBRANCH   1  23
BRANCH  16  24
ATOM     24  C   UNL     1      -6.064  -1.434 134.764  0.00  0.00    +0.000 C 
ATOM     25  O   UNL     1      -5.059  -1.110 135.388  0.00  0.00    +0.000 OA
BRANCH  24  26
ATOM     26  O   UNL     1      -7.131  -1.906 135.444  0.00  0.00    +0.000 OA
ATOM     27  H   UNL     1      -7.952  -1.393 135.497  0.00  0.00    +0.000 HD
ENDBRANCH  24  26
ENDBRANCH  16  24
BRANCH   6  28
ATOM     28  C   UNL     1      -9.182  -3.413 124.284  0.00  0.00    +0.000 C 
BRANCH  28  29
ATOM     29  N   UNL     1     -10.126  -3.063 123.229  0.00  0.00    +0.000 NA
ATOM     30  H   UNL     1     -10.348  -2.071 123.231  0.00  0.00    +0.000 HD
ATOM     31  H   UNL     1     -10.989  -3.593 123.307  0.00  0.00    +0.000 HD
ENDBRANCH  28  29
ENDBRANCH   6  28
TORSDOF 6
ENDMDL
MODEL 7
REMARK VINA RESULT:      -6.5      4.273      7.467
REMARK  Name = Gemifloxacin
REMARK  7 active torsions:
REMARK  status: ('A' for Active; 'I' for Inactive)
REMARK    1  A    between atoms: C_1  and  O_2
REMARK    2  A    between atoms: O_2  and  N_3
REMARK    3  A    between atoms: C_8  and  C_9
REMARK    4  A    between atoms: C_9  and  N_10
REMARK    5  A    between atoms: C_20  and  C_26
REMARK    6  A    between atoms: N_22  and  C_23
REMARK    7  A    between atoms: C_26  and  O_27
REMARK                            x       y       z     vdW  Elec       q    Type
REMARK                         _______ _______ _______ _____ _____    ______ ____
ROOT
ATOM      1  N   UNL     1      -8.328   1.409 123.383  0.00  0.00    +0.000 NA
ATOM      2  C   UNL     1      -7.522   1.373 124.406  0.00  0.00    +0.000 C 
ATOM      3  C   UNL     1      -7.216   0.204 125.334  0.00  0.00    +0.000 C 
ATOM      4  N   UNL     1      -6.854   0.902 126.569  0.00  0.00    +0.000 N 
ATOM      5  C   UNL     1      -6.295   2.224 126.273  0.00  0.00    +0.000 C 
ATOM      6  C   UNL     1      -6.673   2.575 124.805  0.00  0.00    +0.000 C 
ATOM      7  C   UNL     1      -7.194   0.460 127.835  0.00  0.00    +0.000 A 
ATOM      8  N   UNL     1      -6.652  -0.705 128.309  0.00  0.00    +0.000 NA
ATOM      9  C   UNL     1      -6.911  -1.116 129.605  0.00  0.00    +0.000 A 
ATOM     10  C   UNL     1      -7.761  -0.388 130.441  0.00  0.00    +0.000 A 
ATOM     11  C   UNL     1      -8.347   0.777 129.959  0.00  0.00    +0.000 A 
ATOM     12  C   UNL     1      -8.052   1.201 128.665  0.00  0.00    +0.000 A 
ATOM     13  F   UNL     1      -8.641   2.325 128.228  0.00  0.00    +0.000 F 
ATOM     14  C   UNL     1      -8.050  -0.828 131.830  0.00  0.00    +0.000 A 
ATOM     15  O   UNL     1      -8.816  -0.150 132.507  0.00  0.00    +0.000 OA
ATOM     16  C   UNL     1      -7.408  -2.066 132.353  0.00  0.00    +0.000 A 
ATOM     17  C   UNL     1      -6.603  -2.682 131.473  0.00  0.00    +0.000 A 
ATOM     18  N   UNL     1      -6.307  -2.297 130.170  0.00  0.00    +0.000 N 
ENDROOT
BRANCH  18  19
ATOM     19  C   UNL     1      -5.367  -3.102 129.353  0.00  0.00    +0.000 C 
ATOM     20  C   UNL     1      -3.882  -2.825 129.243  0.00  0.00    +0.000 C 
ATOM     21  C   UNL     1      -4.367  -4.030 129.998  0.00  0.00    +0.000 C 
ENDBRANCH  18  19
BRANCH   1  23
ATOM     22  C   UNL     1     -10.252   0.503 122.470  0.00  0.00    +0.000 C 
ATOM     23  O   UNL     1      -9.045   0.218 123.193  0.00  0.00    +0.000 OA
ENDBRANCH   1  23
BRANCH  16  24
ATOM     24  C   UNL     1      -7.669  -2.546 133.740  0.00  0.00    +0.000 C 
ATOM     25  O   UNL     1      -8.246  -3.599 133.992  0.00  0.00    +0.000 OA
BRANCH  24  26
ATOM     26  O   UNL     1      -7.248  -1.771 134.763  0.00  0.00    +0.000 OA
ATOM     27  H   UNL     1      -6.988  -0.849 134.612  0.00  0.00    +0.000 HD
ENDBRANCH  24  26
ENDBRANCH  16  24
BRANCH   6  28
ATOM     28  C   UNL     1      -7.376   3.928 124.713  0.00  0.00    +0.000 C 
BRANCH  28  29
ATOM     29  N   UNL     1      -8.785   3.855 125.082  0.00  0.00    +0.000 NA
ATOM     30  H   UNL     1      -9.058   2.915 125.356  0.00  0.00    +0.000 HD
ATOM     31  H   UNL     1      -9.387   4.165 124.324  0.00  0.00    +0.000 HD
ENDBRANCH  28  29
ENDBRANCH   6  28
TORSDOF 6
ENDMDL
MODEL 8
REMARK VINA RESULT:      -6.2      5.132      6.919
REMARK  Name = Gemifloxacin
REMARK  7 active torsions:
REMARK  status: ('A' for Active; 'I' for Inactive)
REMARK    1  A    between atoms: C_1  and  O_2
REMARK    2  A    between atoms: O_2  and  N_3
REMARK    3  A    between atoms: C_8  and  C_9
REMARK    4  A    between atoms: C_9  and  N_10
REMARK    5  A    between atoms: C_20  and  C_26
REMARK    6  A    between atoms: N_22  and  C_23
REMARK    7  A    between atoms: C_26  and  O_27
REMARK                            x       y       z     vdW  Elec       q    Type
REMARK                         _______ _______ _______ _____ _____    ______ ____
ROOT
ATOM      1  N   UNL     1      -5.440  -2.221 133.782  0.00  0.00    +0.000 NA
ATOM      2  C   UNL     1      -5.116  -2.211 132.519  0.00  0.00    +0.000 C 
ATOM      3  C   UNL     1      -5.473  -1.182 131.455  0.00  0.00    +0.000 C 
ATOM      4  N   UNL     1      -5.452  -1.999 130.241  0.00  0.00    +0.000 N 
ATOM      5  C   UNL     1      -4.525  -3.126 130.391  0.00  0.00    +0.000 C 
ATOM      6  C   UNL     1      -4.223  -3.286 131.909  0.00  0.00    +0.000 C 
ATOM      7  C   UNL     1      -6.342  -1.851 129.193  0.00  0.00    +0.000 A 
ATOM      8  N   UNL     1      -6.314  -0.703 128.445  0.00  0.00    +0.000 NA
ATOM      9  C   UNL     1      -7.135  -0.574 127.339  0.00  0.00    +0.000 A 
ATOM     10  C   UNL     1      -8.040  -1.579 126.985  0.00  0.00    +0.000 A 
ATOM     11  C   UNL     1      -8.103  -2.733 127.757  0.00  0.00    +0.000 A 
ATOM     12  C   UNL     1      -7.248  -2.869 128.848  0.00  0.00    +0.000 A 
ATOM     13  F   UNL     1      -7.341  -3.991 129.579  0.00  0.00    +0.000 F 
ATOM     14  C   UNL     1      -8.930  -1.444 125.803  0.00  0.00    +0.000 A 
ATOM     15  O   UNL     1      -9.710  -2.357 125.556  0.00  0.00    +0.000 OA
ATOM     16  C   UNL     1      -8.848  -0.215 124.964  0.00  0.00    +0.000 A 
ATOM     17  C   UNL     1      -7.941   0.680 125.386  0.00  0.00    +0.000 A 
ATOM     18  N   UNL     1      -7.090   0.584 126.481  0.00  0.00    +0.000 N 
ENDROOT
BRANCH  18  19
ATOM     19  C   UNL     1      -6.131   1.676 126.775  0.00  0.00    +0.000 C 
ATOM     20  C   UNL     1      -4.702   1.711 126.276  0.00  0.00    +0.000 C 
ATOM     21  C   UNL     1      -5.718   2.662 125.709  0.00  0.00    +0.000 C 
ENDBRANCH  18  19
BRANCH   1  23
ATOM     22  C   UNL     1      -5.647  -0.366 135.149  0.00  0.00    +0.000 C 
ATOM     23  O   UNL     1      -6.293  -1.169 134.149  0.00  0.00    +0.000 OA
ENDBRANCH   1  23
BRANCH  16  24
ATOM     24  C   UNL     1      -9.723  -0.035 123.770  0.00  0.00    +0.000 C 
ATOM     25  O   UNL     1     -10.443   0.944 123.602  0.00  0.00    +0.000 OA
BRANCH  24  26
ATOM     26  O   UNL     1      -9.715  -1.009 122.834  0.00  0.00    +0.000 OA
ATOM     27  H   UNL     1     -10.215  -0.908 122.010  0.00  0.00    +0.000 HD
ENDBRANCH  24  26
ENDBRANCH  16  24
BRANCH   6  28
ATOM     28  C   UNL     1      -4.495  -4.709 132.390  0.00  0.00    +0.000 C 
BRANCH  28  29
ATOM     29  N   UNL     1      -5.909  -4.955 132.647  0.00  0.00    +0.000 NA
ATOM     30  H   UNL     1      -6.362  -5.422 131.867  0.00  0.00    +0.000 HD
ATOM     31  H   UNL     1      -6.407  -4.093 132.849  0.00  0.00    +0.000 HD
ENDBRANCH  28  29
ENDBRANCH   6  28
TORSDOF 6
ENDMDL
MODEL 9
REMARK VINA RESULT:      -6.1      3.560      5.244
REMARK  Name = Gemifloxacin
REMARK  7 active torsions:
REMARK  status: ('A' for Active; 'I' for Inactive)
REMARK    1  A    between atoms: C_1  and  O_2
REMARK    2  A    between atoms: O_2  and  N_3
REMARK    3  A    between atoms: C_8  and  C_9
REMARK    4  A    between atoms: C_9  and  N_10
REMARK    5  A    between atoms: C_20  and  C_26
REMARK    6  A    between atoms: N_22  and  C_23
REMARK    7  A    between atoms: C_26  and  O_27
REMARK                            x       y       z     vdW  Elec       q    Type
REMARK                         _______ _______ _______ _____ _____    ______ ____
ROOT
ATOM      1  N   UNL     1      -4.082   5.283 131.323  0.00  0.00    +0.000 NA
ATOM      2  C   UNL     1      -5.056   4.420 131.414  0.00  0.00    +0.000 C 
ATOM      3  C   UNL     1      -5.058   2.946 131.029  0.00  0.00    +0.000 C 
ATOM      4  N   UNL     1      -6.471   2.732 130.710  0.00  0.00    +0.000 N 
ATOM      5  C   UNL     1      -7.320   3.655 131.470  0.00  0.00    +0.000 C 
ATOM      6  C   UNL     1      -6.408   4.792 132.012  0.00  0.00    +0.000 C 
ATOM      7  C   UNL     1      -6.917   1.925 129.679  0.00  0.00    +0.000 A 
ATOM      8  N   UNL     1      -6.705   0.573 129.744  0.00  0.00    +0.000 NA
ATOM      9  C   UNL     1      -7.221  -0.259 128.766  0.00  0.00    +0.000 A 
ATOM     10  C   UNL     1      -7.924   0.254 127.673  0.00  0.00    +0.000 A 
ATOM     11  C   UNL     1      -8.114   1.628 127.577  0.00  0.00    +0.000 A 
ATOM     12  C   UNL     1      -7.622   2.454 128.584  0.00  0.00    +0.000 A 
ATOM     13  F   UNL     1      -7.814   3.777 128.457  0.00  0.00    +0.000 F 
ATOM     14  C   UNL     1      -8.474  -0.633 126.616  0.00  0.00    +0.000 A 
ATOM     15  O   UNL     1      -9.070  -0.117 125.676  0.00  0.00    +0.000 OA
ATOM     16  C   UNL     1      -8.286  -2.106 126.728  0.00  0.00    +0.000 A 
ATOM     17  C   UNL     1      -7.608  -2.493 127.819  0.00  0.00    +0.000 A 
ATOM     18  N   UNL     1      -7.084  -1.693 128.829  0.00  0.00    +0.000 N 
ENDROOT
BRANCH  18  19
ATOM     19  C   UNL     1      -6.379  -2.312 129.977  0.00  0.00    +0.000 C 
ATOM     20  C   UNL     1      -7.070  -2.830 131.221  0.00  0.00    +0.000 C 
ATOM     21  C   UNL     1      -6.466  -3.796 130.241  0.00  0.00    +0.000 C 
ENDBRANCH  18  19
BRANCH   1  23
ATOM     22  C   UNL     1      -2.700   5.444 129.475  0.00  0.00    +0.000 C 
ATOM     23  O   UNL     1      -2.929   4.762 130.717  0.00  0.00    +0.000 OA
ENDBRANCH   1  23
BRANCH  16  24
ATOM     24  C   UNL     1      -8.820  -3.035 125.690  0.00  0.00    +0.000 C 
ATOM     25  O   UNL     1      -8.127  -3.856 125.098  0.00  0.00    +0.000 OA
BRANCH  24  26
ATOM     26  O   UNL     1     -10.135  -2.955 125.393  0.00  0.00    +0.000 OA
ATOM     27  H   UNL     1     -10.495  -2.179 124.937  0.00  0.00    +0.000 HD
ENDBRANCH  24  26
ENDBRANCH  16  24
BRANCH   6  28
ATOM     28  C   UNL     1      -6.936   6.171 131.621  0.00  0.00    +0.000 C 
BRANCH  28  29
ATOM     29  N   UNL     1      -6.578   6.544 130.258  0.00  0.00    +0.000 NA
ATOM     30  H   UNL     1      -6.847   7.500 130.042  0.00  0.00    +0.000 HD
ATOM     31  H   UNL     1      -7.002   5.921 129.576  0.00  0.00    +0.000 HD
ENDBRANCH  28  29
ENDBRANCH   6  28
TORSDOF 6
ENDMDL
