MODEL 1
REMARK VINA RESULT:      -8.0      0.000      0.000
REMARK  Name = Gentian violet cation
REMARK  10 active torsions:
REMARK  status: ('A' for Active; 'I' for Inactive)
REMARK    1  A    between atoms: C_1  and  N_2
REMARK    2  A    between atoms: N_2  and  C_3
REMARK    3  A    between atoms: N_2  and  C_4
REMARK    4  A    between atoms: C_7  and  C_10
REMARK    5  A    between atoms: C_10  and  C_11
REMARK    6  A    between atoms: C_14  and  N_17
REMARK    7  A    between atoms: N_17  and  C_18
REMARK    8  A    between atoms: N_17  and  C_19
REMARK    9  A    between atoms: N_26  and  C_27
REMARK   10  A    between atoms: N_26  and  C_28
REMARK                            x       y       z     vdW  Elec       q    Type
REMARK                         _______ _______ _______ _____ _____    ______ ____
ROOT
ATOM      1  C   UNL     1      -6.624   2.304 124.403  0.00  0.00    +0.000 C 
ATOM      2  C   UNL     1      -6.672   0.938 124.477  0.00  0.00    +0.000 C 
ATOM      3  C   UNL     1      -6.170   0.177 125.609  0.00  0.00    +0.000 C 
ATOM      4  C   UNL     1      -6.719  -0.963 126.003  0.00  0.00    +0.000 C 
ATOM      5  C   UNL     1      -7.662  -1.666 125.084  0.00  0.00    +0.000 C 
ATOM      6  C   UNL     1      -7.638  -1.143 123.668  0.00  0.00    +0.000 C 
ATOM      7  C   UNL     1      -7.155   0.076 123.399  0.00  0.00    +0.000 C 
ATOM      8  N   UNL     1      -8.350  -2.695 125.462  0.00  0.00    +0.000 N 
ATOM      9  C   UNL     1      -8.361  -3.220 126.872  0.00  0.00    +0.000 C 
ATOM     10  C   UNL     1      -9.216  -3.487 124.534  0.00  0.00    +0.000 C 
ENDROOT
BRANCH   1  14
ATOM     11  C   UNL     1      -4.994   4.628 127.736  0.00  0.00    +0.000 A 
ATOM     12  C   UNL     1      -4.238   4.317 126.603  0.00  0.00    +0.000 A 
ATOM     13  C   UNL     1      -4.789   3.648 125.507  0.00  0.00    +0.000 A 
ATOM     14  C   UNL     1      -6.109   3.198 125.520  0.00  0.00    +0.000 A 
ATOM     15  C   UNL     1      -6.863   3.618 126.621  0.00  0.00    +0.000 A 
ATOM     16  C   UNL     1      -6.310   4.209 127.749  0.00  0.00    +0.000 A 
BRANCH  11  18
ATOM     17  C   UNL     1      -3.584   6.525 128.433  0.00  0.00    +0.000 C 
ATOM     18  N   UNL     1      -4.471   5.419 128.742  0.00  0.00    +0.000 N 
ATOM     19  C   UNL     1      -4.438   4.813 130.067  0.00  0.00    +0.000 C 
ENDBRANCH  11  18
ENDBRANCH   1  14
BRANCH   1  20
ATOM     20  C   UNL     1      -7.003   2.902 123.077  0.00  0.00    +0.000 A 
ATOM     21  C   UNL     1      -8.330   3.054 122.689  0.00  0.00    +0.000 A 
ATOM     22  C   UNL     1      -8.641   3.434 121.378  0.00  0.00    +0.000 A 
ATOM     23  C   UNL     1      -7.669   3.851 120.452  0.00  0.00    +0.000 A 
ATOM     24  C   UNL     1      -6.340   3.722 120.888  0.00  0.00    +0.000 A 
ATOM     25  C   UNL     1      -6.008   3.235 122.157  0.00  0.00    +0.000 A 
BRANCH  23  26
ATOM     26  N   UNL     1      -8.002   4.332 119.196  0.00  0.00    +0.000 N 
ATOM     27  C   UNL     1      -9.389   4.466 118.742  0.00  0.00    +0.000 C 
ATOM     28  C   UNL     1      -7.030   5.007 118.329  0.00  0.00    +0.000 C 
ENDBRANCH  23  26
ENDBRANCH   1  20
TORSDOF 4
ENDMDL
MODEL 2
REMARK VINA RESULT:      -7.8      1.119      6.487
REMARK  Name = Gentian violet cation
REMARK  10 active torsions:
REMARK  status: ('A' for Active; 'I' for Inactive)
REMARK    1  A    between atoms: C_1  and  N_2
REMARK    2  A    between atoms: N_2  and  C_3
REMARK    3  A    between atoms: N_2  and  C_4
REMARK    4  A    between atoms: C_7  and  C_10
REMARK    5  A    between atoms: C_10  and  C_11
REMARK    6  A    between atoms: C_14  and  N_17
REMARK    7  A    between atoms: N_17  and  C_18
REMARK    8  A    between atoms: N_17  and  C_19
REMARK    9  A    between atoms: N_26  and  C_27
REMARK   10  A    between atoms: N_26  and  C_28
REMARK                            x       y       z     vdW  Elec       q    Type
REMARK                         _______ _______ _______ _____ _____    ______ ____
ROOT
ATOM      1  C   UNL     1      -6.866   2.414 124.446  0.00  0.00    +0.000 C 
ATOM      2  C   UNL     1      -7.711   1.391 124.785  0.00  0.00    +0.000 C 
ATOM      3  C   UNL     1      -8.740   0.872 123.900  0.00  0.00    +0.000 C 
ATOM      4  C   UNL     1      -9.108  -0.401 123.902  0.00  0.00    +0.000 C 
ATOM      5  C   UNL     1      -8.709  -1.267 125.051  0.00  0.00    +0.000 C 
ATOM      6  C   UNL     1      -8.188  -0.498 126.242  0.00  0.00    +0.000 C 
ATOM      7  C   UNL     1      -7.738   0.754 126.101  0.00  0.00    +0.000 C 
ATOM      8  N   UNL     1      -8.899  -2.547 125.045  0.00  0.00    +0.000 N 
ATOM      9  C   UNL     1      -9.429  -3.306 123.859  0.00  0.00    +0.000 C 
ATOM     10  C   UNL     1      -8.613  -3.422 126.223  0.00  0.00    +0.000 C 
ENDROOT
BRANCH   1  14
ATOM     11  C   UNL     1      -6.816   4.056 120.387  0.00  0.00    +0.000 A 
ATOM     12  C   UNL     1      -7.987   3.588 120.989  0.00  0.00    +0.000 A 
ATOM     13  C   UNL     1      -8.012   3.143 122.313  0.00  0.00    +0.000 A 
ATOM     14  C   UNL     1      -6.849   3.083 123.081  0.00  0.00    +0.000 A 
ATOM     15  C   UNL     1      -5.720   3.656 122.484  0.00  0.00    +0.000 A 
ATOM     16  C   UNL     1      -5.663   4.025 121.147  0.00  0.00    +0.000 A 
BRANCH  11  18
ATOM     17  C   UNL     1      -5.892   5.658 118.759  0.00  0.00    +0.000 C 
ATOM     18  N   UNL     1      -6.845   4.629 119.130  0.00  0.00    +0.000 N 
ATOM     19  C   UNL     1      -8.116   4.530 118.422  0.00  0.00    +0.000 C 
ENDBRANCH  11  18
ENDBRANCH   1  14
BRANCH   1  20
ATOM     20  C   UNL     1      -6.006   2.949 125.555  0.00  0.00    +0.000 A 
ATOM     21  C   UNL     1      -6.291   4.150 126.196  0.00  0.00    +0.000 A 
ATOM     22  C   UNL     1      -5.369   4.710 127.087  0.00  0.00    +0.000 A 
ATOM     23  C   UNL     1      -4.216   4.032 127.519  0.00  0.00    +0.000 A 
ATOM     24  C   UNL     1      -3.975   2.804 126.882  0.00  0.00    +0.000 A 
ATOM     25  C   UNL     1      -4.829   2.284 125.903  0.00  0.00    +0.000 A 
BRANCH  23  26
ATOM     26  N   UNL     1      -3.370   4.552 128.487  0.00  0.00    +0.000 N 
ATOM     27  C   UNL     1      -2.480   5.687 128.232  0.00  0.00    +0.000 C 
ATOM     28  C   UNL     1      -3.494   4.207 129.907  0.00  0.00    +0.000 C 
ENDBRANCH  23  26
ENDBRANCH   1  20
TORSDOF 4
ENDMDL
MODEL 3
REMARK VINA RESULT:      -7.4      7.446     11.136
REMARK  Name = Gentian violet cation
REMARK  10 active torsions:
REMARK  status: ('A' for Active; 'I' for Inactive)
REMARK    1  A    between atoms: C_1  and  N_2
REMARK    2  A    between atoms: N_2  and  C_3
REMARK    3  A    between atoms: N_2  and  C_4
REMARK    4  A    between atoms: C_7  and  C_10
REMARK    5  A    between atoms: C_10  and  C_11
REMARK    6  A    between atoms: C_14  and  N_17
REMARK    7  A    between atoms: N_17  and  C_18
REMARK    8  A    between atoms: N_17  and  C_19
REMARK    9  A    between atoms: N_26  and  C_27
REMARK   10  A    between atoms: N_26  and  C_28
REMARK                            x       y       z     vdW  Elec       q    Type
REMARK                         _______ _______ _______ _____ _____    ______ ____
ROOT
ATOM      1  C   UNL     1      -8.184   4.928 132.980  0.00  0.00    +0.000 C 
ATOM      2  C   UNL     1      -8.246   3.560 132.973  0.00  0.00    +0.000 C 
ATOM      3  C   UNL     1      -9.201   2.804 132.180  0.00  0.00    +0.000 C 
ATOM      4  C   UNL     1      -8.920   1.615 131.667  0.00  0.00    +0.000 C 
ATOM      5  C   UNL     1      -7.729   0.872 132.175  0.00  0.00    +0.000 C 
ATOM      6  C   UNL     1      -7.154   1.440 133.450  0.00  0.00    +0.000 C 
ATOM      7  C   UNL     1      -7.420   2.698 133.817  0.00  0.00    +0.000 C 
ATOM      8  N   UNL     1      -7.309  -0.217 131.615  0.00  0.00    +0.000 N 
ATOM      9  C   UNL     1      -7.893  -0.784 130.350  0.00  0.00    +0.000 C 
ATOM     10  C   UNL     1      -6.189  -1.041 132.167  0.00  0.00    +0.000 C 
ENDROOT
BRANCH   1  14
ATOM     11  C   UNL     1     -10.792   7.245 130.335  0.00  0.00    +0.000 A 
ATOM     12  C   UNL     1     -11.271   6.604 131.480  0.00  0.00    +0.000 A 
ATOM     13  C   UNL     1     -10.419   5.937 132.365  0.00  0.00    +0.000 A 
ATOM     14  C   UNL     1      -9.052   5.822 132.110  0.00  0.00    +0.000 A 
ATOM     15  C   UNL     1      -8.594   6.563 131.014  0.00  0.00    +0.000 A 
ATOM     16  C   UNL     1      -9.436   7.159 130.085  0.00  0.00    +0.000 A 
BRANCH  11  18
ATOM     17  C   UNL     1     -11.175   8.563 128.288  0.00  0.00    +0.000 C 
ATOM     18  N   UNL     1     -11.628   8.023 129.556  0.00  0.00    +0.000 N 
ATOM     19  C   UNL     1     -12.731   8.663 130.262  0.00  0.00    +0.000 C 
ENDBRANCH  11  18
ENDBRANCH   1  14
BRANCH   1  20
ATOM     20  C   UNL     1      -7.273   5.537 134.008  0.00  0.00    +0.000 A 
ATOM     21  C   UNL     1      -5.937   5.814 133.739  0.00  0.00    +0.000 A 
ATOM     22  C   UNL     1      -5.075   6.200 134.771  0.00  0.00    +0.000 A 
ATOM     23  C   UNL     1      -5.524   6.501 136.069  0.00  0.00    +0.000 A 
ATOM     24  C   UNL     1      -6.885   6.247 136.300  0.00  0.00    +0.000 A 
ATOM     25  C   UNL     1      -7.738   5.752 135.307  0.00  0.00    +0.000 A 
BRANCH  23  26
ATOM     26  N   UNL     1      -4.676   6.990 137.051  0.00  0.00    +0.000 N 
ATOM     27  C   UNL     1      -4.280   8.399 137.123  0.00  0.00    +0.000 C 
ATOM     28  C   UNL     1      -4.334   6.218 138.250  0.00  0.00    +0.000 C 
ENDBRANCH  23  26
ENDBRANCH   1  20
TORSDOF 4
ENDMDL
MODEL 4
REMARK VINA RESULT:      -7.4      1.685      7.920
REMARK  Name = Gentian violet cation
REMARK  10 active torsions:
REMARK  status: ('A' for Active; 'I' for Inactive)
REMARK    1  A    between atoms: C_1  and  N_2
REMARK    2  A    between atoms: N_2  and  C_3
REMARK    3  A    between atoms: N_2  and  C_4
REMARK    4  A    between atoms: C_7  and  C_10
REMARK    5  A    between atoms: C_10  and  C_11
REMARK    6  A    between atoms: C_14  and  N_17
REMARK    7  A    between atoms: N_17  and  C_18
REMARK    8  A    between atoms: N_17  and  C_19
REMARK    9  A    between atoms: N_26  and  C_27
REMARK   10  A    between atoms: N_26  and  C_28
REMARK                            x       y       z     vdW  Elec       q    Type
REMARK                         _______ _______ _______ _____ _____    ______ ____
ROOT
ATOM      1  C   UNL     1      -5.534   2.097 126.085  0.00  0.00    +0.000 C 
ATOM      2  C   UNL     1      -4.527   2.637 126.840  0.00  0.00    +0.000 C 
ATOM      3  C   UNL     1      -3.693   3.740 126.395  0.00  0.00    +0.000 C 
ATOM      4  C   UNL     1      -3.200   4.645 127.229  0.00  0.00    +0.000 C 
ATOM      5  C   UNL     1      -3.216   4.361 128.694  0.00  0.00    +0.000 C 
ATOM      6  C   UNL     1      -3.514   2.921 129.034  0.00  0.00    +0.000 C 
ATOM      7  C   UNL     1      -4.116   2.121 128.146  0.00  0.00    +0.000 C 
ATOM      8  N   UNL     1      -2.897   5.259 129.571  0.00  0.00    +0.000 N 
ATOM      9  C   UNL     1      -2.589   6.691 129.225  0.00  0.00    +0.000 C 
ATOM     10  C   UNL     1      -2.795   4.972 131.035  0.00  0.00    +0.000 C 
ENDROOT
BRANCH   1  14
ATOM     11  C   UNL     1      -6.543   3.414 122.034  0.00  0.00    +0.000 A 
ATOM     12  C   UNL     1      -7.107   2.272 122.609  0.00  0.00    +0.000 A 
ATOM     13  C   UNL     1      -6.844   1.904 123.932  0.00  0.00    +0.000 A 
ATOM     14  C   UNL     1      -5.951   2.627 124.723  0.00  0.00    +0.000 A 
ATOM     15  C   UNL     1      -5.490   3.818 124.152  0.00  0.00    +0.000 A 
ATOM     16  C   UNL     1      -5.677   4.152 122.817  0.00  0.00    +0.000 A 
BRANCH  11  18
ATOM     17  C   UNL     1      -6.055   4.666 119.967  0.00  0.00    +0.000 C 
ATOM     18  N   UNL     1      -6.932   3.840 120.777  0.00  0.00    +0.000 N 
ATOM     19  C   UNL     1      -8.369   3.855 120.535  0.00  0.00    +0.000 C 
ENDBRANCH  11  18
ENDBRANCH   1  14
BRANCH   1  20
ATOM     20  C   UNL     1      -6.154   0.839 126.623  0.00  0.00    +0.000 A 
ATOM     21  C   UNL     1      -5.641  -0.420 126.330  0.00  0.00    +0.000 A 
ATOM     22  C   UNL     1      -6.352  -1.572 126.687  0.00  0.00    +0.000 A 
ATOM     23  C   UNL     1      -7.499  -1.541 127.499  0.00  0.00    +0.000 A 
ATOM     24  C   UNL     1      -7.971  -0.255 127.810  0.00  0.00    +0.000 A 
ATOM     25  C   UNL     1      -7.335   0.909 127.364  0.00  0.00    +0.000 A 
BRANCH  23  26
ATOM     26  N   UNL     1      -8.127  -2.695 127.938  0.00  0.00    +0.000 N 
ATOM     27  C   UNL     1      -8.880  -3.576 127.041  0.00  0.00    +0.000 C 
ATOM     28  C   UNL     1      -7.861  -3.283 129.255  0.00  0.00    +0.000 C 
ENDBRANCH  23  26
ENDBRANCH   1  20
TORSDOF 4
ENDMDL
MODEL 5
REMARK VINA RESULT:      -7.3      5.903      9.866
REMARK  Name = Gentian violet cation
REMARK  10 active torsions:
REMARK  status: ('A' for Active; 'I' for Inactive)
REMARK    1  A    between atoms: C_1  and  N_2
REMARK    2  A    between atoms: N_2  and  C_3
REMARK    3  A    between atoms: N_2  and  C_4
REMARK    4  A    between atoms: C_7  and  C_10
REMARK    5  A    between atoms: C_10  and  C_11
REMARK    6  A    between atoms: C_14  and  N_17
REMARK    7  A    between atoms: N_17  and  C_18
REMARK    8  A    between atoms: N_17  and  C_19
REMARK    9  A    between atoms: N_26  and  C_27
REMARK   10  A    between atoms: N_26  and  C_28
REMARK                            x       y       z     vdW  Elec       q    Type
REMARK                         _______ _______ _______ _____ _____    ______ ____
ROOT
ATOM      1  C   UNL     1      -7.192  -1.742 130.655  0.00  0.00    +0.000 C 
ATOM      2  C   UNL     1      -6.683  -2.492 131.681  0.00  0.00    +0.000 C 
ATOM      3  C   UNL     1      -6.301  -3.887 131.544  0.00  0.00    +0.000 C 
ATOM      4  C   UNL     1      -5.301  -4.425 132.227  0.00  0.00    +0.000 C 
ATOM      5  C   UNL     1      -4.755  -3.690 133.406  0.00  0.00    +0.000 C 
ATOM      6  C   UNL     1      -5.627  -2.549 133.872  0.00  0.00    +0.000 C 
ATOM      7  C   UNL     1      -6.538  -2.009 133.054  0.00  0.00    +0.000 C 
ATOM      8  N   UNL     1      -3.684  -4.079 134.022  0.00  0.00    +0.000 N 
ATOM      9  C   UNL     1      -2.825  -5.224 133.559  0.00  0.00    +0.000 C 
ATOM     10  C   UNL     1      -3.178  -3.430 135.271  0.00  0.00    +0.000 C 
ENDROOT
BRANCH   1  14
ATOM     11  C   UNL     1      -7.767  -2.924 126.478  0.00  0.00    +0.000 A 
ATOM     12  C   UNL     1      -6.663  -2.177 126.897  0.00  0.00    +0.000 A 
ATOM     13  C   UNL     1      -6.442  -1.874 128.244  0.00  0.00    +0.000 A 
ATOM     14  C   UNL     1      -7.353  -2.250 129.231  0.00  0.00    +0.000 A 
ATOM     15  C   UNL     1      -8.387  -3.084 128.791  0.00  0.00    +0.000 A 
ATOM     16  C   UNL     1      -8.663  -3.323 127.451  0.00  0.00    +0.000 A 
BRANCH  11  18
ATOM     17  C   UNL     1      -6.726  -3.386 124.292  0.00  0.00    +0.000 C 
ATOM     18  N   UNL     1      -7.886  -3.337 125.164  0.00  0.00    +0.000 N 
ATOM     19  C   UNL     1      -9.220  -3.230 124.589  0.00  0.00    +0.000 C 
ENDBRANCH  11  18
ENDBRANCH   1  14
BRANCH   1  20
ATOM     20  C   UNL     1      -7.715  -0.385 131.031  0.00  0.00    +0.000 A 
ATOM     21  C   UNL     1      -6.916   0.752 130.986  0.00  0.00    +0.000 A 
ATOM     22  C   UNL     1      -7.378   1.960 131.523  0.00  0.00    +0.000 A 
ATOM     23  C   UNL     1      -8.700   2.144 131.963  0.00  0.00    +0.000 A 
ATOM     24  C   UNL     1      -9.494   0.986 131.961  0.00  0.00    +0.000 A 
ATOM     25  C   UNL     1      -9.011  -0.257 131.533  0.00  0.00    +0.000 A 
BRANCH  23  26
ATOM     26  N   UNL     1      -9.174   3.376 132.388  0.00  0.00    +0.000 N 
ATOM     27  C   UNL     1      -9.127   3.800 133.789  0.00  0.00    +0.000 C 
ATOM     28  C   UNL     1      -9.497   4.459 131.453  0.00  0.00    +0.000 C 
ENDBRANCH  23  26
ENDBRANCH   1  20
TORSDOF 4
ENDMDL
MODEL 6
REMARK VINA RESULT:      -7.2      5.702     11.065
REMARK  Name = Gentian violet cation
REMARK  10 active torsions:
REMARK  status: ('A' for Active; 'I' for Inactive)
REMARK    1  A    between atoms: C_1  and  N_2
REMARK    2  A    between atoms: N_2  and  C_3
REMARK    3  A    between atoms: N_2  and  C_4
REMARK    4  A    between atoms: C_7  and  C_10
REMARK    5  A    between atoms: C_10  and  C_11
REMARK    6  A    between atoms: C_14  and  N_17
REMARK    7  A    between atoms: N_17  and  C_18
REMARK    8  A    between atoms: N_17  and  C_19
REMARK    9  A    between atoms: N_26  and  C_27
REMARK   10  A    between atoms: N_26  and  C_28
REMARK                            x       y       z     vdW  Elec       q    Type
REMARK                         _______ _______ _______ _____ _____    ______ ____
ROOT
ATOM      1  C   UNL     1      -7.219  -2.017 130.208  0.00  0.00    +0.000 C 
ATOM      2  C   UNL     1      -7.280  -0.714 130.624  0.00  0.00    +0.000 C 
ATOM      3  C   UNL     1      -7.458   0.410 129.719  0.00  0.00    +0.000 C 
ATOM      4  C   UNL     1      -8.116   1.507 130.065  0.00  0.00    +0.000 C 
ATOM      5  C   UNL     1      -8.403   1.753 131.509  0.00  0.00    +0.000 C 
ATOM      6  C   UNL     1      -7.626   0.860 132.446  0.00  0.00    +0.000 C 
ATOM      7  C   UNL     1      -7.092  -0.287 132.010  0.00  0.00    +0.000 C 
ATOM      8  N   UNL     1      -9.171   2.718 131.902  0.00  0.00    +0.000 N 
ATOM      9  C   UNL     1      -9.934   3.612 130.963  0.00  0.00    +0.000 C 
ATOM     10  C   UNL     1      -9.387   3.057 133.343  0.00  0.00    +0.000 C 
ENDROOT
BRANCH   1  14
ATOM     11  C   UNL     1      -7.830  -2.991 125.983  0.00  0.00    +0.000 A 
ATOM     12  C   UNL     1      -6.670  -2.363 126.444  0.00  0.00    +0.000 A 
ATOM     13  C   UNL     1      -6.445  -2.130 127.804  0.00  0.00    +0.000 A 
ATOM     14  C   UNL     1      -7.402  -2.457 128.765  0.00  0.00    +0.000 A 
ATOM     15  C   UNL     1      -8.500  -3.177 128.280  0.00  0.00    +0.000 A 
ATOM     16  C   UNL     1      -8.774  -3.342 126.928  0.00  0.00    +0.000 A 
BRANCH  11  18
ATOM     17  C   UNL     1      -6.849  -3.210 123.733  0.00  0.00    +0.000 C 
ATOM     18  N   UNL     1      -7.963  -3.344 124.654  0.00  0.00    +0.000 N 
ATOM     19  C   UNL     1      -9.328  -3.364 124.142  0.00  0.00    +0.000 C 
ENDBRANCH  11  18
ENDBRANCH   1  14
BRANCH   1  20
ATOM     20  C   UNL     1      -6.831  -3.022 131.256  0.00  0.00    +0.000 A 
ATOM     21  C   UNL     1      -7.483  -3.098 132.482  0.00  0.00    +0.000 A 
ATOM     22  C   UNL     1      -6.974  -3.911 133.501  0.00  0.00    +0.000 A 
ATOM     23  C   UNL     1      -5.914  -4.812 133.302  0.00  0.00    +0.000 A 
ATOM     24  C   UNL     1      -5.301  -4.738 132.041  0.00  0.00    +0.000 A 
ATOM     25  C   UNL     1      -5.726  -3.848 131.048  0.00  0.00    +0.000 A 
BRANCH  23  26
ATOM     26  N   UNL     1      -5.495  -5.691 134.288  0.00  0.00    +0.000 N 
ATOM     27  C   UNL     1      -4.133  -6.228 134.341  0.00  0.00    +0.000 C 
ATOM     28  C   UNL     1      -6.273  -5.936 135.507  0.00  0.00    +0.000 C 
ENDBRANCH  23  26
ENDBRANCH   1  20
TORSDOF 4
ENDMDL
MODEL 7
REMARK VINA RESULT:      -7.1      5.524      9.461
REMARK  Name = Gentian violet cation
REMARK  10 active torsions:
REMARK  status: ('A' for Active; 'I' for Inactive)
REMARK    1  A    between atoms: C_1  and  N_2
REMARK    2  A    between atoms: N_2  and  C_3
REMARK    3  A    between atoms: N_2  and  C_4
REMARK    4  A    between atoms: C_7  and  C_10
REMARK    5  A    between atoms: C_10  and  C_11
REMARK    6  A    between atoms: C_14  and  N_17
REMARK    7  A    between atoms: N_17  and  C_18
REMARK    8  A    between atoms: N_17  and  C_19
REMARK    9  A    between atoms: N_26  and  C_27
REMARK   10  A    between atoms: N_26  and  C_28
REMARK                            x       y       z     vdW  Elec       q    Type
REMARK                         _______ _______ _______ _____ _____    ______ ____
ROOT
ATOM      1  C   UNL     1      -7.282  -2.169 130.520  0.00  0.00    +0.000 C 
ATOM      2  C   UNL     1      -7.695  -0.911 130.870  0.00  0.00    +0.000 C 
ATOM      3  C   UNL     1      -7.815  -0.460 132.246  0.00  0.00    +0.000 C 
ATOM      4  C   UNL     1      -7.592   0.796 132.608  0.00  0.00    +0.000 C 
ATOM      5  C   UNL     1      -7.537   1.852 131.555  0.00  0.00    +0.000 C 
ATOM      6  C   UNL     1      -8.058   1.402 130.212  0.00  0.00    +0.000 C 
ATOM      7  C   UNL     1      -8.140   0.101 129.913  0.00  0.00    +0.000 C 
ATOM      8  N   UNL     1      -7.171   3.066 131.818  0.00  0.00    +0.000 N 
ATOM      9  C   UNL     1      -6.663   3.511 133.163  0.00  0.00    +0.000 C 
ATOM     10  C   UNL     1      -7.214   4.170 130.810  0.00  0.00    +0.000 C 
ENDROOT
BRANCH   1  14
ATOM     11  C   UNL     1      -5.810  -4.984 133.533  0.00  0.00    +0.000 A 
ATOM     12  C   UNL     1      -6.843  -4.081 133.797  0.00  0.00    +0.000 A 
ATOM     13  C   UNL     1      -7.364  -3.244 132.807  0.00  0.00    +0.000 A 
ATOM     14  C   UNL     1      -6.831  -3.223 131.518  0.00  0.00    +0.000 A 
ATOM     15  C   UNL     1      -5.873  -4.211 131.262  0.00  0.00    +0.000 A 
ATOM     16  C   UNL     1      -5.291  -4.991 132.253  0.00  0.00    +0.000 A 
BRANCH  11  18
ATOM     17  C   UNL     1      -6.210  -6.134 135.676  0.00  0.00    +0.000 C 
ATOM     18  N   UNL     1      -5.413  -5.905 134.485  0.00  0.00    +0.000 N 
ATOM     19  C   UNL     1      -3.993  -6.232 134.490  0.00  0.00    +0.000 C 
ENDBRANCH  11  18
ENDBRANCH   1  14
BRANCH   1  20
ATOM     20  C   UNL     1      -7.411  -2.520 129.065  0.00  0.00    +0.000 A 
ATOM     21  C   UNL     1      -6.481  -2.100 128.120  0.00  0.00    +0.000 A 
ATOM     22  C   UNL     1      -6.733  -2.281 126.755  0.00  0.00    +0.000 A 
ATOM     23  C   UNL     1      -7.816  -3.035 126.271  0.00  0.00    +0.000 A 
ATOM     24  C   UNL     1      -8.718  -3.477 127.253  0.00  0.00    +0.000 A 
ATOM     25  C   UNL     1      -8.540  -3.206 128.614  0.00  0.00    +0.000 A 
BRANCH  23  26
ATOM     26  N   UNL     1      -7.990  -3.300 124.922  0.00  0.00    +0.000 N 
ATOM     27  C   UNL     1      -9.305  -3.283 124.276  0.00  0.00    +0.000 C 
ATOM     28  C   UNL     1      -6.870  -3.338 123.977  0.00  0.00    +0.000 C 
ENDBRANCH  23  26
ENDBRANCH   1  20
TORSDOF 4
ENDMDL
MODEL 8
REMARK VINA RESULT:      -7.0      5.755      8.212
REMARK  Name = Gentian violet cation
REMARK  10 active torsions:
REMARK  status: ('A' for Active; 'I' for Inactive)
REMARK    1  A    between atoms: C_1  and  N_2
REMARK    2  A    between atoms: N_2  and  C_3
REMARK    3  A    between atoms: N_2  and  C_4
REMARK    4  A    between atoms: C_7  and  C_10
REMARK    5  A    between atoms: C_10  and  C_11
REMARK    6  A    between atoms: C_14  and  N_17
REMARK    7  A    between atoms: N_17  and  C_18
REMARK    8  A    between atoms: N_17  and  C_19
REMARK    9  A    between atoms: N_26  and  C_27
REMARK   10  A    between atoms: N_26  and  C_28
REMARK                            x       y       z     vdW  Elec       q    Type
REMARK                         _______ _______ _______ _____ _____    ______ ____
ROOT
ATOM      1  C   UNL     1      -7.563  -1.035 130.672  0.00  0.00    +0.000 C 
ATOM      2  C   UNL     1      -6.936  -1.715 131.681  0.00  0.00    +0.000 C 
ATOM      3  C   UNL     1      -6.829  -1.215 133.042  0.00  0.00    +0.000 C 
ATOM      4  C   UNL     1      -6.825  -2.015 134.099  0.00  0.00    +0.000 C 
ATOM      5  C   UNL     1      -6.593  -3.475 133.899  0.00  0.00    +0.000 C 
ATOM      6  C   UNL     1      -6.074  -3.828 132.525  0.00  0.00    +0.000 C 
ATOM      7  C   UNL     1      -6.230  -2.983 131.500  0.00  0.00    +0.000 C 
ATOM      8  N   UNL     1      -6.729  -4.331 134.861  0.00  0.00    +0.000 N 
ATOM      9  C   UNL     1      -7.236  -3.971 136.231  0.00  0.00    +0.000 C 
ATOM     10  C   UNL     1      -6.395  -5.782 134.719  0.00  0.00    +0.000 C 
ENDROOT
BRANCH   1  14
ATOM     11  C   UNL     1      -9.411   2.865 131.407  0.00  0.00    +0.000 A 
ATOM     12  C   UNL     1      -8.363   2.695 130.499  0.00  0.00    +0.000 A 
ATOM     13  C   UNL     1      -7.834   1.435 130.207  0.00  0.00    +0.000 A 
ATOM     14  C   UNL     1      -8.285   0.289 130.861  0.00  0.00    +0.000 A 
ATOM     15  C   UNL     1      -9.402   0.482 131.682  0.00  0.00    +0.000 A 
ATOM     16  C   UNL     1      -9.883   1.733 132.042  0.00  0.00    +0.000 A 
BRANCH  11  18
ATOM     17  C   UNL     1     -10.771   4.702 130.485  0.00  0.00    +0.000 C 
ATOM     18  N   UNL     1     -10.017   4.097 131.568  0.00  0.00    +0.000 N 
ATOM     19  C   UNL     1      -9.465   4.937 132.623  0.00  0.00    +0.000 C 
ENDBRANCH  11  18
ENDBRANCH   1  14
BRANCH   1  20
ATOM     20  C   UNL     1      -7.399  -1.611 129.294  0.00  0.00    +0.000 A 
ATOM     21  C   UNL     1      -6.386  -1.195 128.436  0.00  0.00    +0.000 A 
ATOM     22  C   UNL     1      -6.380  -1.610 127.099  0.00  0.00    +0.000 A 
ATOM     23  C   UNL     1      -7.260  -2.585 126.598  0.00  0.00    +0.000 A 
ATOM     24  C   UNL     1      -8.248  -3.013 127.499  0.00  0.00    +0.000 A 
ATOM     25  C   UNL     1      -8.338  -2.522 128.807  0.00  0.00    +0.000 A 
BRANCH  23  26
ATOM     26  N   UNL     1      -7.169  -3.068 125.302  0.00  0.00    +0.000 N 
ATOM     27  C   UNL     1      -5.931  -3.007 124.521  0.00  0.00    +0.000 C 
ATOM     28  C   UNL     1      -8.200  -3.926 124.708  0.00  0.00    +0.000 C 
ENDBRANCH  23  26
ENDBRANCH   1  20
TORSDOF 4
ENDMDL
MODEL 9
REMARK VINA RESULT:      -6.9      4.027      7.143
REMARK  Name = Gentian violet cation
REMARK  10 active torsions:
REMARK  status: ('A' for Active; 'I' for Inactive)
REMARK    1  A    between atoms: C_1  and  N_2
REMARK    2  A    between atoms: N_2  and  C_3
REMARK    3  A    between atoms: N_2  and  C_4
REMARK    4  A    between atoms: C_7  and  C_10
REMARK    5  A    between atoms: C_10  and  C_11
REMARK    6  A    between atoms: C_14  and  N_17
REMARK    7  A    between atoms: N_17  and  C_18
REMARK    8  A    between atoms: N_17  and  C_19
REMARK    9  A    between atoms: N_26  and  C_27
REMARK   10  A    between atoms: N_26  and  C_28
REMARK                            x       y       z     vdW  Elec       q    Type
REMARK                         _______ _______ _______ _____ _____    ______ ____
ROOT
ATOM      1  C   UNL     1      -7.715   1.024 128.698  0.00  0.00    +0.000 C 
ATOM      2  C   UNL     1      -8.486   1.655 129.638  0.00  0.00    +0.000 C 
ATOM      3  C   UNL     1      -8.697   1.140 130.980  0.00  0.00    +0.000 C 
ATOM      4  C   UNL     1      -8.862   1.931 132.031  0.00  0.00    +0.000 C 
ATOM      5  C   UNL     1      -9.169   3.375 131.807  0.00  0.00    +0.000 C 
ATOM      6  C   UNL     1      -9.567   3.701 130.387  0.00  0.00    +0.000 C 
ATOM      7  C   UNL     1      -9.252   2.875 129.384  0.00  0.00    +0.000 C 
ATOM      8  N   UNL     1      -9.188   4.231 132.777  0.00  0.00    +0.000 N 
ATOM      9  C   UNL     1      -8.801   3.898 134.193  0.00  0.00    +0.000 C 
ATOM     10  C   UNL     1      -9.602   5.658 132.601  0.00  0.00    +0.000 C 
ENDROOT
BRANCH   1  14
ATOM     11  C   UNL     1      -5.625  -2.687 129.713  0.00  0.00    +0.000 A 
ATOM     12  C   UNL     1      -6.878  -2.681 129.094  0.00  0.00    +0.000 A 
ATOM     13  C   UNL     1      -7.502  -1.496 128.698  0.00  0.00    +0.000 A 
ATOM     14  C   UNL     1      -6.930  -0.251 128.961  0.00  0.00    +0.000 A 
ATOM     15  C   UNL     1      -5.632  -0.299 129.484  0.00  0.00    +0.000 A 
ATOM     16  C   UNL     1      -5.038  -1.461 129.956  0.00  0.00    +0.000 A 
BRANCH  11  18
ATOM     17  C   UNL     1      -5.486  -4.833 130.917  0.00  0.00    +0.000 C 
ATOM     18  N   UNL     1      -4.963  -3.875 129.960  0.00  0.00    +0.000 N 
ATOM     19  C   UNL     1      -3.544  -3.886 129.627  0.00  0.00    +0.000 C 
ENDBRANCH  11  18
ENDBRANCH   1  14
BRANCH   1  20
ATOM     20  C   UNL     1      -7.775   1.596 127.310  0.00  0.00    +0.000 A 
ATOM     21  C   UNL     1      -8.759   1.224 126.401  0.00  0.00    +0.000 A 
ATOM     22  C   UNL     1      -8.673   1.629 125.063  0.00  0.00    +0.000 A 
ATOM     23  C   UNL     1      -7.720   2.555 124.605  0.00  0.00    +0.000 A 
ATOM     24  C   UNL     1      -6.761   2.940 125.557  0.00  0.00    +0.000 A 
ATOM     25  C   UNL     1      -6.767   2.455 126.870  0.00  0.00    +0.000 A 
BRANCH  23  26
ATOM     26  N   UNL     1      -7.716   3.031 123.304  0.00  0.00    +0.000 N 
ATOM     27  C   UNL     1      -6.514   3.571 122.663  0.00  0.00    +0.000 C 
ATOM     28  C   UNL     1      -8.820   2.781 122.372  0.00  0.00    +0.000 C 
ENDBRANCH  23  26
ENDBRANCH   1  20
TORSDOF 4
ENDMDL
