MODEL 1
REMARK VINA RESULT:      -5.1      0.000      0.000
REMARK  Name = Geraniol
REMARK  8 active torsions:
REMARK  status: ('A' for Active; 'I' for Inactive)
REMARK    1  A    between atoms: C_1  and  C_2
REMARK    2  A    between atoms: C_2  and  C_3
REMARK    3  A    between atoms: C_4  and  C_5
REMARK    4  A    between atoms: C_5  and  C_6
REMARK    5  A    between atoms: C_6  and  C_7
REMARK    6  A    between atoms: C_7  and  C_8
REMARK    7  A    between atoms: C_9  and  C_10
REMARK    8  A    between atoms: C_10  and  O_11
REMARK                            x       y       z     vdW  Elec       q    Type
REMARK                         _______ _______ _______ _____ _____    ______ ____
ROOT
ATOM      1  C   UNL     1     -12.733   7.219 130.926  0.00  0.00    +0.000 C 
ENDROOT
BRANCH   1   2
ATOM      2  C   UNL     1     -12.769   7.698 129.485  0.00  0.00    +0.000 C 
ATOM      3  C   UNL     1     -12.780   9.177 129.166  0.00  0.00    +0.000 C 
ATOM      4  C   UNL     1     -12.803   6.802 128.477  0.00  0.00    +0.000 C 
BRANCH   4   5
ATOM      5  C   UNL     1     -12.850   7.202 127.036  0.00  0.00    +0.000 C 
BRANCH   5   6
ATOM      6  O   UNL     1     -11.832   6.527 126.320  0.00  0.00    +0.000 OA
ATOM      7  H   UNL     1     -10.990   6.775 126.734  0.00  0.00    +0.000 HD
ENDBRANCH   5   6
ENDBRANCH   4   5
ENDBRANCH   1   2
BRANCH   1   8
ATOM      8  C   UNL     1     -11.724   6.100 131.167  0.00  0.00    +0.000 C 
BRANCH   8  12
ATOM      9  C   UNL     1      -7.935   6.826 131.107  0.00  0.00    +0.000 C 
ATOM     10  C   UNL     1      -9.301   6.364 130.706  0.00  0.00    +0.000 C 
ATOM     11  C   UNL     1      -9.463   5.700 129.363  0.00  0.00    +0.000 C 
ATOM     12  C   UNL     1     -10.348   6.548 131.537  0.00  0.00    +0.000 C 
ENDBRANCH   8  12
ENDBRANCH   1   8
TORSDOF 5
ENDMDL
MODEL 2
REMARK VINA RESULT:      -5.0     11.192     12.525
REMARK  Name = Geraniol
REMARK  8 active torsions:
REMARK  status: ('A' for Active; 'I' for Inactive)
REMARK    1  A    between atoms: C_1  and  C_2
REMARK    2  A    between atoms: C_2  and  C_3
REMARK    3  A    between atoms: C_4  and  C_5
REMARK    4  A    between atoms: C_5  and  C_6
REMARK    5  A    between atoms: C_6  and  C_7
REMARK    6  A    between atoms: C_7  and  C_8
REMARK    7  A    between atoms: C_9  and  C_10
REMARK    8  A    between atoms: C_10  and  O_11
REMARK                            x       y       z     vdW  Elec       q    Type
REMARK                         _______ _______ _______ _____ _____    ______ ____
ROOT
ATOM      1  C   UNL     1      -7.905  -3.416 124.760  0.00  0.00    +0.000 C 
ENDROOT
BRANCH   1   2
ATOM      2  C   UNL     1      -6.495  -3.312 124.203  0.00  0.00    +0.000 C 
ATOM      3  C   UNL     1      -5.969  -1.993 123.680  0.00  0.00    +0.000 C 
ATOM      4  C   UNL     1      -5.706  -4.405 124.159  0.00  0.00    +0.000 C 
BRANCH   4   5
ATOM      5  C   UNL     1      -4.312  -4.379 123.615  0.00  0.00    +0.000 C 
BRANCH   5   6
ATOM      6  O   UNL     1      -4.034  -5.601 122.958  0.00  0.00    +0.000 OA
ATOM      7  H   UNL     1      -3.942  -5.396 122.014  0.00  0.00    +0.000 HD
ENDBRANCH   5   6
ENDBRANCH   4   5
ENDBRANCH   1   2
BRANCH   1   8
ATOM      8  C   UNL     1      -8.215  -2.365 125.822  0.00  0.00    +0.000 C 
BRANCH   8  12
ATOM      9  C   UNL     1      -7.198  -3.420 129.392  0.00  0.00    +0.000 C 
ATOM     10  C   UNL     1      -7.964  -3.284 128.113  0.00  0.00    +0.000 C 
ATOM     11  C   UNL     1      -9.274  -4.017 127.986  0.00  0.00    +0.000 C 
ATOM     12  C   UNL     1      -7.477  -2.522 127.111  0.00  0.00    +0.000 C 
ENDBRANCH   8  12
ENDBRANCH   1   8
TORSDOF 5
ENDMDL
MODEL 3
REMARK VINA RESULT:      -4.9     10.196     12.270
REMARK  Name = Geraniol
REMARK  8 active torsions:
REMARK  status: ('A' for Active; 'I' for Inactive)
REMARK    1  A    between atoms: C_1  and  C_2
REMARK    2  A    between atoms: C_2  and  C_3
REMARK    3  A    between atoms: C_4  and  C_5
REMARK    4  A    between atoms: C_5  and  C_6
REMARK    5  A    between atoms: C_6  and  C_7
REMARK    6  A    between atoms: C_7  and  C_8
REMARK    7  A    between atoms: C_9  and  C_10
REMARK    8  A    between atoms: C_10  and  O_11
REMARK                            x       y       z     vdW  Elec       q    Type
REMARK                         _______ _______ _______ _____ _____    ______ ____
ROOT
ATOM      1  C   UNL     1      -6.381  -1.455 122.913  0.00  0.00    +0.000 C 
ENDROOT
BRANCH   1   2
ATOM      2  C   UNL     1      -6.032  -2.800 123.526  0.00  0.00    +0.000 C 
ATOM      3  C   UNL     1      -7.043  -3.549 124.366  0.00  0.00    +0.000 C 
ATOM      4  C   UNL     1      -4.807  -3.331 123.333  0.00  0.00    +0.000 C 
BRANCH   4   5
ATOM      5  C   UNL     1      -4.391  -4.646 123.915  0.00  0.00    +0.000 C 
BRANCH   5   6
ATOM      6  O   UNL     1      -4.138  -5.570 122.873  0.00  0.00    +0.000 OA
ATOM      7  H   UNL     1      -3.188  -5.767 122.901  0.00  0.00    +0.000 HD
ENDBRANCH   5   6
ENDBRANCH   4   5
ENDBRANCH   1   2
BRANCH   1   8
ATOM      8  C   UNL     1      -6.762  -0.398 123.947  0.00  0.00    +0.000 C 
BRANCH   8  12
ATOM      9  C   UNL     1     -10.169   1.413 123.942  0.00  0.00    +0.000 C 
ATOM     10  C   UNL     1      -9.027   0.531 124.342  0.00  0.00    +0.000 C 
ATOM     11  C   UNL     1      -9.159  -0.273 125.609  0.00  0.00    +0.000 C 
ATOM     12  C   UNL     1      -7.918   0.472 123.577  0.00  0.00    +0.000 C 
ENDBRANCH   8  12
ENDBRANCH   1   8
TORSDOF 5
ENDMDL
MODEL 4
REMARK VINA RESULT:      -4.8     10.294     12.344
REMARK  Name = Geraniol
REMARK  8 active torsions:
REMARK  status: ('A' for Active; 'I' for Inactive)
REMARK    1  A    between atoms: C_1  and  C_2
REMARK    2  A    between atoms: C_2  and  C_3
REMARK    3  A    between atoms: C_4  and  C_5
REMARK    4  A    between atoms: C_5  and  C_6
REMARK    5  A    between atoms: C_6  and  C_7
REMARK    6  A    between atoms: C_7  and  C_8
REMARK    7  A    between atoms: C_9  and  C_10
REMARK    8  A    between atoms: C_10  and  O_11
REMARK                            x       y       z     vdW  Elec       q    Type
REMARK                         _______ _______ _______ _____ _____    ______ ____
ROOT
ATOM      1  C   UNL     1      -6.447  -1.456 122.893  0.00  0.00    +0.000 C 
ENDROOT
BRANCH   1   2
ATOM      2  C   UNL     1      -6.041  -2.779 123.519  0.00  0.00    +0.000 C 
ATOM      3  C   UNL     1      -7.013  -3.552 124.383  0.00  0.00    +0.000 C 
ATOM      4  C   UNL     1      -4.801  -3.268 123.316  0.00  0.00    +0.000 C 
BRANCH   4   5
ATOM      5  C   UNL     1      -4.328  -4.558 123.909  0.00  0.00    +0.000 C 
BRANCH   5   6
ATOM      6  O   UNL     1      -4.152  -5.518 122.884  0.00  0.00    +0.000 OA
ATOM      7  H   UNL     1      -4.097  -5.027 122.049  0.00  0.00    +0.000 HD
ENDBRANCH   5   6
ENDBRANCH   4   5
ENDBRANCH   1   2
BRANCH   1   8
ATOM      8  C   UNL     1      -7.077  -0.484 123.887  0.00  0.00    +0.000 C 
BRANCH   8  12
ATOM      9  C   UNL     1      -8.478   2.882 122.623  0.00  0.00    +0.000 C 
ATOM     10  C   UNL     1      -8.393   1.464 123.095  0.00  0.00    +0.000 C 
ATOM     11  C   UNL     1      -9.670   0.671 123.202  0.00  0.00    +0.000 C 
ATOM     12  C   UNL     1      -7.197   0.928 123.413  0.00  0.00    +0.000 C 
ENDBRANCH   8  12
ENDBRANCH   1   8
TORSDOF 5
ENDMDL
MODEL 5
REMARK VINA RESULT:      -4.8     10.129     11.908
REMARK  Name = Geraniol
REMARK  8 active torsions:
REMARK  status: ('A' for Active; 'I' for Inactive)
REMARK    1  A    between atoms: C_1  and  C_2
REMARK    2  A    between atoms: C_2  and  C_3
REMARK    3  A    between atoms: C_4  and  C_5
REMARK    4  A    between atoms: C_5  and  C_6
REMARK    5  A    between atoms: C_6  and  C_7
REMARK    6  A    between atoms: C_7  and  C_8
REMARK    7  A    between atoms: C_9  and  C_10
REMARK    8  A    between atoms: C_10  and  O_11
REMARK                            x       y       z     vdW  Elec       q    Type
REMARK                         _______ _______ _______ _____ _____    ______ ____
ROOT
ATOM      1  C   UNL     1      -9.307  -3.286 125.784  0.00  0.00    +0.000 C 
ENDROOT
BRANCH   1   2
ATOM      2  C   UNL     1      -8.644  -2.821 127.069  0.00  0.00    +0.000 C 
ATOM      3  C   UNL     1      -7.952  -1.477 127.136  0.00  0.00    +0.000 C 
ATOM      4  C   UNL     1      -8.659  -3.614 128.160  0.00  0.00    +0.000 C 
BRANCH   4   5
ATOM      5  C   UNL     1      -8.017  -3.225 129.455  0.00  0.00    +0.000 C 
BRANCH   5   6
ATOM      6  O   UNL     1      -6.854  -4.004 129.664  0.00  0.00    +0.000 OA
ATOM      7  H   UNL     1      -6.887  -4.732 129.023  0.00  0.00    +0.000 HD
ENDBRANCH   5   6
ENDBRANCH   4   5
ENDBRANCH   1   2
BRANCH   1   8
ATOM      8  C   UNL     1      -8.497  -2.959 124.532  0.00  0.00    +0.000 C 
BRANCH   8  12
ATOM      9  C   UNL     1      -4.850  -4.044 123.891  0.00  0.00    +0.000 C 
ATOM     10  C   UNL     1      -6.070  -3.197 124.080  0.00  0.00    +0.000 C 
ATOM     11  C   UNL     1      -5.921  -1.702 123.974  0.00  0.00    +0.000 C 
ATOM     12  C   UNL     1      -7.261  -3.775 124.338  0.00  0.00    +0.000 C 
ENDBRANCH   8  12
ENDBRANCH   1   8
TORSDOF 5
ENDMDL
MODEL 6
REMARK VINA RESULT:      -4.8      2.554      5.015
REMARK  Name = Geraniol
REMARK  8 active torsions:
REMARK  status: ('A' for Active; 'I' for Inactive)
REMARK    1  A    between atoms: C_1  and  C_2
REMARK    2  A    between atoms: C_2  and  C_3
REMARK    3  A    between atoms: C_4  and  C_5
REMARK    4  A    between atoms: C_5  and  C_6
REMARK    5  A    between atoms: C_6  and  C_7
REMARK    6  A    between atoms: C_7  and  C_8
REMARK    7  A    between atoms: C_9  and  C_10
REMARK    8  A    between atoms: C_10  and  O_11
REMARK                            x       y       z     vdW  Elec       q    Type
REMARK                         _______ _______ _______ _____ _____    ______ ____
ROOT
ATOM      1  C   UNL     1     -10.198   7.343 128.967  0.00  0.00    +0.000 C 
ENDROOT
BRANCH   1   2
ATOM      2  C   UNL     1     -10.021   6.436 130.173  0.00  0.00    +0.000 C 
ATOM      3  C   UNL     1     -10.876   5.199 130.338  0.00  0.00    +0.000 C 
ATOM      4  C   UNL     1      -9.104   6.738 131.115  0.00  0.00    +0.000 C 
BRANCH   4   5
ATOM      5  C   UNL     1      -8.883   5.897 132.333  0.00  0.00    +0.000 C 
BRANCH   5   6
ATOM      6  O   UNL     1      -9.694   6.369 133.392  0.00  0.00    +0.000 OA
ATOM      7  H   UNL     1      -9.732   7.335 133.305  0.00  0.00    +0.000 HD
ENDBRANCH   5   6
ENDBRANCH   4   5
ENDBRANCH   1   2
BRANCH   1   8
ATOM      8  C   UNL     1     -11.654   7.509 128.543  0.00  0.00    +0.000 C 
BRANCH   8  12
ATOM      9  C   UNL     1     -13.400  10.634 129.984  0.00  0.00    +0.000 C 
ATOM     10  C   UNL     1     -12.847   9.249 129.847  0.00  0.00    +0.000 C 
ATOM     11  C   UNL     1     -13.017   8.298 131.002  0.00  0.00    +0.000 C 
ATOM     12  C   UNL     1     -12.217   8.882 128.712  0.00  0.00    +0.000 C 
ENDBRANCH   8  12
ENDBRANCH   1   8
TORSDOF 5
ENDMDL
MODEL 7
REMARK VINA RESULT:      -4.8      2.191      4.431
REMARK  Name = Geraniol
REMARK  8 active torsions:
REMARK  status: ('A' for Active; 'I' for Inactive)
REMARK    1  A    between atoms: C_1  and  C_2
REMARK    2  A    between atoms: C_2  and  C_3
REMARK    3  A    between atoms: C_4  and  C_5
REMARK    4  A    between atoms: C_5  and  C_6
REMARK    5  A    between atoms: C_6  and  C_7
REMARK    6  A    between atoms: C_7  and  C_8
REMARK    7  A    between atoms: C_9  and  C_10
REMARK    8  A    between atoms: C_10  and  O_11
REMARK                            x       y       z     vdW  Elec       q    Type
REMARK                         _______ _______ _______ _____ _____    ______ ____
ROOT
ATOM      1  C   UNL     1     -12.070   6.662 131.489  0.00  0.00    +0.000 C 
ENDROOT
BRANCH   1   2
ATOM      2  C   UNL     1     -10.764   6.049 131.013  0.00  0.00    +0.000 C 
ATOM      3  C   UNL     1     -10.723   4.626 130.500  0.00  0.00    +0.000 C 
ATOM      4  C   UNL     1      -9.625   6.771 131.057  0.00  0.00    +0.000 C 
BRANCH   4   5
ATOM      5  C   UNL     1      -8.302   6.229 130.615  0.00  0.00    +0.000 C 
BRANCH   5   6
ATOM      6  O   UNL     1      -7.308   7.227 130.749  0.00  0.00    +0.000 OA
ATOM      7  H   UNL     1      -7.504   7.906 130.085  0.00  0.00    +0.000 HD
ENDBRANCH   5   6
ENDBRANCH   4   5
ENDBRANCH   1   2
BRANCH   1   8
ATOM      8  C   UNL     1     -12.641   7.697 130.523  0.00  0.00    +0.000 C 
BRANCH   8  12
ATOM      9  C   UNL     1     -12.637   7.023 126.724  0.00  0.00    +0.000 C 
ATOM     10  C   UNL     1     -12.272   7.556 128.074  0.00  0.00    +0.000 C 
ATOM     11  C   UNL     1     -11.107   8.507 128.173  0.00  0.00    +0.000 C 
ATOM     12  C   UNL     1     -12.978   7.184 129.162  0.00  0.00    +0.000 C 
ENDBRANCH   8  12
ENDBRANCH   1   8
TORSDOF 5
ENDMDL
MODEL 8
REMARK VINA RESULT:      -4.7      1.785      2.152
REMARK  Name = Geraniol
REMARK  8 active torsions:
REMARK  status: ('A' for Active; 'I' for Inactive)
REMARK    1  A    between atoms: C_1  and  C_2
REMARK    2  A    between atoms: C_2  and  C_3
REMARK    3  A    between atoms: C_4  and  C_5
REMARK    4  A    between atoms: C_5  and  C_6
REMARK    5  A    between atoms: C_6  and  C_7
REMARK    6  A    between atoms: C_7  and  C_8
REMARK    7  A    between atoms: C_9  and  C_10
REMARK    8  A    between atoms: C_10  and  O_11
REMARK                            x       y       z     vdW  Elec       q    Type
REMARK                         _______ _______ _______ _____ _____    ______ ____
ROOT
ATOM      1  C   UNL     1     -12.326   6.986 131.575  0.00  0.00    +0.000 C 
ENDROOT
BRANCH   1   2
ATOM      2  C   UNL     1     -12.688   7.519 130.199  0.00  0.00    +0.000 C 
ATOM      3  C   UNL     1     -12.915   6.572 129.042  0.00  0.00    +0.000 C 
ATOM      4  C   UNL     1     -12.798   8.849 129.999  0.00  0.00    +0.000 C 
BRANCH   4   5
ATOM      5  C   UNL     1     -13.140   9.445 128.670  0.00  0.00    +0.000 C 
BRANCH   5   6
ATOM      6  O   UNL     1     -13.558  10.786 128.841  0.00  0.00    +0.000 OA
ATOM      7  H   UNL     1     -13.812  10.881 129.773  0.00  0.00    +0.000 HD
ENDBRANCH   5   6
ENDBRANCH   4   5
ENDBRANCH   1   2
BRANCH   1   8
ATOM      8  C   UNL     1     -11.243   5.912 131.542  0.00  0.00    +0.000 C 
BRANCH   8  12
ATOM      9  C   UNL     1      -7.522   6.831 131.090  0.00  0.00    +0.000 C 
ATOM     10  C   UNL     1      -8.908   6.333 130.819  0.00  0.00    +0.000 C 
ATOM     11  C   UNL     1      -9.205   5.766 129.455  0.00  0.00    +0.000 C 
ATOM     12  C   UNL     1      -9.851   6.400 131.781  0.00  0.00    +0.000 C 
ENDBRANCH   8  12
ENDBRANCH   1   8
TORSDOF 5
ENDMDL
MODEL 9
REMARK VINA RESULT:      -4.7      1.588      4.073
REMARK  Name = Geraniol
REMARK  8 active torsions:
REMARK  status: ('A' for Active; 'I' for Inactive)
REMARK    1  A    between atoms: C_1  and  C_2
REMARK    2  A    between atoms: C_2  and  C_3
REMARK    3  A    between atoms: C_4  and  C_5
REMARK    4  A    between atoms: C_5  and  C_6
REMARK    5  A    between atoms: C_6  and  C_7
REMARK    6  A    between atoms: C_7  and  C_8
REMARK    7  A    between atoms: C_9  and  C_10
REMARK    8  A    between atoms: C_10  and  O_11
REMARK                            x       y       z     vdW  Elec       q    Type
REMARK                         _______ _______ _______ _____ _____    ______ ____
ROOT
ATOM      1  C   UNL     1     -11.021   6.418 131.611  0.00  0.00    +0.000 C 
ENDROOT
BRANCH   1   2
ATOM      2  C   UNL     1      -9.778   6.122 130.790  0.00  0.00    +0.000 C 
ATOM      3  C   UNL     1      -8.581   7.046 130.846  0.00  0.00    +0.000 C 
ATOM      4  C   UNL     1      -9.740   5.034 129.994  0.00  0.00    +0.000 C 
BRANCH   4   5
ATOM      5  C   UNL     1      -8.554   4.687 129.150  0.00  0.00    +0.000 C 
BRANCH   5   6
ATOM      6  O   UNL     1      -8.750   5.161 127.831  0.00  0.00    +0.000 OA
ATOM      7  H   UNL     1      -8.582   4.412 127.237  0.00  0.00    +0.000 HD
ENDBRANCH   5   6
ENDBRANCH   4   5
ENDBRANCH   1   2
BRANCH   1   8
ATOM      8  C   UNL     1     -12.274   6.618 130.763  0.00  0.00    +0.000 C 
BRANCH   8  12
ATOM      9  C   UNL     1     -13.201  10.234 129.783  0.00  0.00    +0.000 C 
ATOM     10  C   UNL     1     -12.622   8.853 129.745  0.00  0.00    +0.000 C 
ATOM     11  C   UNL     1     -11.808   8.456 128.541  0.00  0.00    +0.000 C 
ATOM     12  C   UNL     1     -12.837   8.002 130.769  0.00  0.00    +0.000 C 
ENDBRANCH   8  12
ENDBRANCH   1   8
TORSDOF 5
ENDMDL
