MODEL 1
REMARK VINA RESULT:      -8.3      0.000      0.000
REMARK  Name = Gestonorone caproate
REMARK  10 active torsions:
REMARK  status: ('A' for Active; 'I' for Inactive)
REMARK    1  A    between atoms: C_5  and  O_6
REMARK    2  A    between atoms: C_5  and  C_14
REMARK    3  A    between atoms: O_6  and  C_7
REMARK    4  A    between atoms: C_7  and  C_9
REMARK    5  A    between atoms: C_9  and  C_10
REMARK    6  A    between atoms: C_10  and  C_11
REMARK    7  A    between atoms: C_11  and  C_12
REMARK    8  A    between atoms: C_12  and  C_13
REMARK    9  A    between atoms: C_14  and  C_15
REMARK   10  A    between atoms: C_17  and  C_18
REMARK                            x       y       z     vdW  Elec       q    Type
REMARK                         _______ _______ _______ _____ _____    ______ ____
ROOT
ATOM      1  C   UNL     1      -6.406  -3.560 130.857  0.00  0.00    +0.000 C 
ATOM      2  C   UNL     1      -5.879  -4.858 130.631  0.00  0.00    +0.000 C 
ATOM      3  C   UNL     1      -5.242  -3.761 129.891  0.00  0.00    +0.000 C 
ATOM      4  C   UNL     1      -5.684  -1.854 130.617  0.00  0.00    +0.000 C 
ATOM      5  C   UNL     1      -4.706  -2.720 130.991  0.00  0.00    +0.000 C 
ATOM      6  C   UNL     1      -4.125  -2.912 132.328  0.00  0.00    +0.000 C 
ATOM      7  C   UNL     1      -3.926  -2.143 129.434  0.00  0.00    +0.000 C 
ATOM      8  C   UNL     1      -5.047  -1.738 128.379  0.00  0.00    +0.000 C 
ATOM      9  C   UNL     1      -6.413  -2.560 128.201  0.00  0.00    +0.000 C 
ATOM     10  C   UNL     1      -7.283  -1.935 127.196  0.00  0.00    +0.000 C 
ATOM     11  C   UNL     1      -6.366  -1.661 126.178  0.00  0.00    +0.000 C 
ATOM     12  C   UNL     1      -5.360  -1.018 125.459  0.00  0.00    +0.000 C 
ATOM     13  C   UNL     1      -5.947  -2.202 124.386  0.00  0.00    +0.000 C 
ATOM     14  O   UNL     1      -5.242  -2.450 123.473  0.00  0.00    +0.000 OA
ATOM     15  C   UNL     1      -7.459  -3.228 125.042  0.00  0.00    +0.000 C 
ATOM     16  C   UNL     1      -7.987  -3.049 126.387  0.00  0.00    +0.000 C 
ATOM     17  C   UNL     1      -9.030  -3.528 127.527  0.00  0.00    +0.000 C 
ATOM     18  C   UNL     1      -8.404  -3.911 128.937  0.00  0.00    +0.000 C 
ATOM     19  C   UNL     1      -7.318  -2.940 129.392  0.00  0.00    +0.000 C 
ENDROOT
BRANCH   4  20
ATOM     20  C   UNL     1      -4.788  -0.365 131.013  0.00  0.00    +0.000 C 
ATOM     21  C   UNL     1      -4.880   0.997 130.209  0.00  0.00    +0.000 C 
ATOM     22  O   UNL     1      -3.985  -0.350 131.963  0.00  0.00    +0.000 OA
ENDBRANCH   4  20
BRANCH   4  23
ATOM     23  O   UNL     1      -6.555  -1.605 132.010  0.00  0.00    +0.000 OA
BRANCH  23  24
ATOM     24  C   UNL     1      -7.486  -0.620 132.208  0.00  0.00    +0.000 C 
ATOM     25  O   UNL     1      -7.452   0.198 133.121  0.00  0.00    +0.000 OA
BRANCH  24  26
ATOM     26  C   UNL     1      -8.520  -0.359 131.146  0.00  0.00    +0.000 C 
BRANCH  26  27
ATOM     27  C   UNL     1      -8.814   1.170 131.241  0.00  0.00    +0.000 C 
BRANCH  27  28
ATOM     28  C   UNL     1      -8.640   1.918 129.939  0.00  0.00    +0.000 C 
BRANCH  28  29
ATOM     29  C   UNL     1      -8.095   0.993 128.847  0.00  0.00    +0.000 C 
ATOM     30  C   UNL     1      -8.595   1.447 127.489  0.00  0.00    +0.000 C 
ENDBRANCH  28  29
ENDBRANCH  27  28
ENDBRANCH  26  27
ENDBRANCH  24  26
ENDBRANCH  23  24
ENDBRANCH   4  23
TORSDOF 7
ENDMDL
MODEL 2
REMARK VINA RESULT:      -8.2      0.804      1.308
REMARK  Name = Gestonorone caproate
REMARK  10 active torsions:
REMARK  status: ('A' for Active; 'I' for Inactive)
REMARK    1  A    between atoms: C_5  and  O_6
REMARK    2  A    between atoms: C_5  and  C_14
REMARK    3  A    between atoms: O_6  and  C_7
REMARK    4  A    between atoms: C_7  and  C_9
REMARK    5  A    between atoms: C_9  and  C_10
REMARK    6  A    between atoms: C_10  and  C_11
REMARK    7  A    between atoms: C_11  and  C_12
REMARK    8  A    between atoms: C_12  and  C_13
REMARK    9  A    between atoms: C_14  and  C_15
REMARK   10  A    between atoms: C_17  and  C_18
REMARK                            x       y       z     vdW  Elec       q    Type
REMARK                         _______ _______ _______ _____ _____    ______ ____
ROOT
ATOM      1  C   UNL     1      -6.227  -3.723 131.000  0.00  0.00    +0.000 C 
ATOM      2  C   UNL     1      -5.751  -5.020 130.682  0.00  0.00    +0.000 C 
ATOM      3  C   UNL     1      -5.103  -3.902 129.985  0.00  0.00    +0.000 C 
ATOM      4  C   UNL     1      -5.459  -2.028 130.834  0.00  0.00    +0.000 C 
ATOM      5  C   UNL     1      -4.498  -2.944 131.124  0.00  0.00    +0.000 C 
ATOM      6  C   UNL     1      -3.881  -3.231 132.427  0.00  0.00    +0.000 C 
ATOM      7  C   UNL     1      -3.751  -2.301 129.576  0.00  0.00    +0.000 C 
ATOM      8  C   UNL     1      -4.892  -1.801 128.586  0.00  0.00    +0.000 C 
ATOM      9  C   UNL     1      -6.288  -2.569 128.407  0.00  0.00    +0.000 C 
ATOM     10  C   UNL     1      -7.170  -1.861 127.470  0.00  0.00    +0.000 C 
ATOM     11  C   UNL     1      -6.278  -1.556 126.439  0.00  0.00    +0.000 C 
ATOM     12  C   UNL     1      -5.275  -0.903 125.724  0.00  0.00    +0.000 C 
ATOM     13  C   UNL     1      -5.935  -2.003 124.606  0.00  0.00    +0.000 C 
ATOM     14  O   UNL     1      -5.269  -2.219 123.656  0.00  0.00    +0.000 OA
ATOM     15  C   UNL     1      -7.457  -3.020 125.253  0.00  0.00    +0.000 C 
ATOM     16  C   UNL     1      -7.936  -2.904 126.624  0.00  0.00    +0.000 C 
ATOM     17  C   UNL     1      -8.956  -3.416 127.770  0.00  0.00    +0.000 C 
ATOM     18  C   UNL     1      -8.298  -3.899 129.133  0.00  0.00    +0.000 C 
ATOM     19  C   UNL     1      -7.166  -2.990 129.605  0.00  0.00    +0.000 C 
ENDROOT
BRANCH   4  20
ATOM     20  C   UNL     1      -4.503  -0.593 131.283  0.00  0.00    +0.000 C 
ATOM     21  C   UNL     1      -4.550   0.805 130.540  0.00  0.00    +0.000 C 
ATOM     22  O   UNL     1      -3.691  -0.649 132.224  0.00  0.00    +0.000 OA
ENDBRANCH   4  20
BRANCH   4  23
ATOM     23  O   UNL     1      -6.276  -1.835 132.267  0.00  0.00    +0.000 OA
BRANCH  23  24
ATOM     24  C   UNL     1      -7.158  -0.829 132.558  0.00  0.00    +0.000 C 
ATOM     25  O   UNL     1      -6.932   0.099 133.327  0.00  0.00    +0.000 OA
BRANCH  24  26
ATOM     26  C   UNL     1      -8.421  -0.701 131.749  0.00  0.00    +0.000 C 
BRANCH  26  27
ATOM     27  C   UNL     1      -8.085   0.348 130.644  0.00  0.00    +0.000 C 
BRANCH  27  28
ATOM     28  C   UNL     1      -8.837   1.652 130.774  0.00  0.00    +0.000 C 
BRANCH  28  29
ATOM     29  C   UNL     1      -9.789   1.615 131.974  0.00  0.00    +0.000 C 
ATOM     30  C   UNL     1      -9.383   2.667 132.987  0.00  0.00    +0.000 C 
ENDBRANCH  28  29
ENDBRANCH  27  28
ENDBRANCH  26  27
ENDBRANCH  24  26
ENDBRANCH  23  24
ENDBRANCH   4  23
TORSDOF 7
ENDMDL
MODEL 3
REMARK VINA RESULT:      -8.1      2.792      6.594
REMARK  Name = Gestonorone caproate
REMARK  10 active torsions:
REMARK  status: ('A' for Active; 'I' for Inactive)
REMARK    1  A    between atoms: C_5  and  O_6
REMARK    2  A    between atoms: C_5  and  C_14
REMARK    3  A    between atoms: O_6  and  C_7
REMARK    4  A    between atoms: C_7  and  C_9
REMARK    5  A    between atoms: C_9  and  C_10
REMARK    6  A    between atoms: C_10  and  C_11
REMARK    7  A    between atoms: C_11  and  C_12
REMARK    8  A    between atoms: C_12  and  C_13
REMARK    9  A    between atoms: C_14  and  C_15
REMARK   10  A    between atoms: C_17  and  C_18
REMARK                            x       y       z     vdW  Elec       q    Type
REMARK                         _______ _______ _______ _____ _____    ______ ____
ROOT
ATOM      1  C   UNL     1      -6.380   0.267 125.365  0.00  0.00    +0.000 C 
ATOM      2  C   UNL     1      -4.968   0.161 125.441  0.00  0.00    +0.000 C 
ATOM      3  C   UNL     1      -5.732  -1.000 125.916  0.00  0.00    +0.000 C 
ATOM      4  C   UNL     1      -7.735  -1.019 125.327  0.00  0.00    +0.000 C 
ATOM      5  C   UNL     1      -6.636  -1.488 124.681  0.00  0.00    +0.000 C 
ATOM      6  C   UNL     1      -6.384  -1.532 123.233  0.00  0.00    +0.000 C 
ATOM      7  C   UNL     1      -6.792  -2.852 125.897  0.00  0.00    +0.000 C 
ATOM      8  C   UNL     1      -7.445  -2.311 127.244  0.00  0.00    +0.000 C 
ATOM      9  C   UNL     1      -7.095  -0.874 127.864  0.00  0.00    +0.000 C 
ATOM     10  C   UNL     1      -7.878  -0.614 129.080  0.00  0.00    +0.000 C 
ATOM     11  C   UNL     1      -7.752  -1.835 129.748  0.00  0.00    +0.000 C 
ATOM     12  C   UNL     1      -7.971  -3.167 130.096  0.00  0.00    +0.000 C 
ATOM     13  C   UNL     1      -6.952  -2.577 131.325  0.00  0.00    +0.000 C 
ATOM     14  O   UNL     1      -6.411  -3.403 131.972  0.00  0.00    +0.000 OA
ATOM     15  C   UNL     1      -6.529  -0.686 131.205  0.00  0.00    +0.000 C 
ATOM     16  C   UNL     1      -6.985   0.137 130.094  0.00  0.00    +0.000 C 
ATOM     17  C   UNL     1      -6.969   1.576 129.355  0.00  0.00    +0.000 C 
ATOM     18  C   UNL     1      -6.529   1.578 127.828  0.00  0.00    +0.000 C 
ATOM     19  C   UNL     1      -7.132   0.425 127.031  0.00  0.00    +0.000 C 
ENDROOT
BRANCH   4  20
ATOM     20  C   UNL     1      -8.884  -2.193 124.636  0.00  0.00    +0.000 C 
ATOM     21  C   UNL     1      -8.822  -2.774 123.163  0.00  0.00    +0.000 C 
ATOM     22  O   UNL     1      -9.851  -2.594 125.308  0.00  0.00    +0.000 OA
ENDBRANCH   4  20
BRANCH   4  23
ATOM     23  O   UNL     1      -8.371   0.101 124.278  0.00  0.00    +0.000 OA
BRANCH  23  24
ATOM     24  C   UNL     1      -9.354   1.008 124.574  0.00  0.00    +0.000 C 
ATOM     25  O   UNL     1     -10.404   0.739 125.145  0.00  0.00    +0.000 OA
BRANCH  24  26
ATOM     26  C   UNL     1      -9.080   2.477 124.388  0.00  0.00    +0.000 C 
BRANCH  26  27
ATOM     27  C   UNL     1      -8.253   2.566 123.068  0.00  0.00    +0.000 C 
BRANCH  27  28
ATOM     28  C   UNL     1      -6.895   3.210 123.228  0.00  0.00    +0.000 C 
BRANCH  28  29
ATOM     29  C   UNL     1      -6.745   3.829 124.620  0.00  0.00    +0.000 C 
ATOM     30  C   UNL     1      -5.281   3.873 125.011  0.00  0.00    +0.000 C 
ENDBRANCH  28  29
ENDBRANCH  27  28
ENDBRANCH  26  27
ENDBRANCH  24  26
ENDBRANCH  23  24
ENDBRANCH   4  23
TORSDOF 7
ENDMDL
MODEL 4
REMARK VINA RESULT:      -7.8      4.662      6.686
REMARK  Name = Gestonorone caproate
REMARK  10 active torsions:
REMARK  status: ('A' for Active; 'I' for Inactive)
REMARK    1  A    between atoms: C_5  and  O_6
REMARK    2  A    between atoms: C_5  and  C_14
REMARK    3  A    between atoms: O_6  and  C_7
REMARK    4  A    between atoms: C_7  and  C_9
REMARK    5  A    between atoms: C_9  and  C_10
REMARK    6  A    between atoms: C_10  and  C_11
REMARK    7  A    between atoms: C_11  and  C_12
REMARK    8  A    between atoms: C_12  and  C_13
REMARK    9  A    between atoms: C_14  and  C_15
REMARK   10  A    between atoms: C_17  and  C_18
REMARK                            x       y       z     vdW  Elec       q    Type
REMARK                         _______ _______ _______ _____ _____    ______ ____
ROOT
ATOM      1  C   UNL     1      -9.061   2.279 130.736  0.00  0.00    +0.000 C 
ATOM      2  C   UNL     1      -8.632   0.981 131.115  0.00  0.00    +0.000 C 
ATOM      3  C   UNL     1      -7.611   2.036 131.146  0.00  0.00    +0.000 C 
ATOM      4  C   UNL     1      -8.372   3.980 131.086  0.00  0.00    +0.000 C 
ATOM      5  C   UNL     1      -8.154   3.166 132.151  0.00  0.00    +0.000 C 
ATOM      6  C   UNL     1      -8.920   3.085 133.404  0.00  0.00    +0.000 C 
ATOM      7  C   UNL     1      -6.407   3.647 131.862  0.00  0.00    +0.000 C 
ATOM      8  C   UNL     1      -6.173   3.950 130.317  0.00  0.00    +0.000 C 
ATOM      9  C   UNL     1      -6.851   3.085 129.148  0.00  0.00    +0.000 C 
ATOM     10  C   UNL     1      -6.503   3.616 127.823  0.00  0.00    +0.000 C 
ATOM     11  C   UNL     1      -5.131   3.837 127.973  0.00  0.00    +0.000 C 
ATOM     12  C   UNL     1      -3.936   4.451 128.345  0.00  0.00    +0.000 C 
ATOM     13  C   UNL     1      -3.452   3.179 127.321  0.00  0.00    +0.000 C 
ATOM     14  O   UNL     1      -2.312   2.883 127.389  0.00  0.00    +0.000 OA
ATOM     15  C   UNL     1      -4.905   2.167 126.524  0.00  0.00    +0.000 C 
ATOM     16  C   UNL     1      -6.299   2.430 126.852  0.00  0.00    +0.000 C 
ATOM     17  C   UNL     1      -7.852   2.011 126.681  0.00  0.00    +0.000 C 
ATOM     18  C   UNL     1      -8.660   1.745 128.023  0.00  0.00    +0.000 C 
ATOM     19  C   UNL     1      -8.362   2.771 129.113  0.00  0.00    +0.000 C 
ENDROOT
BRANCH   4  20
ATOM     20  C   UNL     1      -8.112   5.514 131.954  0.00  0.00    +0.000 C 
ATOM     21  C   UNL     1      -7.492   6.827 131.323  0.00  0.00    +0.000 C 
ATOM     22  O   UNL     1      -8.386   5.604 133.164  0.00  0.00    +0.000 OA
ENDBRANCH   4  20
BRANCH   4  23
ATOM     23  O   UNL     1      -9.999   4.308 131.156  0.00  0.00    +0.000 OA
BRANCH  23  24
ATOM     24  C   UNL     1     -10.648   5.297 130.467  0.00  0.00    +0.000 C 
ATOM     25  O   UNL     1     -10.793   5.320 129.249  0.00  0.00    +0.000 OA
BRANCH  24  26
ATOM     26  C   UNL     1     -11.428   6.335 131.227  0.00  0.00    +0.000 C 
BRANCH  26  27
ATOM     27  C   UNL     1     -12.493   6.858 130.215  0.00  0.00    +0.000 C 
BRANCH  27  28
ATOM     28  C   UNL     1     -12.416   8.343 129.941  0.00  0.00    +0.000 C 
BRANCH  28  29
ATOM     29  C   UNL     1     -12.131   8.610 128.460  0.00  0.00    +0.000 C 
ATOM     30  C   UNL     1     -10.638   8.552 128.203  0.00  0.00    +0.000 C 
ENDBRANCH  28  29
ENDBRANCH  27  28
ENDBRANCH  26  27
ENDBRANCH  24  26
ENDBRANCH  23  24
ENDBRANCH   4  23
TORSDOF 7
ENDMDL
MODEL 5
REMARK VINA RESULT:      -7.6      1.908      3.471
REMARK  Name = Gestonorone caproate
REMARK  10 active torsions:
REMARK  status: ('A' for Active; 'I' for Inactive)
REMARK    1  A    between atoms: C_5  and  O_6
REMARK    2  A    between atoms: C_5  and  C_14
REMARK    3  A    between atoms: O_6  and  C_7
REMARK    4  A    between atoms: C_7  and  C_9
REMARK    5  A    between atoms: C_9  and  C_10
REMARK    6  A    between atoms: C_10  and  C_11
REMARK    7  A    between atoms: C_11  and  C_12
REMARK    8  A    between atoms: C_12  and  C_13
REMARK    9  A    between atoms: C_14  and  C_15
REMARK   10  A    between atoms: C_17  and  C_18
REMARK                            x       y       z     vdW  Elec       q    Type
REMARK                         _______ _______ _______ _____ _____    ______ ____
ROOT
ATOM      1  C   UNL     1      -5.931  -1.338 129.423  0.00  0.00    +0.000 C 
ATOM      2  C   UNL     1      -4.817  -2.126 129.037  0.00  0.00    +0.000 C 
ATOM      3  C   UNL     1      -5.305  -1.163 128.043  0.00  0.00    +0.000 C 
ATOM      4  C   UNL     1      -6.581   0.302 128.809  0.00  0.00    +0.000 C 
ATOM      5  C   UNL     1      -5.225   0.286 128.733  0.00  0.00    +0.000 C 
ATOM      6  C   UNL     1      -4.257   0.880 129.666  0.00  0.00    +0.000 C 
ATOM      7  C   UNL     1      -5.554   0.665 126.969  0.00  0.00    +0.000 C 
ATOM      8  C   UNL     1      -6.944   0.030 126.524  0.00  0.00    +0.000 C 
ATOM      9  C   UNL     1      -7.442  -1.411 127.021  0.00  0.00    +0.000 C 
ATOM     10  C   UNL     1      -8.778  -1.723 126.497  0.00  0.00    +0.000 C 
ATOM     11  C   UNL     1      -8.642  -1.331 125.162  0.00  0.00    +0.000 C 
ATOM     12  C   UNL     1      -8.579  -0.510 124.038  0.00  0.00    +0.000 C 
ATOM     13  C   UNL     1      -8.596  -2.089 123.401  0.00  0.00    +0.000 C 
ATOM     14  O   UNL     1      -8.245  -2.185 122.278  0.00  0.00    +0.000 OA
ATOM     15  C   UNL     1      -8.793  -3.504 124.716  0.00  0.00    +0.000 C 
ATOM     16  C   UNL     1      -8.834  -3.228 126.146  0.00  0.00    +0.000 C 
ATOM     17  C   UNL     1      -8.890  -3.807 127.655  0.00  0.00    +0.000 C 
ATOM     18  C   UNL     1      -7.745  -3.313 128.640  0.00  0.00    +0.000 C 
ATOM     19  C   UNL     1      -7.446  -1.823 128.509  0.00  0.00    +0.000 C 
ENDROOT
BRANCH   4  20
ATOM     20  C   UNL     1      -6.764   2.071 128.689  0.00  0.00    +0.000 C 
ATOM     21  C   UNL     1      -7.916   2.819 127.902  0.00  0.00    +0.000 C 
ATOM     22  O   UNL     1      -5.925   2.825 129.216  0.00  0.00    +0.000 OA
ENDBRANCH   4  20
BRANCH   4  23
ATOM     23  O   UNL     1      -6.892   0.459 130.433  0.00  0.00    +0.000 OA
BRANCH  23  24
ATOM     24  C   UNL     1      -8.132   0.535 131.008  0.00  0.00    +0.000 C 
ATOM     25  O   UNL     1      -8.924   1.456 130.841  0.00  0.00    +0.000 OA
BRANCH  24  26
ATOM     26  C   UNL     1      -8.682  -0.663 131.735  0.00  0.00    +0.000 C 
BRANCH  26  27
ATOM     27  C   UNL     1      -7.443  -1.320 132.418  0.00  0.00    +0.000 C 
BRANCH  27  28
ATOM     28  C   UNL     1      -7.443  -2.832 132.383  0.00  0.00    +0.000 C 
BRANCH  28  29
ATOM     29  C   UNL     1      -6.036  -3.383 132.631  0.00  0.00    +0.000 C 
ATOM     30  C   UNL     1      -5.733  -4.489 131.639  0.00  0.00    +0.000 C 
ENDBRANCH  28  29
ENDBRANCH  27  28
ENDBRANCH  26  27
ENDBRANCH  24  26
ENDBRANCH  23  24
ENDBRANCH   4  23
TORSDOF 7
ENDMDL
MODEL 6
REMARK VINA RESULT:      -7.6      4.879      8.647
REMARK  Name = Gestonorone caproate
REMARK  10 active torsions:
REMARK  status: ('A' for Active; 'I' for Inactive)
REMARK    1  A    between atoms: C_5  and  O_6
REMARK    2  A    between atoms: C_5  and  C_14
REMARK    3  A    between atoms: O_6  and  C_7
REMARK    4  A    between atoms: C_7  and  C_9
REMARK    5  A    between atoms: C_9  and  C_10
REMARK    6  A    between atoms: C_10  and  C_11
REMARK    7  A    between atoms: C_11  and  C_12
REMARK    8  A    between atoms: C_12  and  C_13
REMARK    9  A    between atoms: C_14  and  C_15
REMARK   10  A    between atoms: C_17  and  C_18
REMARK                            x       y       z     vdW  Elec       q    Type
REMARK                         _______ _______ _______ _____ _____    ______ ____
ROOT
ATOM      1  C   UNL     1      -5.489   2.990 129.631  0.00  0.00    +0.000 C 
ATOM      2  C   UNL     1      -5.898   1.869 130.397  0.00  0.00    +0.000 C 
ATOM      3  C   UNL     1      -6.953   2.560 129.644  0.00  0.00    +0.000 C 
ATOM      4  C   UNL     1      -6.253   3.851 128.160  0.00  0.00    +0.000 C 
ATOM      5  C   UNL     1      -6.512   2.519 128.100  0.00  0.00    +0.000 C 
ATOM      6  C   UNL     1      -5.823   1.496 127.299  0.00  0.00    +0.000 C 
ATOM      7  C   UNL     1      -8.251   3.098 128.037  0.00  0.00    +0.000 C 
ATOM      8  C   UNL     1      -8.398   4.472 128.825  0.00  0.00    +0.000 C 
ATOM      9  C   UNL     1      -7.621   4.778 130.195  0.00  0.00    +0.000 C 
ATOM     10  C   UNL     1      -7.902   6.138 130.675  0.00  0.00    +0.000 C 
ATOM     11  C   UNL     1      -9.287   6.204 130.500  0.00  0.00    +0.000 C 
ATOM     12  C   UNL     1     -10.522   6.353 129.871  0.00  0.00    +0.000 C 
ATOM     13  C   UNL     1     -10.899   6.314 131.531  0.00  0.00    +0.000 C 
ATOM     14  O   UNL     1     -12.032   6.099 131.787  0.00  0.00    +0.000 OA
ATOM     15  C   UNL     1      -9.368   6.222 132.721  0.00  0.00    +0.000 C 
ATOM     16  C   UNL     1      -8.006   6.108 132.217  0.00  0.00    +0.000 C 
ATOM     17  C   UNL     1      -6.433   5.923 132.544  0.00  0.00    +0.000 C 
ATOM     18  C   UNL     1      -5.702   4.711 131.822  0.00  0.00    +0.000 C 
ATOM     19  C   UNL     1      -6.101   4.560 130.357  0.00  0.00    +0.000 C 
ENDROOT
BRANCH   4  20
ATOM     20  C   UNL     1      -6.618   4.199 126.450  0.00  0.00    +0.000 C 
ATOM     21  C   UNL     1      -6.173   3.304 125.221  0.00  0.00    +0.000 C 
ATOM     22  O   UNL     1      -7.235   5.233 126.138  0.00  0.00    +0.000 OA
ENDBRANCH   4  20
BRANCH   4  23
ATOM     23  O   UNL     1      -4.646   3.969 127.759  0.00  0.00    +0.000 OA
BRANCH  23  24
ATOM     24  C   UNL     1      -3.908   5.122 127.731  0.00  0.00    +0.000 C 
ATOM     25  O   UNL     1      -4.357   6.232 127.466  0.00  0.00    +0.000 OA
BRANCH  24  26
ATOM     26  C   UNL     1      -2.496   5.106 128.253  0.00  0.00    +0.000 C 
BRANCH  26  27
ATOM     27  C   UNL     1      -2.635   5.323 129.791  0.00  0.00    +0.000 C 
BRANCH  27  28
ATOM     28  C   UNL     1      -2.207   6.692 130.268  0.00  0.00    +0.000 C 
BRANCH  28  29
ATOM     29  C   UNL     1      -3.293   7.332 131.137  0.00  0.00    +0.000 C 
ATOM     30  C   UNL     1      -4.301   8.048 130.259  0.00  0.00    +0.000 C 
ENDBRANCH  28  29
ENDBRANCH  27  28
ENDBRANCH  26  27
ENDBRANCH  24  26
ENDBRANCH  23  24
ENDBRANCH   4  23
TORSDOF 7
ENDMDL
MODEL 7
REMARK VINA RESULT:      -7.5      5.601      8.246
REMARK  Name = Gestonorone caproate
REMARK  10 active torsions:
REMARK  status: ('A' for Active; 'I' for Inactive)
REMARK    1  A    between atoms: C_5  and  O_6
REMARK    2  A    between atoms: C_5  and  C_14
REMARK    3  A    between atoms: O_6  and  C_7
REMARK    4  A    between atoms: C_7  and  C_9
REMARK    5  A    between atoms: C_9  and  C_10
REMARK    6  A    between atoms: C_10  and  C_11
REMARK    7  A    between atoms: C_11  and  C_12
REMARK    8  A    between atoms: C_12  and  C_13
REMARK    9  A    between atoms: C_14  and  C_15
REMARK   10  A    between atoms: C_17  and  C_18
REMARK                            x       y       z     vdW  Elec       q    Type
REMARK                         _______ _______ _______ _____ _____    ______ ____
ROOT
ATOM      1  C   UNL     1      -6.926   6.364 131.846  0.00  0.00    +0.000 C 
ATOM      2  C   UNL     1      -7.595   7.129 130.857  0.00  0.00    +0.000 C 
ATOM      3  C   UNL     1      -7.227   5.759 130.479  0.00  0.00    +0.000 C 
ATOM      4  C   UNL     1      -6.723   4.521 132.083  0.00  0.00    +0.000 C 
ATOM      5  C   UNL     1      -7.940   4.786 131.539  0.00  0.00    +0.000 C 
ATOM      6  C   UNL     1      -9.242   4.854 132.219  0.00  0.00    +0.000 C 
ATOM      7  C   UNL     1      -7.344   3.641 130.235  0.00  0.00    +0.000 C 
ATOM      8  C   UNL     1      -5.759   3.727 130.116  0.00  0.00    +0.000 C 
ATOM      9  C   UNL     1      -4.950   5.105 130.243  0.00  0.00    +0.000 C 
ATOM     10  C   UNL     1      -3.501   4.883 130.144  0.00  0.00    +0.000 C 
ATOM     11  C   UNL     1      -3.436   4.005 129.059  0.00  0.00    +0.000 C 
ATOM     12  C   UNL     1      -3.497   2.821 128.327  0.00  0.00    +0.000 C 
ATOM     13  C   UNL     1      -2.811   3.945 127.247  0.00  0.00    +0.000 C 
ATOM     14  O   UNL     1      -2.834   3.631 126.110  0.00  0.00    +0.000 OA
ATOM     15  C   UNL     1      -2.480   5.706 127.994  0.00  0.00    +0.000 C 
ATOM     16  C   UNL     1      -2.872   6.054 129.353  0.00  0.00    +0.000 C 
ATOM     17  C   UNL     1      -2.991   7.188 130.500  0.00  0.00    +0.000 C 
ATOM     18  C   UNL     1      -4.434   7.403 131.130  0.00  0.00    +0.000 C 
ATOM     19  C   UNL     1      -5.165   6.093 131.410  0.00  0.00    +0.000 C 
ENDROOT
BRANCH   4  20
ATOM     20  C   UNL     1      -7.108   2.871 132.633  0.00  0.00    +0.000 C 
ATOM     21  C   UNL     1      -8.527   2.385 133.143  0.00  0.00    +0.000 C 
ATOM     22  O   UNL     1      -6.220   2.001 132.676  0.00  0.00    +0.000 OA
ENDBRANCH   4  20
BRANCH   4  23
ATOM     23  O   UNL     1      -6.877   5.000 133.666  0.00  0.00    +0.000 OA
BRANCH  23  24
ATOM     24  C   UNL     1      -5.926   4.860 134.642  0.00  0.00    +0.000 C 
ATOM     25  O   UNL     1      -5.845   3.905 135.406  0.00  0.00    +0.000 OA
BRANCH  24  26
ATOM     26  C   UNL     1      -4.764   5.817 134.681  0.00  0.00    +0.000 C 
BRANCH  26  27
ATOM     27  C   UNL     1      -3.497   4.909 134.646  0.00  0.00    +0.000 C 
BRANCH  27  28
ATOM     28  C   UNL     1      -2.424   5.374 133.688  0.00  0.00    +0.000 C 
BRANCH  28  29
ATOM     29  C   UNL     1      -1.869   4.198 132.878  0.00  0.00    +0.000 C 
ATOM     30  C   UNL     1      -2.739   2.974 133.084  0.00  0.00    +0.000 C 
ENDBRANCH  28  29
ENDBRANCH  27  28
ENDBRANCH  26  27
ENDBRANCH  24  26
ENDBRANCH  23  24
ENDBRANCH   4  23
TORSDOF 7
ENDMDL
MODEL 8
REMARK VINA RESULT:      -7.5      2.763      5.236
REMARK  Name = Gestonorone caproate
REMARK  10 active torsions:
REMARK  status: ('A' for Active; 'I' for Inactive)
REMARK    1  A    between atoms: C_5  and  O_6
REMARK    2  A    between atoms: C_5  and  C_14
REMARK    3  A    between atoms: O_6  and  C_7
REMARK    4  A    between atoms: C_7  and  C_9
REMARK    5  A    between atoms: C_9  and  C_10
REMARK    6  A    between atoms: C_10  and  C_11
REMARK    7  A    between atoms: C_11  and  C_12
REMARK    8  A    between atoms: C_12  and  C_13
REMARK    9  A    between atoms: C_14  and  C_15
REMARK   10  A    between atoms: C_17  and  C_18
REMARK                            x       y       z     vdW  Elec       q    Type
REMARK                         _______ _______ _______ _____ _____    ______ ____
ROOT
ATOM      1  C   UNL     1      -8.400   3.008 130.527  0.00  0.00    +0.000 C 
ATOM      2  C   UNL     1      -9.799   3.126 130.321  0.00  0.00    +0.000 C 
ATOM      3  C   UNL     1      -9.315   1.808 130.753  0.00  0.00    +0.000 C 
ATOM      4  C   UNL     1      -7.376   1.808 131.527  0.00  0.00    +0.000 C 
ATOM      5  C   UNL     1      -8.560   2.036 132.153  0.00  0.00    +0.000 C 
ATOM      6  C   UNL     1      -8.831   2.937 133.283  0.00  0.00    +0.000 C 
ATOM      7  C   UNL     1      -8.706   0.211 132.033  0.00  0.00    +0.000 C 
ATOM      8  C   UNL     1      -7.933  -0.315 130.745  0.00  0.00    +0.000 C 
ATOM      9  C   UNL     1      -7.939   0.469 129.346  0.00  0.00    +0.000 C 
ATOM     10  C   UNL     1      -7.105  -0.215 128.349  0.00  0.00    +0.000 C 
ATOM     11  C   UNL     1      -7.499  -1.543 128.532  0.00  0.00    +0.000 C 
ATOM     12  C   UNL     1      -7.586  -2.819 129.086  0.00  0.00    +0.000 C 
ATOM     13  C   UNL     1      -8.431  -2.945 127.613  0.00  0.00    +0.000 C 
ATOM     14  O   UNL     1      -9.139  -3.884 127.516  0.00  0.00    +0.000 OA
ATOM     15  C   UNL     1      -8.412  -1.344 126.516  0.00  0.00    +0.000 C 
ATOM     16  C   UNL     1      -7.791  -0.106 126.968  0.00  0.00    +0.000 C 
ATOM     17  C   UNL     1      -7.485   1.458 126.689  0.00  0.00    +0.000 C 
ATOM     18  C   UNL     1      -7.930   2.475 127.826  0.00  0.00    +0.000 C 
ATOM     19  C   UNL     1      -7.614   1.974 129.232  0.00  0.00    +0.000 C 
ENDROOT
BRANCH   4  20
ATOM     20  C   UNL     1      -6.533   1.131 132.944  0.00  0.00    +0.000 C 
ATOM     21  C   UNL     1      -5.320   0.114 132.886  0.00  0.00    +0.000 C 
ATOM     22  O   UNL     1      -6.911   1.417 134.095  0.00  0.00    +0.000 OA
ENDBRANCH   4  20
BRANCH   4  23
ATOM     23  O   UNL     1      -6.512   3.204 131.780  0.00  0.00    +0.000 OA
BRANCH  23  24
ATOM     24  C   UNL     1      -5.346   3.550 131.149  0.00  0.00    +0.000 C 
ATOM     25  O   UNL     1      -4.518   2.752 130.725  0.00  0.00    +0.000 OA
BRANCH  24  26
ATOM     26  C   UNL     1      -5.125   4.983 130.746  0.00  0.00    +0.000 C 
BRANCH  26  27
ATOM     27  C   UNL     1      -5.953   5.820 131.769  0.00  0.00    +0.000 C 
BRANCH  27  28
ATOM     28  C   UNL     1      -6.942   6.773 131.138  0.00  0.00    +0.000 C 
BRANCH  28  29
ATOM     29  C   UNL     1      -8.365   6.483 131.624  0.00  0.00    +0.000 C 
ATOM     30  C   UNL     1      -9.370   6.959 130.592  0.00  0.00    +0.000 C 
ENDBRANCH  28  29
ENDBRANCH  27  28
ENDBRANCH  26  27
ENDBRANCH  24  26
ENDBRANCH  23  24
ENDBRANCH   4  23
TORSDOF 7
ENDMDL
MODEL 9
REMARK VINA RESULT:      -7.5      4.503      6.924
REMARK  Name = Gestonorone caproate
REMARK  10 active torsions:
REMARK  status: ('A' for Active; 'I' for Inactive)
REMARK    1  A    between atoms: C_5  and  O_6
REMARK    2  A    between atoms: C_5  and  C_14
REMARK    3  A    between atoms: O_6  and  C_7
REMARK    4  A    between atoms: C_7  and  C_9
REMARK    5  A    between atoms: C_9  and  C_10
REMARK    6  A    between atoms: C_10  and  C_11
REMARK    7  A    between atoms: C_11  and  C_12
REMARK    8  A    between atoms: C_12  and  C_13
REMARK    9  A    between atoms: C_14  and  C_15
REMARK   10  A    between atoms: C_17  and  C_18
REMARK                            x       y       z     vdW  Elec       q    Type
REMARK                         _______ _______ _______ _____ _____    ______ ____
ROOT
ATOM      1  C   UNL     1      -7.310   4.480 133.418  0.00  0.00    +0.000 C 
ATOM      2  C   UNL     1      -6.811   3.773 134.541  0.00  0.00    +0.000 C 
ATOM      3  C   UNL     1      -6.127   3.530 133.266  0.00  0.00    +0.000 C 
ATOM      4  C   UNL     1      -6.539   4.935 131.778  0.00  0.00    +0.000 C 
ATOM      5  C   UNL     1      -5.594   4.956 132.754  0.00  0.00    +0.000 C 
ATOM      6  C   UNL     1      -5.055   6.122 133.471  0.00  0.00    +0.000 C 
ATOM      7  C   UNL     1      -4.758   3.759 131.643  0.00  0.00    +0.000 C 
ATOM      8  C   UNL     1      -5.839   2.930 130.821  0.00  0.00    +0.000 C 
ATOM      9  C   UNL     1      -7.220   2.424 131.462  0.00  0.00    +0.000 C 
ATOM     10  C   UNL     1      -8.047   1.730 130.466  0.00  0.00    +0.000 C 
ATOM     11  C   UNL     1      -7.096   0.913 129.849  0.00  0.00    +0.000 C 
ATOM     12  C   UNL     1      -6.054   0.518 129.011  0.00  0.00    +0.000 C 
ATOM     13  C   UNL     1      -6.643  -0.941 129.663  0.00  0.00    +0.000 C 
ATOM     14  O   UNL     1      -5.920  -1.868 129.560  0.00  0.00    +0.000 OA
ATOM     15  C   UNL     1      -8.197  -0.760 130.812  0.00  0.00    +0.000 C 
ATOM     16  C   UNL     1      -8.757   0.540 131.153  0.00  0.00    +0.000 C 
ATOM     17  C   UNL     1      -9.842   1.388 132.002  0.00  0.00    +0.000 C 
ATOM     18  C   UNL     1      -9.265   2.546 132.924  0.00  0.00    +0.000 C 
ATOM     19  C   UNL     1      -8.167   3.359 132.245  0.00  0.00    +0.000 C 
ENDROOT
BRANCH   4  20
ATOM     20  C   UNL     1      -5.617   5.894 130.592  0.00  0.00    +0.000 C 
ATOM     21  C   UNL     1      -4.737   7.166 130.931  0.00  0.00    +0.000 C 
ATOM     22  O   UNL     1      -5.663   5.606 129.382  0.00  0.00    +0.000 OA
ENDBRANCH   4  20
BRANCH   4  23
ATOM     23  O   UNL     1      -7.441   6.301 132.061  0.00  0.00    +0.000 OA
BRANCH  23  24
ATOM     24  C   UNL     1      -8.568   6.674 131.379  0.00  0.00    +0.000 C 
ATOM     25  O   UNL     1      -8.575   7.140 130.245  0.00  0.00    +0.000 OA
BRANCH  24  26
ATOM     26  C   UNL     1      -9.919   6.316 131.936  0.00  0.00    +0.000 C 
BRANCH  26  27
ATOM     27  C   UNL     1     -10.908   6.507 130.745  0.00  0.00    +0.000 C 
BRANCH  27  28
ATOM     28  C   UNL     1     -12.269   7.031 131.144  0.00  0.00    +0.000 C 
BRANCH  28  29
ATOM     29  C   UNL     1     -12.790   8.036 130.112  0.00  0.00    +0.000 C 
ATOM     30  C   UNL     1     -11.695   8.367 129.116  0.00  0.00    +0.000 C 
ENDBRANCH  28  29
ENDBRANCH  27  28
ENDBRANCH  26  27
ENDBRANCH  24  26
ENDBRANCH  23  24
ENDBRANCH   4  23
TORSDOF 7
ENDMDL
