MODEL 1
REMARK VINA RESULT:      -8.2      0.000      0.000
REMARK  Name = Gestrinone
REMARK  4 active torsions:
REMARK  status: ('A' for Active; 'I' for Inactive)
REMARK    1  A    between atoms: C_5  and  O_6
REMARK    2  A    between atoms: C_5  and  C_7
REMARK    3  A    between atoms: C_9  and  C_10
REMARK    4  A    between atoms: C_10  and  C_11
REMARK                            x       y       z     vdW  Elec       q    Type
REMARK                         _______ _______ _______ _____ _____    ______ ____
ROOT
ATOM      1  C   UNL     1      -6.088  -3.499 129.783  0.00  0.00    +0.000 C 
ATOM      2  C   UNL     1      -6.397  -4.112 131.119  0.00  0.00    +0.000 C 
ATOM      3  C   UNL     1      -5.493  -3.074 131.701  0.00  0.00    +0.000 C 
ATOM      4  C   UNL     1      -3.731  -3.268 130.800  0.00  0.00    +0.000 C 
ATOM      5  C   UNL     1      -4.775  -2.360 130.023  0.00  0.00    +0.000 C 
ATOM      6  C   UNL     1      -4.409  -1.831 128.717  0.00  0.00    +0.000 C 
ATOM      7  C   UNL     1      -5.342  -1.767 127.775  0.00  0.00    +0.000 C 
ATOM      8  C   UNL     1      -6.700  -2.348 127.853  0.00  0.00    +0.000 C 
ATOM      9  C   UNL     1      -7.404  -2.559 126.739  0.00  0.00    +0.000 C 
ATOM     10  C   UNL     1      -6.764  -2.101 125.501  0.00  0.00    +0.000 C 
ATOM     11  C   UNL     1      -7.632  -2.304 124.329  0.00  0.00    +0.000 C 
ATOM     12  C   UNL     1      -9.064  -2.610 124.420  0.00  0.00    +0.000 C 
ATOM     13  O   UNL     1      -9.737  -2.635 123.378  0.00  0.00    +0.000 OA
ATOM     14  C   UNL     1      -9.596  -3.040 125.702  0.00  0.00    +0.000 C 
ATOM     15  C   UNL     1      -8.729  -3.177 126.721  0.00  0.00    +0.000 C 
ATOM     16  C   UNL     1      -8.999  -4.091 127.882  0.00  0.00    +0.000 C 
ATOM     17  C   UNL     1      -8.650  -3.450 129.201  0.00  0.00    +0.000 C 
ATOM     18  C   UNL     1      -7.260  -2.768 129.172  0.00  0.00    +0.000 C 
ENDROOT
BRANCH   4  19
ATOM     19  O   UNL     1      -2.715  -2.343 131.190  0.00  0.00    +0.000 OA
ATOM     20  H   UNL     1      -2.487  -1.851 130.383  0.00  0.00    +0.000 HD
ENDBRANCH   4  19
BRANCH   4  21
ATOM     21  C   UNL     1      -4.077  -3.898 132.139  0.00  0.00    +0.000 C 
ATOM     22  C   UNL     1      -4.372  -4.438 133.289  0.00  0.00    +0.000 C 
ENDBRANCH   4  21
BRANCH   5  23
ATOM     23  C   UNL     1      -4.979  -0.839 130.923  0.00  0.00    +0.000 C 
ATOM     24  C   UNL     1      -6.258  -0.022 130.669  0.00  0.00    +0.000 C 
ENDBRANCH   5  23
TORSDOF 3
ENDMDL
MODEL 2
REMARK VINA RESULT:      -8.2      1.914      6.763
REMARK  Name = Gestrinone
REMARK  4 active torsions:
REMARK  status: ('A' for Active; 'I' for Inactive)
REMARK    1  A    between atoms: C_5  and  O_6
REMARK    2  A    between atoms: C_5  and  C_7
REMARK    3  A    between atoms: C_9  and  C_10
REMARK    4  A    between atoms: C_10  and  C_11
REMARK                            x       y       z     vdW  Elec       q    Type
REMARK                         _______ _______ _______ _____ _____    ______ ____
ROOT
ATOM      1  C   UNL     1      -8.046  -1.368 125.831  0.00  0.00    +0.000 C 
ATOM      2  C   UNL     1      -9.329  -1.588 125.083  0.00  0.00    +0.000 C 
ATOM      3  C   UNL     1      -8.533  -1.366 123.837  0.00  0.00    +0.000 C 
ATOM      4  C   UNL     1      -7.670   0.417 124.011  0.00  0.00    +0.000 C 
ATOM      5  C   UNL     1      -6.864  -0.776 124.679  0.00  0.00    +0.000 C 
ATOM      6  C   UNL     1      -5.645  -0.473 125.415  0.00  0.00    +0.000 C 
ATOM      7  C   UNL     1      -5.387  -1.157 126.522  0.00  0.00    +0.000 C 
ATOM      8  C   UNL     1      -6.308  -2.096 127.200  0.00  0.00    +0.000 C 
ATOM      9  C   UNL     1      -6.108  -2.428 128.478  0.00  0.00    +0.000 C 
ATOM     10  C   UNL     1      -4.897  -1.864 129.085  0.00  0.00    +0.000 C 
ATOM     11  C   UNL     1      -4.710  -2.332 130.469  0.00  0.00    +0.000 C 
ATOM     12  C   UNL     1      -5.442  -3.462 131.051  0.00  0.00    +0.000 C 
ATOM     13  O   UNL     1      -5.123  -3.863 132.181  0.00  0.00    +0.000 OA
ATOM     14  C   UNL     1      -6.621  -3.952 130.355  0.00  0.00    +0.000 C 
ATOM     15  C   UNL     1      -6.997  -3.304 129.238  0.00  0.00    +0.000 C 
ATOM     16  C   UNL     1      -8.415  -3.324 128.743  0.00  0.00    +0.000 C 
ATOM     17  C   UNL     1      -8.492  -3.534 127.252  0.00  0.00    +0.000 C 
ATOM     18  C   UNL     1      -7.507  -2.621 126.480  0.00  0.00    +0.000 C 
ENDROOT
BRANCH   4  19
ATOM     19  O   UNL     1      -6.828   0.821 122.930  0.00  0.00    +0.000 OA
ATOM     20  H   UNL     1      -6.233   1.495 123.302  0.00  0.00    +0.000 HD
ENDBRANCH   4  19
BRANCH   4  21
ATOM     21  C   UNL     1      -8.980   0.172 123.279  0.00  0.00    +0.000 C 
ATOM     22  C   UNL     1     -10.103  -0.037 122.651  0.00  0.00    +0.000 C 
ENDBRANCH   4  21
BRANCH   5  23
ATOM     23  C   UNL     1      -6.193  -1.796 123.385  0.00  0.00    +0.000 C 
ATOM     24  C   UNL     1      -5.488  -3.102 123.794  0.00  0.00    +0.000 C 
ENDBRANCH   5  23
TORSDOF 3
ENDMDL
MODEL 3
REMARK VINA RESULT:      -7.9      1.952      6.633
REMARK  Name = Gestrinone
REMARK  4 active torsions:
REMARK  status: ('A' for Active; 'I' for Inactive)
REMARK    1  A    between atoms: C_5  and  O_6
REMARK    2  A    between atoms: C_5  and  C_7
REMARK    3  A    between atoms: C_9  and  C_10
REMARK    4  A    between atoms: C_10  and  C_11
REMARK                            x       y       z     vdW  Elec       q    Type
REMARK                         _______ _______ _______ _____ _____    ______ ____
ROOT
ATOM      1  C   UNL     1      -7.883  -2.317 126.299  0.00  0.00    +0.000 C 
ATOM      2  C   UNL     1      -9.006  -3.216 125.871  0.00  0.00    +0.000 C 
ATOM      3  C   UNL     1      -8.187  -3.510 124.657  0.00  0.00    +0.000 C 
ATOM      4  C   UNL     1      -7.800  -1.766 123.783  0.00  0.00    +0.000 C 
ATOM      5  C   UNL     1      -6.787  -2.166 124.937  0.00  0.00    +0.000 C 
ATOM      6  C   UNL     1      -5.744  -1.223 125.314  0.00  0.00    +0.000 C 
ATOM      7  C   UNL     1      -5.421  -1.114 126.596  0.00  0.00    +0.000 C 
ATOM      8  C   UNL     1      -6.140  -1.733 127.731  0.00  0.00    +0.000 C 
ATOM      9  C   UNL     1      -5.974  -1.262 128.969  0.00  0.00    +0.000 C 
ATOM     10  C   UNL     1      -4.991  -0.181 129.096  0.00  0.00    +0.000 C 
ATOM     11  C   UNL     1      -4.813   0.235 130.498  0.00  0.00    +0.000 C 
ATOM     12  C   UNL     1      -5.295  -0.543 131.645  0.00  0.00    +0.000 C 
ATOM     13  O   UNL     1      -4.984  -0.178 132.788  0.00  0.00    +0.000 OA
ATOM     14  C   UNL     1      -6.257  -1.605 131.400  0.00  0.00    +0.000 C 
ATOM     15  C   UNL     1      -6.684  -1.779 130.137  0.00  0.00    +0.000 C 
ATOM     16  C   UNL     1      -8.009  -2.414 129.822  0.00  0.00    +0.000 C 
ATOM     17  C   UNL     1      -7.907  -3.405 128.690  0.00  0.00    +0.000 C 
ATOM     18  C   UNL     1      -7.112  -2.841 127.487  0.00  0.00    +0.000 C 
ENDROOT
BRANCH   4  19
ATOM     19  O   UNL     1      -6.993  -1.814 122.604  0.00  0.00    +0.000 OA
ATOM     20  H   UNL     1      -7.300  -1.076 122.049  0.00  0.00    +0.000 HD
ENDBRANCH   4  19
BRANCH   4  21
ATOM     21  C   UNL     1      -8.945  -2.683 123.385  0.00  0.00    +0.000 C 
ATOM     22  C   UNL     1      -9.928  -3.469 123.043  0.00  0.00    +0.000 C 
ENDBRANCH   4  21
BRANCH   5  23
ATOM     23  C   UNL     1      -5.782  -3.518 124.362  0.00  0.00    +0.000 C 
ATOM     24  C   UNL     1      -4.510  -3.177 123.567  0.00  0.00    +0.000 C 
ENDBRANCH   5  23
TORSDOF 3
ENDMDL
MODEL 4
REMARK VINA RESULT:      -7.7      3.075      7.036
REMARK  Name = Gestrinone
REMARK  4 active torsions:
REMARK  status: ('A' for Active; 'I' for Inactive)
REMARK    1  A    between atoms: C_5  and  O_6
REMARK    2  A    between atoms: C_5  and  C_7
REMARK    3  A    between atoms: C_9  and  C_10
REMARK    4  A    between atoms: C_10  and  C_11
REMARK                            x       y       z     vdW  Elec       q    Type
REMARK                         _______ _______ _______ _____ _____    ______ ____
ROOT
ATOM      1  C   UNL     1      -8.846  -0.480 126.123  0.00  0.00    +0.000 C 
ATOM      2  C   UNL     1      -9.064  -1.046 124.750  0.00  0.00    +0.000 C 
ATOM      3  C   UNL     1      -8.515   0.244 124.231  0.00  0.00    +0.000 C 
ATOM      4  C   UNL     1      -9.636   1.698 124.994  0.00  0.00    +0.000 C 
ATOM      5  C   UNL     1      -8.448   1.218 125.930  0.00  0.00    +0.000 C 
ATOM      6  C   UNL     1      -8.327   1.795 127.261  0.00  0.00    +0.000 C 
ATOM      7  C   UNL     1      -7.948   1.009 128.261  0.00  0.00    +0.000 C 
ATOM      8  C   UNL     1      -7.799  -0.462 128.203  0.00  0.00    +0.000 C 
ATOM      9  C   UNL     1      -7.790  -1.180 129.329  0.00  0.00    +0.000 C 
ATOM     10  C   UNL     1      -7.853  -0.397 130.568  0.00  0.00    +0.000 C 
ATOM     11  C   UNL     1      -7.767  -1.254 131.762  0.00  0.00    +0.000 C 
ATOM     12  C   UNL     1      -7.341  -2.658 131.727  0.00  0.00    +0.000 C 
ATOM     13  O   UNL     1      -7.176  -3.259 132.799  0.00  0.00    +0.000 OA
ATOM     14  C   UNL     1      -7.299  -3.333 130.440  0.00  0.00    +0.000 C 
ATOM     15  C   UNL     1      -7.701  -2.638 129.361  0.00  0.00    +0.000 C 
ATOM     16  C   UNL     1      -8.221  -3.315 128.124  0.00  0.00    +0.000 C 
ATOM     17  C   UNL     1      -7.661  -2.704 126.865  0.00  0.00    +0.000 C 
ATOM     18  C   UNL     1      -7.731  -1.157 126.884  0.00  0.00    +0.000 C 
ENDROOT
BRANCH   4  19
ATOM     19  O   UNL     1      -9.264   3.033 124.646  0.00  0.00    +0.000 OA
ATOM     20  H   UNL     1      -8.391   2.958 124.223  0.00  0.00    +0.000 HD
ENDBRANCH   4  19
BRANCH   4  21
ATOM     21  C   UNL     1      -9.850   1.091 123.617  0.00  0.00    +0.000 C 
ATOM     22  C   UNL     1     -10.033   0.572 122.435  0.00  0.00    +0.000 C 
ENDBRANCH   4  21
BRANCH   5  23
ATOM     23  C   UNL     1      -6.912   1.767 125.219  0.00  0.00    +0.000 C 
ATOM     24  C   UNL     1      -5.611   1.148 125.760  0.00  0.00    +0.000 C 
ENDBRANCH   5  23
TORSDOF 3
ENDMDL
MODEL 5
REMARK VINA RESULT:      -7.6      5.199      6.658
REMARK  Name = Gestrinone
REMARK  4 active torsions:
REMARK  status: ('A' for Active; 'I' for Inactive)
REMARK    1  A    between atoms: C_5  and  O_6
REMARK    2  A    between atoms: C_5  and  C_7
REMARK    3  A    between atoms: C_9  and  C_10
REMARK    4  A    between atoms: C_10  and  C_11
REMARK                            x       y       z     vdW  Elec       q    Type
REMARK                         _______ _______ _______ _____ _____    ______ ____
ROOT
ATOM      1  C   UNL     1      -7.354   1.244 125.646  0.00  0.00    +0.000 C 
ATOM      2  C   UNL     1      -8.287   0.465 126.526  0.00  0.00    +0.000 C 
ATOM      3  C   UNL     1      -7.541   1.051 127.681  0.00  0.00    +0.000 C 
ATOM      4  C   UNL     1      -5.627   0.572 127.437  0.00  0.00    +0.000 C 
ATOM      5  C   UNL     1      -6.083   1.885 126.671  0.00  0.00    +0.000 C 
ATOM      6  C   UNL     1      -5.125   2.564 125.811  0.00  0.00    +0.000 C 
ATOM      7  C   UNL     1      -5.558   3.094 124.674  0.00  0.00    +0.000 C 
ATOM      8  C   UNL     1      -6.905   2.916 124.088  0.00  0.00    +0.000 C 
ATOM      9  C   UNL     1      -7.111   3.162 122.792  0.00  0.00    +0.000 C 
ATOM     10  C   UNL     1      -5.948   3.682 122.065  0.00  0.00    +0.000 C 
ATOM     11  C   UNL     1      -6.274   3.995 120.663  0.00  0.00    +0.000 C 
ATOM     12  C   UNL     1      -7.645   4.092 120.149  0.00  0.00    +0.000 C 
ATOM     13  O   UNL     1      -7.821   4.487 118.986  0.00  0.00    +0.000 OA
ATOM     14  C   UNL     1      -8.725   3.558 120.962  0.00  0.00    +0.000 C 
ATOM     15  C   UNL     1      -8.394   2.962 122.122  0.00  0.00    +0.000 C 
ATOM     16  C   UNL     1      -9.272   1.928 122.767  0.00  0.00    +0.000 C 
ATOM     17  C   UNL     1      -9.396   2.139 124.255  0.00  0.00    +0.000 C 
ATOM     18  C   UNL     1      -8.023   2.391 124.927  0.00  0.00    +0.000 C 
ENDROOT
BRANCH   4  19
ATOM     19  O   UNL     1      -4.720   1.064 128.426  0.00  0.00    +0.000 OA
ATOM     20  H   UNL     1      -4.954   0.598 129.247  0.00  0.00    +0.000 HD
ENDBRANCH   4  19
BRANCH   4  21
ATOM     21  C   UNL     1      -6.598  -0.213 128.303  0.00  0.00    +0.000 C 
ATOM     22  C   UNL     1      -7.432  -0.888 129.045  0.00  0.00    +0.000 C 
ENDBRANCH   4  21
BRANCH   5  23
ATOM     23  C   UNL     1      -6.375   3.165 127.872  0.00  0.00    +0.000 C 
ATOM     24  C   UNL     1      -7.536   4.141 127.610  0.00  0.00    +0.000 C 
ENDBRANCH   5  23
TORSDOF 3
ENDMDL
MODEL 6
REMARK VINA RESULT:      -7.5      2.408      6.696
REMARK  Name = Gestrinone
REMARK  4 active torsions:
REMARK  status: ('A' for Active; 'I' for Inactive)
REMARK    1  A    between atoms: C_5  and  O_6
REMARK    2  A    between atoms: C_5  and  C_7
REMARK    3  A    between atoms: C_9  and  C_10
REMARK    4  A    between atoms: C_10  and  C_11
REMARK                            x       y       z     vdW  Elec       q    Type
REMARK                         _______ _______ _______ _____ _____    ______ ____
ROOT
ATOM      1  C   UNL     1      -8.409  -2.048 126.925  0.00  0.00    +0.000 C 
ATOM      2  C   UNL     1      -8.491  -3.316 126.125  0.00  0.00    +0.000 C 
ATOM      3  C   UNL     1      -7.993  -2.510 124.969  0.00  0.00    +0.000 C 
ATOM      4  C   UNL     1      -9.258  -0.995 124.732  0.00  0.00    +0.000 C 
ATOM      5  C   UNL     1      -8.111  -0.738 125.798  0.00  0.00    +0.000 C 
ATOM      6  C   UNL     1      -8.123   0.506 126.555  0.00  0.00    +0.000 C 
ATOM      7  C   UNL     1      -7.766   0.473 127.833  0.00  0.00    +0.000 C 
ATOM      8  C   UNL     1      -7.517  -0.744 128.636  0.00  0.00    +0.000 C 
ATOM      9  C   UNL     1      -7.541  -0.685 129.970  0.00  0.00    +0.000 C 
ATOM     10  C   UNL     1      -7.743   0.656 130.530  0.00  0.00    +0.000 C 
ATOM     11  C   UNL     1      -7.686   0.649 132.001  0.00  0.00    +0.000 C 
ATOM     12  C   UNL     1      -7.168  -0.474 132.790  0.00  0.00    +0.000 C 
ATOM     13  O   UNL     1      -7.040  -0.335 134.016  0.00  0.00    +0.000 OA
ATOM     14  C   UNL     1      -6.990  -1.756 132.128  0.00  0.00    +0.000 C 
ATOM     15  C   UNL     1      -7.359  -1.846 130.838  0.00  0.00    +0.000 C 
ATOM     16  C   UNL     1      -7.744  -3.154 130.207  0.00  0.00    +0.000 C 
ATOM     17  C   UNL     1      -7.136  -3.323 128.838  0.00  0.00    +0.000 C 
ATOM     18  C   UNL     1      -7.309  -2.059 127.960  0.00  0.00    +0.000 C 
ENDROOT
BRANCH   4  19
ATOM     19  O   UNL     1      -8.951  -0.071 123.686  0.00  0.00    +0.000 OA
ATOM     20  H   UNL     1      -9.400  -0.416 122.895  0.00  0.00    +0.000 HD
ENDBRANCH   4  19
BRANCH   4  21
ATOM     21  C   UNL     1      -9.333  -2.298 123.952  0.00  0.00    +0.000 C 
ATOM     22  C   UNL     1      -9.397  -3.414 123.282  0.00  0.00    +0.000 C 
ENDBRANCH   4  21
BRANCH   5  23
ATOM     23  C   UNL     1      -6.568  -0.552 124.932  0.00  0.00    +0.000 C 
ATOM     24  C   UNL     1      -5.271  -0.844 125.708  0.00  0.00    +0.000 C 
ENDBRANCH   5  23
TORSDOF 3
ENDMDL
MODEL 7
REMARK VINA RESULT:      -7.3      7.539      9.436
REMARK  Name = Gestrinone
REMARK  4 active torsions:
REMARK  status: ('A' for Active; 'I' for Inactive)
REMARK    1  A    between atoms: C_5  and  O_6
REMARK    2  A    between atoms: C_5  and  C_7
REMARK    3  A    between atoms: C_9  and  C_10
REMARK    4  A    between atoms: C_10  and  C_11
REMARK                            x       y       z     vdW  Elec       q    Type
REMARK                         _______ _______ _______ _____ _____    ______ ____
ROOT
ATOM      1  C   UNL     1      -9.507   4.229 131.052  0.00  0.00    +0.000 C 
ATOM      2  C   UNL     1      -9.356   3.524 132.368  0.00  0.00    +0.000 C 
ATOM      3  C   UNL     1      -7.925   3.317 131.989  0.00  0.00    +0.000 C 
ATOM      4  C   UNL     1      -7.921   2.367 130.242  0.00  0.00    +0.000 C 
ATOM      5  C   UNL     1      -8.038   3.946 130.136  0.00  0.00    +0.000 C 
ATOM      6  C   UNL     1      -8.216   4.549 128.823  0.00  0.00    +0.000 C 
ATOM      7  C   UNL     1      -9.021   5.598 128.711  0.00  0.00    +0.000 C 
ATOM      8  C   UNL     1      -9.912   6.128 129.766  0.00  0.00    +0.000 C 
ATOM      9  C   UNL     1     -10.936   6.923 129.443  0.00  0.00    +0.000 C 
ATOM     10  C   UNL     1     -11.030   7.269 128.021  0.00  0.00    +0.000 C 
ATOM     11  C   UNL     1     -12.139   8.202 127.758  0.00  0.00    +0.000 C 
ATOM     12  C   UNL     1     -12.842   8.947 128.808  0.00  0.00    +0.000 C 
ATOM     13  O   UNL     1     -13.674   9.806 128.477  0.00  0.00    +0.000 OA
ATOM     14  C   UNL     1     -12.662   8.527 130.188  0.00  0.00    +0.000 C 
ATOM     15  C   UNL     1     -11.894   7.446 130.414  0.00  0.00    +0.000 C 
ATOM     16  C   UNL     1     -12.051   6.599 131.645  0.00  0.00    +0.000 C 
ATOM     17  C   UNL     1     -10.721   6.228 132.250  0.00  0.00    +0.000 C 
ATOM     18  C   UNL     1      -9.715   5.719 131.188  0.00  0.00    +0.000 C 
ENDROOT
BRANCH   4  19
ATOM     19  O   UNL     1      -6.638   2.092 129.674  0.00  0.00    +0.000 OA
ATOM     20  H   UNL     1      -6.007   2.620 130.191  0.00  0.00    +0.000 HD
ENDBRANCH   4  19
BRANCH   4  21
ATOM     21  C   UNL     1      -7.793   1.674 131.589  0.00  0.00    +0.000 C 
ATOM     22  C   UNL     1      -7.682   1.079 132.744  0.00  0.00    +0.000 C 
ENDBRANCH   4  21
BRANCH   5  23
ATOM     23  C   UNL     1      -6.473   4.660 130.590  0.00  0.00    +0.000 C 
ATOM     24  C   UNL     1      -6.464   6.125 131.060  0.00  0.00    +0.000 C 
ENDBRANCH   5  23
TORSDOF 3
ENDMDL
MODEL 8
REMARK VINA RESULT:      -7.3      3.339      5.405
REMARK  Name = Gestrinone
REMARK  4 active torsions:
REMARK  status: ('A' for Active; 'I' for Inactive)
REMARK    1  A    between atoms: C_5  and  O_6
REMARK    2  A    between atoms: C_5  and  C_7
REMARK    3  A    between atoms: C_9  and  C_10
REMARK    4  A    between atoms: C_10  and  C_11
REMARK                            x       y       z     vdW  Elec       q    Type
REMARK                         _______ _______ _______ _____ _____    ______ ____
ROOT
ATOM      1  C   UNL     1      -5.887  -1.187 129.792  0.00  0.00    +0.000 C 
ATOM      2  C   UNL     1      -4.799  -1.473 128.799  0.00  0.00    +0.000 C 
ATOM      3  C   UNL     1      -5.157  -2.915 128.959  0.00  0.00    +0.000 C 
ATOM      4  C   UNL     1      -4.997  -3.339 130.895  0.00  0.00    +0.000 C 
ATOM      5  C   UNL     1      -6.396  -2.725 130.466  0.00  0.00    +0.000 C 
ATOM      6  C   UNL     1      -7.386  -2.447 131.497  0.00  0.00    +0.000 C 
ATOM      7  C   UNL     1      -8.132  -1.356 131.382  0.00  0.00    +0.000 C 
ATOM      8  C   UNL     1      -7.946  -0.275 130.389  0.00  0.00    +0.000 C 
ATOM      9  C   UNL     1      -8.489   0.928 130.596  0.00  0.00    +0.000 C 
ATOM     10  C   UNL     1      -9.318   1.037 131.802  0.00  0.00    +0.000 C 
ATOM     11  C   UNL     1      -9.937   2.368 131.921  0.00  0.00    +0.000 C 
ATOM     12  C   UNL     1      -9.993   3.341 130.824  0.00  0.00    +0.000 C 
ATOM     13  O   UNL     1     -10.648   4.382 130.981  0.00  0.00    +0.000 OA
ATOM     14  C   UNL     1      -9.139   3.124 129.668  0.00  0.00    +0.000 C 
ATOM     15  C   UNL     1      -8.310   2.065 129.696  0.00  0.00    +0.000 C 
ATOM     16  C   UNL     1      -7.045   2.019 128.887  0.00  0.00    +0.000 C 
ATOM     17  C   UNL     1      -6.850   0.682 128.216  0.00  0.00    +0.000 C 
ATOM     18  C   UNL     1      -7.089  -0.501 129.188  0.00  0.00    +0.000 C 
ENDROOT
BRANCH   4  19
ATOM     19  O   UNL     1      -5.327  -4.675 131.280  0.00  0.00    +0.000 OA
ATOM     20  H   UNL     1      -5.093  -4.739 132.222  0.00  0.00    +0.000 HD
ENDBRANCH   4  19
BRANCH   4  21
ATOM     21  C   UNL     1      -3.902  -3.596 129.873  0.00  0.00    +0.000 C 
ATOM     22  C   UNL     1      -2.961  -3.816 128.997  0.00  0.00    +0.000 C 
ENDBRANCH   4  21
BRANCH   5  23
ATOM     23  C   UNL     1      -7.279  -3.942 129.515  0.00  0.00    +0.000 C 
ATOM     24  C   UNL     1      -8.433  -3.455 128.622  0.00  0.00    +0.000 C 
ENDBRANCH   5  23
TORSDOF 3
ENDMDL
MODEL 9
REMARK VINA RESULT:      -7.3      1.315      3.054
REMARK  Name = Gestrinone
REMARK  4 active torsions:
REMARK  status: ('A' for Active; 'I' for Inactive)
REMARK    1  A    between atoms: C_5  and  O_6
REMARK    2  A    between atoms: C_5  and  C_7
REMARK    3  A    between atoms: C_9  and  C_10
REMARK    4  A    between atoms: C_10  and  C_11
REMARK                            x       y       z     vdW  Elec       q    Type
REMARK                         _______ _______ _______ _____ _____    ______ ____
ROOT
ATOM      1  C   UNL     1      -5.713  -1.024 129.613  0.00  0.00    +0.000 C 
ATOM      2  C   UNL     1      -4.681   0.011 129.958  0.00  0.00    +0.000 C 
ATOM      3  C   UNL     1      -4.071  -1.026 130.846  0.00  0.00    +0.000 C 
ATOM      4  C   UNL     1      -5.488  -1.610 132.112  0.00  0.00    +0.000 C 
ATOM      5  C   UNL     1      -5.494  -2.369 130.718  0.00  0.00    +0.000 C 
ATOM      6  C   UNL     1      -6.549  -3.335 130.449  0.00  0.00    +0.000 C 
ATOM      7  C   UNL     1      -7.050  -3.401 129.222  0.00  0.00    +0.000 C 
ATOM      8  C   UNL     1      -6.769  -2.461 128.115  0.00  0.00    +0.000 C 
ATOM      9  C   UNL     1      -7.596  -2.390 127.069  0.00  0.00    +0.000 C 
ATOM     10  C   UNL     1      -8.705  -3.349 127.086  0.00  0.00    +0.000 C 
ATOM     11  C   UNL     1      -9.527  -3.256 125.868  0.00  0.00    +0.000 C 
ATOM     12  C   UNL     1      -9.109  -2.543 124.656  0.00  0.00    +0.000 C 
ATOM     13  O   UNL     1      -9.812  -2.630 123.637  0.00  0.00    +0.000 OA
ATOM     14  C   UNL     1      -7.984  -1.627 124.750  0.00  0.00    +0.000 C 
ATOM     15  C   UNL     1      -7.423  -1.454 125.960  0.00  0.00    +0.000 C 
ATOM     16  C   UNL     1      -6.668  -0.205 126.318  0.00  0.00    +0.000 C 
ATOM     17  C   UNL     1      -5.389  -0.508 127.057  0.00  0.00    +0.000 C 
ATOM     18  C   UNL     1      -5.600  -1.536 128.197  0.00  0.00    +0.000 C 
ENDROOT
BRANCH   4  19
ATOM     19  O   UNL     1      -5.123  -2.632 133.043  0.00  0.00    +0.000 OA
ATOM     20  H   UNL     1      -4.988  -3.434 132.508  0.00  0.00    +0.000 HD
ENDBRANCH   4  19
BRANCH   4  21
ATOM     21  C   UNL     1      -4.448  -0.549 132.429  0.00  0.00    +0.000 C 
ATOM     22  C   UNL     1      -3.554   0.361 132.700  0.00  0.00    +0.000 C 
ENDBRANCH   4  21
BRANCH   5  23
ATOM     23  C   UNL     1      -4.075  -3.440 130.653  0.00  0.00    +0.000 C 
ATOM     24  C   UNL     1      -3.445  -3.712 129.276  0.00  0.00    +0.000 C 
ENDBRANCH   5  23
TORSDOF 3
ENDMDL
