MODEL 1
REMARK VINA RESULT:      -8.6      0.000      0.000
REMARK  Name = Gilteritinib
REMARK  11 active torsions:
REMARK  status: ('A' for Active; 'I' for Inactive)
REMARK    1  A    between atoms: C_1  and  C_2
REMARK    2  A    between atoms: C_2  and  C_3
REMARK    3  A    between atoms: C_4  and  N_5
REMARK    4  A    between atoms: N_5  and  C_6
REMARK    5  A    between atoms: N_14  and  C_15
REMARK    6  A    between atoms: C_18  and  N_19
REMARK    7  A    between atoms: C_22  and  N_25
REMARK    8  A    between atoms: N_28  and  C_29
REMARK    9  A    between atoms: C_32  and  O_33
REMARK   10  A    between atoms: O_33  and  C_34
REMARK   11  A    between atoms: C_36  and  C_38
REMARK                            x       y       z     vdW  Elec       q    Type
REMARK                         _______ _______ _______ _____ _____    ______ ____
ROOT
ATOM      1  C   UNL     1      -8.530  -1.704 125.218  0.00  0.00    +0.000 A 
ATOM      2  C   UNL     1      -7.430  -1.347 125.989  0.00  0.00    +0.000 A 
ATOM      3  N   UNL     1      -7.079  -0.055 126.023  0.00  0.00    +0.000 NA
ATOM      4  C   UNL     1      -7.787   0.886 125.353  0.00  0.00    +0.000 A 
ATOM      5  N   UNL     1      -7.452   2.206 125.608  0.00  0.00    +0.000 N 
ATOM      6  C   UNL     1      -8.898   0.528 124.606  0.00  0.00    +0.000 A 
ATOM      7  N   UNL     1      -9.274  -0.785 124.523  0.00  0.00    +0.000 NA
ATOM      8  H   UNL     1      -7.526   2.814 124.814  0.00  0.00    +0.000 HD
ENDROOT
BRANCH   5   9
ATOM      9  C   UNL     1      -6.340   2.640 126.327  0.00  0.00    +0.000 A 
ATOM     10  C   UNL     1      -6.629   2.948 127.635  0.00  0.00    +0.000 A 
ATOM     11  C   UNL     1      -5.693   3.604 128.349  0.00  0.00    +0.000 A 
ATOM     12  C   UNL     1      -4.438   3.937 127.805  0.00  0.00    +0.000 A 
ATOM     13  C   UNL     1      -4.099   3.574 126.484  0.00  0.00    +0.000 A 
ATOM     14  C   UNL     1      -5.108   2.970 125.735  0.00  0.00    +0.000 A 
BRANCH  12  15
ATOM     15  N   UNL     1      -3.694   4.568 128.796  0.00  0.00    +0.000 N 
ATOM     16  C   UNL     1      -3.808   6.003 128.516  0.00  0.00    +0.000 C 
ATOM     17  C   UNL     1      -2.626   6.804 129.149  0.00  0.00    +0.000 C 
ATOM     18  C   UNL     1      -2.444   6.567 130.694  0.00  0.00    +0.000 C 
ATOM     19  C   UNL     1      -2.493   4.915 130.833  0.00  0.00    +0.000 C 
ATOM     20  C   UNL     1      -3.737   4.167 130.201  0.00  0.00    +0.000 C 
BRANCH  18  21
ATOM     21  N   UNL     1      -3.486   7.185 131.630  0.00  0.00    +0.000 NA
ATOM     22  C   UNL     1      -2.752   8.110 132.460  0.00  0.00    +0.000 C 
ATOM     23  C   UNL     1      -2.044   7.506 133.663  0.00  0.00    +0.000 C 
ATOM     24  N   UNL     1      -2.981   7.466 134.722  0.00  0.00    +0.000 NA
ATOM     25  C   UNL     1      -2.117   7.162 135.863  0.00  0.00    +0.000 C 
ATOM     26  C   UNL     1      -3.944   6.455 134.211  0.00  0.00    +0.000 C 
ATOM     27  C   UNL     1      -4.451   6.719 132.674  0.00  0.00    +0.000 C 
ENDBRANCH  18  21
ENDBRANCH  12  15
BRANCH  13  28
ATOM     28  O   UNL     1      -2.824   3.766 126.001  0.00  0.00    +0.000 OA
ATOM     29  C   UNL     1      -1.777   2.995 126.605  0.00  0.00    +0.000 C 
ENDBRANCH  13  28
ENDBRANCH   5   9
BRANCH   6  30
ATOM     30  C   UNL     1      -9.735   1.523 123.841  0.00  0.00    +0.000 C 
ATOM     31  N   UNL     1     -11.113   1.537 123.796  0.00  0.00    +0.000 N 
ATOM     32  O   UNL     1      -9.172   2.445 123.192  0.00  0.00    +0.000 OA
ATOM     33  H   UNL     1     -11.789   0.829 124.044  0.00  0.00    +0.000 HD
ATOM     34  H   UNL     1     -11.517   2.263 123.215  0.00  0.00    +0.000 HD
ENDBRANCH   6  30
BRANCH   1  36
ATOM     35  C   UNL     1      -9.406  -3.382 123.632  0.00  0.00    +0.000 C 
ATOM     36  C   UNL     1      -8.892  -3.153 125.042  0.00  0.00    +0.000 C 
ENDBRANCH   1  36
BRANCH   2  37
ATOM     37  N   UNL     1      -6.627  -2.258 126.655  0.00  0.00    +0.000 N 
ATOM     38  H   UNL     1      -6.307  -3.089 126.183  0.00  0.00    +0.000 HD
BRANCH  37  39
ATOM     39  C   UNL     1      -6.566  -2.292 128.113  0.00  0.00    +0.000 C 
ATOM     40  C   UNL     1      -5.227  -2.815 128.647  0.00  0.00    +0.000 C 
ATOM     41  C   UNL     1      -5.288  -3.068 130.142  0.00  0.00    +0.000 C 
ATOM     42  O   UNL     1      -6.428  -3.837 130.499  0.00  0.00    +0.000 OA
ATOM     43  C   UNL     1      -7.645  -3.184 130.162  0.00  0.00    +0.000 C 
ATOM     44  C   UNL     1      -7.782  -3.028 128.664  0.00  0.00    +0.000 C 
ENDBRANCH  37  39
ENDBRANCH   2  37
TORSDOF 8
ENDMDL
MODEL 2
REMARK VINA RESULT:      -8.0      2.045      4.885
REMARK  Name = Gilteritinib
REMARK  11 active torsions:
REMARK  status: ('A' for Active; 'I' for Inactive)
REMARK    1  A    between atoms: C_1  and  C_2
REMARK    2  A    between atoms: C_2  and  C_3
REMARK    3  A    between atoms: C_4  and  N_5
REMARK    4  A    between atoms: N_5  and  C_6
REMARK    5  A    between atoms: N_14  and  C_15
REMARK    6  A    between atoms: C_18  and  N_19
REMARK    7  A    between atoms: C_22  and  N_25
REMARK    8  A    between atoms: N_28  and  C_29
REMARK    9  A    between atoms: C_32  and  O_33
REMARK   10  A    between atoms: O_33  and  C_34
REMARK   11  A    between atoms: C_36  and  C_38
REMARK                            x       y       z     vdW  Elec       q    Type
REMARK                         _______ _______ _______ _____ _____    ______ ____
ROOT
ATOM      1  C   UNL     1      -7.186  -2.183 125.349  0.00  0.00    +0.000 A 
ATOM      2  C   UNL     1      -6.810  -0.846 125.293  0.00  0.00    +0.000 A 
ATOM      3  N   UNL     1      -6.560  -0.215 126.448  0.00  0.00    +0.000 NA
ATOM      4  C   UNL     1      -6.640  -0.860 127.636  0.00  0.00    +0.000 A 
ATOM      5  N   UNL     1      -6.181  -0.167 128.745  0.00  0.00    +0.000 N 
ATOM      6  C   UNL     1      -6.990  -2.199 127.684  0.00  0.00    +0.000 A 
ATOM      7  N   UNL     1      -7.281  -2.875 126.530  0.00  0.00    +0.000 NA
ATOM      8  H   UNL     1      -6.694  -0.344 129.587  0.00  0.00    +0.000 HD
ENDROOT
BRANCH   5   9
ATOM      9  C   UNL     1      -5.834   1.183 128.777  0.00  0.00    +0.000 A 
ATOM     10  C   UNL     1      -4.549   1.400 129.211  0.00  0.00    +0.000 A 
ATOM     11  C   UNL     1      -4.192   2.664 129.512  0.00  0.00    +0.000 A 
ATOM     12  C   UNL     1      -5.078   3.747 129.357  0.00  0.00    +0.000 A 
ATOM     13  C   UNL     1      -6.382   3.551 128.852  0.00  0.00    +0.000 A 
ATOM     14  C   UNL     1      -6.760   2.229 128.624  0.00  0.00    +0.000 A 
BRANCH  12  15
ATOM     15  N   UNL     1      -4.403   4.910 129.713  0.00  0.00    +0.000 N 
ATOM     16  C   UNL     1      -5.112   5.428 130.887  0.00  0.00    +0.000 C 
ATOM     17  C   UNL     1      -4.866   6.959 131.073  0.00  0.00    +0.000 C 
ATOM     18  C   UNL     1      -3.347   7.362 131.136  0.00  0.00    +0.000 C 
ATOM     19  C   UNL     1      -2.689   6.570 129.836  0.00  0.00    +0.000 C 
ATOM     20  C   UNL     1      -2.945   5.011 129.727  0.00  0.00    +0.000 C 
BRANCH  18  21
ATOM     21  N   UNL     1      -2.570   6.991 132.401  0.00  0.00    +0.000 NA
ATOM     22  C   UNL     1      -2.650   8.152 133.254  0.00  0.00    +0.000 C 
ATOM     23  C   UNL     1      -1.641   9.255 132.970  0.00  0.00    +0.000 C 
ATOM     24  N   UNL     1      -0.466   8.941 133.692  0.00  0.00    +0.000 NA
ATOM     25  C   UNL     1       0.286  10.191 133.583  0.00  0.00    +0.000 C 
ATOM     26  C   UNL     1      -0.012   7.719 132.974  0.00  0.00    +0.000 C 
ATOM     27  C   UNL     1      -1.177   6.585 132.765  0.00  0.00    +0.000 C 
ENDBRANCH  18  21
ENDBRANCH  12  15
BRANCH  13  28
ATOM     28  O   UNL     1      -7.196   4.622 128.560  0.00  0.00    +0.000 OA
ATOM     29  C   UNL     1      -8.500   4.630 129.156  0.00  0.00    +0.000 C 
ENDBRANCH  13  28
ENDBRANCH   5   9
BRANCH   6  30
ATOM     30  C   UNL     1      -7.093  -2.981 128.971  0.00  0.00    +0.000 C 
ATOM     31  N   UNL     1      -8.272  -3.357 129.582  0.00  0.00    +0.000 N 
ATOM     32  O   UNL     1      -6.045  -3.359 129.559  0.00  0.00    +0.000 OA
ATOM     33  H   UNL     1      -9.218  -3.031 129.449  0.00  0.00    +0.000 HD
ATOM     34  H   UNL     1      -8.161  -3.860 130.455  0.00  0.00    +0.000 HD
ENDBRANCH   6  30
BRANCH   1  36
ATOM     35  C   UNL     1      -9.073  -3.265 124.180  0.00  0.00    +0.000 C 
ATOM     36  C   UNL     1      -7.601  -2.906 124.097  0.00  0.00    +0.000 C 
ENDBRANCH   1  36
BRANCH   2  37
ATOM     37  N   UNL     1      -6.761  -0.108 124.122  0.00  0.00    +0.000 N 
ATOM     38  H   UNL     1      -5.914  -0.080 123.578  0.00  0.00    +0.000 HD
BRANCH  37  39
ATOM     39  C   UNL     1      -7.724   0.957 123.856  0.00  0.00    +0.000 C 
ATOM     40  C   UNL     1      -9.041   0.443 123.264  0.00  0.00    +0.000 C 
ATOM     41  C   UNL     1      -9.911   1.586 122.774  0.00  0.00    +0.000 C 
ATOM     42  O   UNL     1      -9.183   2.485 121.949  0.00  0.00    +0.000 OA
ATOM     43  C   UNL     1      -8.096   3.088 122.639  0.00  0.00    +0.000 C 
ATOM     44  C   UNL     1      -7.062   2.056 123.032  0.00  0.00    +0.000 C 
ENDBRANCH  37  39
ENDBRANCH   2  37
TORSDOF 8
ENDMDL
MODEL 3
REMARK VINA RESULT:      -8.0      3.778      7.483
REMARK  Name = Gilteritinib
REMARK  11 active torsions:
REMARK  status: ('A' for Active; 'I' for Inactive)
REMARK    1  A    between atoms: C_1  and  C_2
REMARK    2  A    between atoms: C_2  and  C_3
REMARK    3  A    between atoms: C_4  and  N_5
REMARK    4  A    between atoms: N_5  and  C_6
REMARK    5  A    between atoms: N_14  and  C_15
REMARK    6  A    between atoms: C_18  and  N_19
REMARK    7  A    between atoms: C_22  and  N_25
REMARK    8  A    between atoms: N_28  and  C_29
REMARK    9  A    between atoms: C_32  and  O_33
REMARK   10  A    between atoms: O_33  and  C_34
REMARK   11  A    between atoms: C_36  and  C_38
REMARK                            x       y       z     vdW  Elec       q    Type
REMARK                         _______ _______ _______ _____ _____    ______ ____
ROOT
ATOM      1  C   UNL     1      -6.703   3.178 123.174  0.00  0.00    +0.000 A 
ATOM      2  C   UNL     1      -6.148   3.056 124.443  0.00  0.00    +0.000 A 
ATOM      3  N   UNL     1      -6.840   2.379 125.369  0.00  0.00    +0.000 NA
ATOM      4  C   UNL     1      -8.031   1.803 125.078  0.00  0.00    +0.000 A 
ATOM      5  N   UNL     1      -8.567   0.973 126.050  0.00  0.00    +0.000 N 
ATOM      6  C   UNL     1      -8.567   1.906 123.805  0.00  0.00    +0.000 A 
ATOM      7  N   UNL     1      -7.906   2.612 122.837  0.00  0.00    +0.000 NA
ATOM      8  H   UNL     1      -9.567   1.001 126.114  0.00  0.00    +0.000 HD
ENDROOT
BRANCH   5   9
ATOM      9  C   UNL     1      -8.098   0.837 127.355  0.00  0.00    +0.000 A 
ATOM     10  C   UNL     1      -7.345  -0.298 127.542  0.00  0.00    +0.000 A 
ATOM     11  C   UNL     1      -7.049  -0.654 128.808  0.00  0.00    +0.000 A 
ATOM     12  C   UNL     1      -7.453   0.117 129.914  0.00  0.00    +0.000 A 
ATOM     13  C   UNL     1      -8.172   1.320 129.738  0.00  0.00    +0.000 A 
ATOM     14  C   UNL     1      -8.540   1.629 128.429  0.00  0.00    +0.000 A 
BRANCH  12  15
ATOM     15  N   UNL     1      -6.964  -0.492 131.065  0.00  0.00    +0.000 N 
ATOM     16  C   UNL     1      -6.622  -1.861 130.667  0.00  0.00    +0.000 C 
ATOM     17  C   UNL     1      -6.599  -2.824 131.896  0.00  0.00    +0.000 C 
ATOM     18  C   UNL     1      -5.659  -2.350 133.065  0.00  0.00    +0.000 C 
ATOM     19  C   UNL     1      -6.079  -0.758 133.268  0.00  0.00    +0.000 C 
ATOM     20  C   UNL     1      -6.046   0.173 131.989  0.00  0.00    +0.000 C 
BRANCH  18  21
ATOM     21  N   UNL     1      -4.149  -2.450 132.842  0.00  0.00    +0.000 NA
ATOM     22  C   UNL     1      -3.936  -3.744 132.239  0.00  0.00    +0.000 C 
ATOM     23  C   UNL     1      -3.862  -4.920 133.201  0.00  0.00    +0.000 C 
ATOM     24  N   UNL     1      -2.519  -5.022 133.633  0.00  0.00    +0.000 NA
ATOM     25  C   UNL     1      -2.522  -6.331 134.287  0.00  0.00    +0.000 C 
ATOM     26  C   UNL     1      -2.385  -3.776 134.434  0.00  0.00    +0.000 C 
ATOM     27  C   UNL     1      -2.903  -2.420 133.670  0.00  0.00    +0.000 C 
ENDBRANCH  18  21
ENDBRANCH  12  15
BRANCH  13  28
ATOM     28  O   UNL     1      -8.437   2.149 130.804  0.00  0.00    +0.000 OA
ATOM     29  C   UNL     1      -7.778   3.422 130.817  0.00  0.00    +0.000 C 
ENDBRANCH  13  28
ENDBRANCH   5   9
BRANCH   6  30
ATOM     30  C   UNL     1      -9.885   1.285 123.410  0.00  0.00    +0.000 C 
ATOM     31  N   UNL     1     -10.149   0.680 122.199  0.00  0.00    +0.000 N 
ATOM     32  O   UNL     1     -10.842   1.278 124.228  0.00  0.00    +0.000 OA
ATOM     33  H   UNL     1      -9.655   0.719 121.319  0.00  0.00    +0.000 HD
ATOM     34  H   UNL     1     -11.095   0.333 122.089  0.00  0.00    +0.000 HD
ENDBRANCH   6  30
BRANCH   1  36
ATOM     35  C   UNL     1      -5.632   3.172 120.950  0.00  0.00    +0.000 C 
ATOM     36  C   UNL     1      -6.032   4.032 122.134  0.00  0.00    +0.000 C 
ENDBRANCH   1  36
BRANCH   2  37
ATOM     37  N   UNL     1      -4.964   3.663 124.828  0.00  0.00    +0.000 N 
ATOM     38  H   UNL     1      -4.248   3.851 124.146  0.00  0.00    +0.000 HD
BRANCH  37  39
ATOM     39  C   UNL     1      -4.531   3.664 126.222  0.00  0.00    +0.000 C 
ATOM     40  C   UNL     1      -4.757   5.009 126.921  0.00  0.00    +0.000 C 
ATOM     41  C   UNL     1      -4.076   5.050 128.277  0.00  0.00    +0.000 C 
ATOM     42  O   UNL     1      -2.722   4.625 128.199  0.00  0.00    +0.000 OA
ATOM     43  C   UNL     1      -2.605   3.284 127.741  0.00  0.00    +0.000 C 
ATOM     44  C   UNL     1      -3.099   3.149 126.318  0.00  0.00    +0.000 C 
ENDBRANCH  37  39
ENDBRANCH   2  37
TORSDOF 8
ENDMDL
MODEL 4
REMARK VINA RESULT:      -8.0      4.329      6.900
REMARK  Name = Gilteritinib
REMARK  11 active torsions:
REMARK  status: ('A' for Active; 'I' for Inactive)
REMARK    1  A    between atoms: C_1  and  C_2
REMARK    2  A    between atoms: C_2  and  C_3
REMARK    3  A    between atoms: C_4  and  N_5
REMARK    4  A    between atoms: N_5  and  C_6
REMARK    5  A    between atoms: N_14  and  C_15
REMARK    6  A    between atoms: C_18  and  N_19
REMARK    7  A    between atoms: C_22  and  N_25
REMARK    8  A    between atoms: N_28  and  C_29
REMARK    9  A    between atoms: C_32  and  O_33
REMARK   10  A    between atoms: O_33  and  C_34
REMARK   11  A    between atoms: C_36  and  C_38
REMARK                            x       y       z     vdW  Elec       q    Type
REMARK                         _______ _______ _______ _____ _____    ______ ____
ROOT
ATOM      1  C   UNL     1      -5.603  -1.332 125.974  0.00  0.00    +0.000 A 
ATOM      2  C   UNL     1      -5.940  -0.069 126.446  0.00  0.00    +0.000 A 
ATOM      3  N   UNL     1      -5.888   0.142 127.768  0.00  0.00    +0.000 NA
ATOM      4  C   UNL     1      -5.492  -0.831 128.623  0.00  0.00    +0.000 A 
ATOM      5  N   UNL     1      -5.294  -0.451 129.941  0.00  0.00    +0.000 N 
ATOM      6  C   UNL     1      -5.132  -2.081 128.145  0.00  0.00    +0.000 A 
ATOM      7  N   UNL     1      -5.197  -2.347 126.804  0.00  0.00    +0.000 NA
ATOM      8  H   UNL     1      -5.545  -1.147 130.616  0.00  0.00    +0.000 HD
ENDROOT
BRANCH   5   9
ATOM      9  C   UNL     1      -5.652   0.776 130.497  0.00  0.00    +0.000 A 
ATOM     10  C   UNL     1      -7.009   0.920 130.660  0.00  0.00    +0.000 A 
ATOM     11  C   UNL     1      -7.480   2.148 130.957  0.00  0.00    +0.000 A 
ATOM     12  C   UNL     1      -6.626   3.251 131.138  0.00  0.00    +0.000 A 
ATOM     13  C   UNL     1      -5.225   3.109 131.036  0.00  0.00    +0.000 A 
ATOM     14  C   UNL     1      -4.761   1.853 130.648  0.00  0.00    +0.000 A 
BRANCH  12  15
ATOM     15  N   UNL     1      -7.409   4.352 131.468  0.00  0.00    +0.000 N 
ATOM     16  C   UNL     1      -7.830   4.930 130.188  0.00  0.00    +0.000 C 
ATOM     17  C   UNL     1      -8.221   6.434 130.341  0.00  0.00    +0.000 C 
ATOM     18  C   UNL     1      -9.311   6.705 131.442  0.00  0.00    +0.000 C 
ATOM     19  C   UNL     1      -8.747   5.859 132.752  0.00  0.00    +0.000 C 
ATOM     20  C   UNL     1      -8.405   4.328 132.538  0.00  0.00    +0.000 C 
BRANCH  18  21
ATOM     21  N   UNL     1     -10.746   6.269 131.137  0.00  0.00    +0.000 NA
ATOM     22  C   UNL     1     -10.965   6.614 129.753  0.00  0.00    +0.000 C 
ATOM     23  C   UNL     1     -11.357   8.058 129.482  0.00  0.00    +0.000 C 
ATOM     24  N   UNL     1     -12.763   8.139 129.612  0.00  0.00    +0.000 NA
ATOM     25  C   UNL     1     -13.032   9.461 129.045  0.00  0.00    +0.000 C 
ATOM     26  C   UNL     1     -12.928   7.893 131.070  0.00  0.00    +0.000 C 
ATOM     27  C   UNL     1     -12.125   6.577 131.629  0.00  0.00    +0.000 C 
ENDBRANCH  18  21
ENDBRANCH  12  15
BRANCH  13  28
ATOM     28  O   UNL     1      -4.383   4.150 131.358  0.00  0.00    +0.000 OA
ATOM     29  C   UNL     1      -4.149   4.390 132.752  0.00  0.00    +0.000 C 
ENDBRANCH  13  28
ENDBRANCH   5   9
BRANCH   6  30
ATOM     30  C   UNL     1      -4.676  -3.208 129.038  0.00  0.00    +0.000 C 
ATOM     31  N   UNL     1      -3.397  -3.725 129.078  0.00  0.00    +0.000 N 
ATOM     32  O   UNL     1      -5.488  -3.735 129.843  0.00  0.00    +0.000 OA
ATOM     33  H   UNL     1      -2.628  -3.636 128.430  0.00  0.00    +0.000 HD
ATOM     34  H   UNL     1      -3.266  -4.497 129.721  0.00  0.00    +0.000 HD
ENDBRANCH   6  30
BRANCH   1  36
ATOM     35  C   UNL     1      -5.406  -3.118 124.282  0.00  0.00    +0.000 C 
ATOM     36  C   UNL     1      -5.764  -1.663 124.516  0.00  0.00    +0.000 C 
ENDBRANCH   1  36
BRANCH   2  37
ATOM     37  N   UNL     1      -6.407   0.956 125.640  0.00  0.00    +0.000 N 
ATOM     38  H   UNL     1      -6.399   0.853 124.638  0.00  0.00    +0.000 HD
BRANCH  37  39
ATOM     39  C   UNL     1      -6.517   2.323 126.140  0.00  0.00    +0.000 C 
ATOM     40  C   UNL     1      -7.784   3.039 125.658  0.00  0.00    +0.000 C 
ATOM     41  C   UNL     1      -7.742   4.520 125.987  0.00  0.00    +0.000 C 
ATOM     42  O   UNL     1      -6.517   5.115 125.583  0.00  0.00    +0.000 OA
ATOM     43  C   UNL     1      -5.396   4.535 126.239  0.00  0.00    +0.000 C 
ATOM     44  C   UNL     1      -5.228   3.084 125.849  0.00  0.00    +0.000 C 
ENDBRANCH  37  39
ENDBRANCH   2  37
TORSDOF 8
ENDMDL
MODEL 5
REMARK VINA RESULT:      -7.9      2.604      3.824
REMARK  Name = Gilteritinib
REMARK  11 active torsions:
REMARK  status: ('A' for Active; 'I' for Inactive)
REMARK    1  A    between atoms: C_1  and  C_2
REMARK    2  A    between atoms: C_2  and  C_3
REMARK    3  A    between atoms: C_4  and  N_5
REMARK    4  A    between atoms: N_5  and  C_6
REMARK    5  A    between atoms: N_14  and  C_15
REMARK    6  A    between atoms: C_18  and  N_19
REMARK    7  A    between atoms: C_22  and  N_25
REMARK    8  A    between atoms: N_28  and  C_29
REMARK    9  A    between atoms: C_32  and  O_33
REMARK   10  A    between atoms: O_33  and  C_34
REMARK   11  A    between atoms: C_36  and  C_38
REMARK                            x       y       z     vdW  Elec       q    Type
REMARK                         _______ _______ _______ _____ _____    ______ ____
ROOT
ATOM      1  C   UNL     1      -7.536  -2.174 128.261  0.00  0.00    +0.000 A 
ATOM      2  C   UNL     1      -7.185  -0.891 128.668  0.00  0.00    +0.000 A 
ATOM      3  N   UNL     1      -6.585  -0.091 127.776  0.00  0.00    +0.000 NA
ATOM      4  C   UNL     1      -6.351  -0.501 126.506  0.00  0.00    +0.000 A 
ATOM      5  N   UNL     1      -5.900   0.465 125.621  0.00  0.00    +0.000 N 
ATOM      6  C   UNL     1      -6.725  -1.771 126.099  0.00  0.00    +0.000 A 
ATOM      7  N   UNL     1      -7.315  -2.630 126.985  0.00  0.00    +0.000 NA
ATOM      8  H   UNL     1      -5.246   0.131 124.939  0.00  0.00    +0.000 HD
ENDROOT
BRANCH   5   9
ATOM      9  C   UNL     1      -5.485   1.752 125.961  0.00  0.00    +0.000 A 
ATOM     10  C   UNL     1      -4.270   1.775 126.603  0.00  0.00    +0.000 A 
ATOM     11  C   UNL     1      -3.891   2.927 127.190  0.00  0.00    +0.000 A 
ATOM     12  C   UNL     1      -4.678   4.092 127.125  0.00  0.00    +0.000 A 
ATOM     13  C   UNL     1      -5.899   4.105 126.415  0.00  0.00    +0.000 A 
ATOM     14  C   UNL     1      -6.314   2.884 125.886  0.00  0.00    +0.000 A 
BRANCH  12  15
ATOM     15  N   UNL     1      -4.000   5.108 127.789  0.00  0.00    +0.000 N 
ATOM     16  C   UNL     1      -4.735   5.315 129.040  0.00  0.00    +0.000 C 
ATOM     17  C   UNL     1      -4.475   6.740 129.626  0.00  0.00    +0.000 C 
ATOM     18  C   UNL     1      -2.953   7.082 129.830  0.00  0.00    +0.000 C 
ATOM     19  C   UNL     1      -2.269   6.644 128.384  0.00  0.00    +0.000 C 
ATOM     20  C   UNL     1      -2.541   5.174 127.865  0.00  0.00    +0.000 C 
BRANCH  18  21
ATOM     21  N   UNL     1      -2.217   6.378 130.972  0.00  0.00    +0.000 NA
ATOM     22  C   UNL     1      -2.998   6.650 132.155  0.00  0.00    +0.000 C 
ATOM     23  C   UNL     1      -2.739   7.990 132.828  0.00  0.00    +0.000 C 
ATOM     24  N   UNL     1      -1.654   7.807 133.717  0.00  0.00    +0.000 NA
ATOM     25  C   UNL     1      -1.705   9.044 134.497  0.00  0.00    +0.000 C 
ATOM     26  C   UNL     1      -0.542   7.560 132.760  0.00  0.00    +0.000 C 
ATOM     27  C   UNL     1      -0.870   6.430 131.619  0.00  0.00    +0.000 C 
ENDBRANCH  18  21
ENDBRANCH  12  15
BRANCH  13  28
ATOM     28  O   UNL     1      -6.595   5.277 126.225  0.00  0.00    +0.000 OA
ATOM     29  C   UNL     1      -7.961   5.162 125.804  0.00  0.00    +0.000 C 
ENDBRANCH  13  28
ENDBRANCH   5   9
BRANCH   6  30
ATOM     30  C   UNL     1      -6.500  -2.290 124.700  0.00  0.00    +0.000 C 
ATOM     31  N   UNL     1      -7.384  -3.076 123.990  0.00  0.00    +0.000 N 
ATOM     32  O   UNL     1      -5.442  -1.990 124.084  0.00  0.00    +0.000 OA
ATOM     33  H   UNL     1      -8.182  -3.614 124.296  0.00  0.00    +0.000 HD
ATOM     34  H   UNL     1      -7.066  -3.357 123.070  0.00  0.00    +0.000 HD
ENDBRANCH   6  30
BRANCH   1  36
ATOM     35  C   UNL     1      -6.967  -3.730 130.091  0.00  0.00    +0.000 C 
ATOM     36  C   UNL     1      -8.094  -3.156 129.253  0.00  0.00    +0.000 C 
ENDBRANCH   1  36
BRANCH   2  37
ATOM     37  N   UNL     1      -7.343  -0.423 129.961  0.00  0.00    +0.000 N 
ATOM     38  H   UNL     1      -7.113  -1.015 130.744  0.00  0.00    +0.000 HD
BRANCH  37  39
ATOM     39  C   UNL     1      -8.209   0.714 130.256  0.00  0.00    +0.000 C 
ATOM     40  C   UNL     1      -7.463   2.054 130.257  0.00  0.00    +0.000 C 
ATOM     41  C   UNL     1      -8.332   3.170 130.805  0.00  0.00    +0.000 C 
ATOM     42  O   UNL     1      -8.937   2.810 132.039  0.00  0.00    +0.000 OA
ATOM     43  C   UNL     1      -9.788   1.677 131.910  0.00  0.00    +0.000 C 
ATOM     44  C   UNL     1      -8.999   0.444 131.531  0.00  0.00    +0.000 C 
ENDBRANCH  37  39
ENDBRANCH   2  37
TORSDOF 8
ENDMDL
MODEL 6
REMARK VINA RESULT:      -7.8      2.096      2.849
REMARK  Name = Gilteritinib
REMARK  11 active torsions:
REMARK  status: ('A' for Active; 'I' for Inactive)
REMARK    1  A    between atoms: C_1  and  C_2
REMARK    2  A    between atoms: C_2  and  C_3
REMARK    3  A    between atoms: C_4  and  N_5
REMARK    4  A    between atoms: N_5  and  C_6
REMARK    5  A    between atoms: N_14  and  C_15
REMARK    6  A    between atoms: C_18  and  N_19
REMARK    7  A    between atoms: C_22  and  N_25
REMARK    8  A    between atoms: N_28  and  C_29
REMARK    9  A    between atoms: C_32  and  O_33
REMARK   10  A    between atoms: O_33  and  C_34
REMARK   11  A    between atoms: C_36  and  C_38
REMARK                            x       y       z     vdW  Elec       q    Type
REMARK                         _______ _______ _______ _____ _____    ______ ____
ROOT
ATOM      1  C   UNL     1      -6.941  -1.057 124.448  0.00  0.00    +0.000 A 
ATOM      2  C   UNL     1      -6.533  -0.667 125.719  0.00  0.00    +0.000 A 
ATOM      3  N   UNL     1      -6.910   0.541 126.156  0.00  0.00    +0.000 NA
ATOM      4  C   UNL     1      -7.689   1.353 125.402  0.00  0.00    +0.000 A 
ATOM      5  N   UNL     1      -8.173   2.494 126.023  0.00  0.00    +0.000 N 
ATOM      6  C   UNL     1      -8.114   0.949 124.147  0.00  0.00    +0.000 A 
ATOM      7  N   UNL     1      -7.729  -0.266 123.651  0.00  0.00    +0.000 NA
ATOM      8  H   UNL     1      -8.243   3.294 125.425  0.00  0.00    +0.000 HD
ENDROOT
BRANCH   5   9
ATOM      9  C   UNL     1      -7.776   2.973 127.270  0.00  0.00    +0.000 A 
ATOM     10  C   UNL     1      -6.671   3.788 127.208  0.00  0.00    +0.000 A 
ATOM     11  C   UNL     1      -6.059   4.107 128.366  0.00  0.00    +0.000 A 
ATOM     12  C   UNL     1      -6.541   3.664 129.612  0.00  0.00    +0.000 A 
ATOM     13  C   UNL     1      -7.711   2.878 129.700  0.00  0.00    +0.000 A 
ATOM     14  C   UNL     1      -8.283   2.490 128.489  0.00  0.00    +0.000 A 
BRANCH  12  15
ATOM     15  N   UNL     1      -5.719   4.189 130.603  0.00  0.00    +0.000 N 
ATOM     16  C   UNL     1      -4.349   3.991 130.119  0.00  0.00    +0.000 C 
ATOM     17  C   UNL     1      -3.322   3.994 131.296  0.00  0.00    +0.000 C 
ATOM     18  C   UNL     1      -3.395   5.274 132.208  0.00  0.00    +0.000 C 
ATOM     19  C   UNL     1      -5.016   5.424 132.523  0.00  0.00    +0.000 C 
ATOM     20  C   UNL     1      -6.000   5.451 131.284  0.00  0.00    +0.000 C 
BRANCH  18  21
ATOM     21  N   UNL     1      -2.870   6.588 131.624  0.00  0.00    +0.000 NA
ATOM     22  C   UNL     1      -1.432   6.479 131.672  0.00  0.00    +0.000 C 
ATOM     23  C   UNL     1      -0.783   6.824 133.004  0.00  0.00    +0.000 C 
ATOM     24  N   UNL     1      -0.570   8.222 133.015  0.00  0.00    +0.000 NA
ATOM     25  C   UNL     1       0.306   8.374 134.177  0.00  0.00    +0.000 C 
ATOM     26  C   UNL     1      -1.971   8.722 133.052  0.00  0.00    +0.000 C 
ATOM     27  C   UNL     1      -2.959   8.049 131.930  0.00  0.00    +0.000 C 
ENDBRANCH  18  21
ENDBRANCH  12  15
BRANCH  13  28
ATOM     28  O   UNL     1      -8.266   2.569 130.921  0.00  0.00    +0.000 OA
ATOM     29  C   UNL     1      -9.413   3.329 131.325  0.00  0.00    +0.000 C 
ENDBRANCH  13  28
ENDBRANCH   5   9
BRANCH   6  30
ATOM     30  C   UNL     1      -8.986   1.799 123.256  0.00  0.00    +0.000 C 
ATOM     31  N   UNL     1     -10.090   1.351 122.561  0.00  0.00    +0.000 N 
ATOM     32  O   UNL     1      -8.736   3.027 123.123  0.00  0.00    +0.000 OA
ATOM     33  H   UNL     1     -10.391   0.415 122.331  0.00  0.00    +0.000 HD
ATOM     34  H   UNL     1     -10.552   2.050 121.990  0.00  0.00    +0.000 HD
ENDBRANCH   6  30
BRANCH   1  36
ATOM     35  C   UNL     1      -6.035  -2.121 122.413  0.00  0.00    +0.000 C 
ATOM     36  C   UNL     1      -6.443  -2.347 123.857  0.00  0.00    +0.000 C 
ENDBRANCH   1  36
BRANCH   2  37
ATOM     37  N   UNL     1      -5.693  -1.419 126.523  0.00  0.00    +0.000 N 
ATOM     38  H   UNL     1      -4.931  -1.936 126.114  0.00  0.00    +0.000 HD
BRANCH  37  39
ATOM     39  C   UNL     1      -6.097  -1.836 127.862  0.00  0.00    +0.000 C 
ATOM     40  C   UNL     1      -4.989  -2.574 128.623  0.00  0.00    +0.000 C 
ATOM     41  C   UNL     1      -5.518  -3.203 129.898  0.00  0.00    +0.000 C 
ATOM     42  O   UNL     1      -6.700  -3.956 129.663  0.00  0.00    +0.000 OA
ATOM     43  C   UNL     1      -7.757  -3.152 129.155  0.00  0.00    +0.000 C 
ATOM     44  C   UNL     1      -7.414  -2.601 127.789  0.00  0.00    +0.000 C 
ENDBRANCH  37  39
ENDBRANCH   2  37
TORSDOF 8
ENDMDL
MODEL 7
REMARK VINA RESULT:      -7.7      3.827      8.188
REMARK  Name = Gilteritinib
REMARK  11 active torsions:
REMARK  status: ('A' for Active; 'I' for Inactive)
REMARK    1  A    between atoms: C_1  and  C_2
REMARK    2  A    between atoms: C_2  and  C_3
REMARK    3  A    between atoms: C_4  and  N_5
REMARK    4  A    between atoms: N_5  and  C_6
REMARK    5  A    between atoms: N_14  and  C_15
REMARK    6  A    between atoms: C_18  and  N_19
REMARK    7  A    between atoms: C_22  and  N_25
REMARK    8  A    between atoms: N_28  and  C_29
REMARK    9  A    between atoms: C_32  and  O_33
REMARK   10  A    between atoms: O_33  and  C_34
REMARK   11  A    between atoms: C_36  and  C_38
REMARK                            x       y       z     vdW  Elec       q    Type
REMARK                         _______ _______ _______ _____ _____    ______ ____
ROOT
ATOM      1  C   UNL     1      -7.648   1.561 124.498  0.00  0.00    +0.000 A 
ATOM      2  C   UNL     1      -7.069   1.343 125.744  0.00  0.00    +0.000 A 
ATOM      3  N   UNL     1      -7.067   0.093 126.225  0.00  0.00    +0.000 NA
ATOM      4  C   UNL     1      -7.585  -0.938 125.515  0.00  0.00    +0.000 A 
ATOM      5  N   UNL     1      -7.363  -2.208 126.022  0.00  0.00    +0.000 N 
ATOM      6  C   UNL     1      -8.139  -0.719 124.264  0.00  0.00    +0.000 A 
ATOM      7  N   UNL     1      -8.186   0.547 123.747  0.00  0.00    +0.000 NA
ATOM      8  H   UNL     1      -8.118  -2.851 125.878  0.00  0.00    +0.000 HD
ENDROOT
BRANCH   5   9
ATOM      9  C   UNL     1      -6.834  -2.504 127.277  0.00  0.00    +0.000 A 
ATOM     10  C   UNL     1      -7.799  -2.743 128.227  0.00  0.00    +0.000 A 
ATOM     11  C   UNL     1      -7.412  -2.796 129.517  0.00  0.00    +0.000 A 
ATOM     12  C   UNL     1      -6.065  -2.654 129.898  0.00  0.00    +0.000 A 
ATOM     13  C   UNL     1      -5.052  -2.470 128.932  0.00  0.00    +0.000 A 
ATOM     14  C   UNL     1      -5.479  -2.336 127.612  0.00  0.00    +0.000 A 
BRANCH  12  15
ATOM     15  N   UNL     1      -5.992  -2.793 131.280  0.00  0.00    +0.000 N 
ATOM     16  C   UNL     1      -7.349  -2.535 131.771  0.00  0.00    +0.000 C 
ATOM     17  C   UNL     1      -7.342  -2.100 133.271  0.00  0.00    +0.000 C 
ATOM     18  C   UNL     1      -6.603  -3.106 134.227  0.00  0.00    +0.000 C 
ATOM     19  C   UNL     1      -5.172  -3.396 133.442  0.00  0.00    +0.000 C 
ATOM     20  C   UNL     1      -5.251  -3.870 131.934  0.00  0.00    +0.000 C 
BRANCH  18  21
ATOM     21  N   UNL     1      -7.297  -4.438 134.522  0.00  0.00    +0.000 NA
ATOM     22  C   UNL     1      -8.575  -4.086 135.091  0.00  0.00    +0.000 C 
ATOM     23  C   UNL     1      -8.574  -3.768 136.579  0.00  0.00    +0.000 C 
ATOM     24  N   UNL     1      -8.728  -4.994 137.267  0.00  0.00    +0.000 NA
ATOM     25  C   UNL     1      -9.011  -4.532 138.626  0.00  0.00    +0.000 C 
ATOM     26  C   UNL     1      -7.437  -5.662 136.948  0.00  0.00    +0.000 C 
ATOM     27  C   UNL     1      -7.048  -5.655 135.355  0.00  0.00    +0.000 C 
ENDBRANCH  18  21
ENDBRANCH  12  15
BRANCH  13  28
ATOM     28  O   UNL     1      -3.723  -2.480 129.290  0.00  0.00    +0.000 OA
ATOM     29  C   UNL     1      -2.992  -3.690 129.046  0.00  0.00    +0.000 C 
ENDBRANCH  13  28
ENDBRANCH   5   9
BRANCH   6  30
ATOM     30  C   UNL     1      -8.728  -1.820 123.417  0.00  0.00    +0.000 C 
ATOM     31  N   UNL     1      -8.258  -2.212 122.181  0.00  0.00    +0.000 N 
ATOM     32  O   UNL     1      -9.717  -2.474 123.842  0.00  0.00    +0.000 OA
ATOM     33  H   UNL     1      -7.634  -1.750 121.535  0.00  0.00    +0.000 HD
ATOM     34  H   UNL     1      -8.785  -2.955 121.736  0.00  0.00    +0.000 HD
ENDBRANCH   6  30
BRANCH   1  36
ATOM     35  C   UNL     1      -6.911   3.131 122.742  0.00  0.00    +0.000 C 
ATOM     36  C   UNL     1      -7.792   2.960 123.966  0.00  0.00    +0.000 C 
ENDBRANCH   1  36
BRANCH   2  37
ATOM     37  N   UNL     1      -6.570   2.353 126.549  0.00  0.00    +0.000 N 
ATOM     38  H   UNL     1      -7.107   3.193 126.696  0.00  0.00    +0.000 HD
BRANCH  37  39
ATOM     39  C   UNL     1      -5.146   2.447 126.853  0.00  0.00    +0.000 C 
ATOM     40  C   UNL     1      -4.860   2.617 128.350  0.00  0.00    +0.000 C 
ATOM     41  C   UNL     1      -3.403   2.957 128.601  0.00  0.00    +0.000 C 
ATOM     42  O   UNL     1      -2.961   4.024 127.773  0.00  0.00    +0.000 OA
ATOM     43  C   UNL     1      -3.058   3.706 126.390  0.00  0.00    +0.000 C 
ATOM     44  C   UNL     1      -4.500   3.513 125.975  0.00  0.00    +0.000 C 
ENDBRANCH  37  39
ENDBRANCH   2  37
TORSDOF 8
ENDMDL
MODEL 8
REMARK VINA RESULT:      -7.6      4.874      7.809
REMARK  Name = Gilteritinib
REMARK  11 active torsions:
REMARK  status: ('A' for Active; 'I' for Inactive)
REMARK    1  A    between atoms: C_1  and  C_2
REMARK    2  A    between atoms: C_2  and  C_3
REMARK    3  A    between atoms: C_4  and  N_5
REMARK    4  A    between atoms: N_5  and  C_6
REMARK    5  A    between atoms: N_14  and  C_15
REMARK    6  A    between atoms: C_18  and  N_19
REMARK    7  A    between atoms: C_22  and  N_25
REMARK    8  A    between atoms: N_28  and  C_29
REMARK    9  A    between atoms: C_32  and  O_33
REMARK   10  A    between atoms: O_33  and  C_34
REMARK   11  A    between atoms: C_36  and  C_38
REMARK                            x       y       z     vdW  Elec       q    Type
REMARK                         _______ _______ _______ _____ _____    ______ ____
ROOT
ATOM      1  C   UNL     1      -4.501  -2.529 130.481  0.00  0.00    +0.000 A 
ATOM      2  C   UNL     1      -5.278  -1.468 130.030  0.00  0.00    +0.000 A 
ATOM      3  N   UNL     1      -5.609  -0.514 130.911  0.00  0.00    +0.000 NA
ATOM      4  C   UNL     1      -5.180  -0.559 132.195  0.00  0.00    +0.000 A 
ATOM      5  N   UNL     1      -5.422   0.567 132.965  0.00  0.00    +0.000 N 
ATOM      6  C   UNL     1      -4.385  -1.606 132.632  0.00  0.00    +0.000 A 
ATOM      7  N   UNL     1      -4.046  -2.615 131.773  0.00  0.00    +0.000 NA
ATOM      8  H   UNL     1      -5.628   0.376 133.927  0.00  0.00    +0.000 HD
ENDROOT
BRANCH   5   9
ATOM      9  C   UNL     1      -6.229   1.645 132.602  0.00  0.00    +0.000 A 
ATOM     10  C   UNL     1      -7.481   1.596 133.164  0.00  0.00    +0.000 A 
ATOM     11  C   UNL     1      -8.416   2.445 132.693  0.00  0.00    +0.000 A 
ATOM     12  C   UNL     1      -8.129   3.387 131.687  0.00  0.00    +0.000 A 
ATOM     13  C   UNL     1      -6.832   3.495 131.142  0.00  0.00    +0.000 A 
ATOM     14  C   UNL     1      -5.901   2.554 131.581  0.00  0.00    +0.000 A 
BRANCH  12  15
ATOM     15  N   UNL     1      -9.281   4.130 131.453  0.00  0.00    +0.000 N 
ATOM     16  C   UNL     1      -9.128   5.350 132.250  0.00  0.00    +0.000 C 
ATOM     17  C   UNL     1     -10.509   6.012 132.554  0.00  0.00    +0.000 C 
ATOM     18  C   UNL     1     -11.374   6.307 131.273  0.00  0.00    +0.000 C 
ATOM     19  C   UNL     1     -11.307   4.880 130.432  0.00  0.00    +0.000 C 
ATOM     20  C   UNL     1      -9.874   4.282 130.125  0.00  0.00    +0.000 C 
BRANCH  18  21
ATOM     21  N   UNL     1     -10.922   7.453 130.364  0.00  0.00    +0.000 NA
ATOM     22  C   UNL     1     -12.121   7.919 129.711  0.00  0.00    +0.000 C 
ATOM     23  C   UNL     1     -12.558   7.131 128.484  0.00  0.00    +0.000 C 
ATOM     24  N   UNL     1     -11.872   7.675 127.374  0.00  0.00    +0.000 NA
ATOM     25  C   UNL     1     -12.587   7.055 126.258  0.00  0.00    +0.000 C 
ATOM     26  C   UNL     1     -10.471   7.282 127.687  0.00  0.00    +0.000 C 
ATOM     27  C   UNL     1      -9.990   7.648 129.211  0.00  0.00    +0.000 C 
ENDBRANCH  18  21
ENDBRANCH  12  15
BRANCH  13  28
ATOM     28  O   UNL     1      -6.513   4.510 130.268  0.00  0.00    +0.000 OA
ATOM     29  C   UNL     1      -5.694   4.166 129.143  0.00  0.00    +0.000 C 
ENDBRANCH  13  28
ENDBRANCH   5   9
BRANCH   6  30
ATOM     30  C   UNL     1      -3.868  -1.717 134.045  0.00  0.00    +0.000 C 
ATOM     31  N   UNL     1      -2.539  -1.814 134.402  0.00  0.00    +0.000 N 
ATOM     32  O   UNL     1      -4.677  -1.702 135.010  0.00  0.00    +0.000 OA
ATOM     33  H   UNL     1      -1.723  -2.043 133.853  0.00  0.00    +0.000 HD
ATOM     34  H   UNL     1      -2.366  -1.903 135.396  0.00  0.00    +0.000 HD
ENDBRANCH   6  30
BRANCH   1  36
ATOM     35  C   UNL     1      -2.762  -3.620 129.110  0.00  0.00    +0.000 C 
ATOM     36  C   UNL     1      -4.205  -3.690 129.572  0.00  0.00    +0.000 C 
ENDBRANCH   1  36
BRANCH   2  37
ATOM     37  N   UNL     1      -5.798  -1.383 128.750  0.00  0.00    +0.000 N 
ATOM     38  H   UNL     1      -5.378  -0.764 128.075  0.00  0.00    +0.000 HD
BRANCH  37  39
ATOM     39  C   UNL     1      -7.159  -1.820 128.453  0.00  0.00    +0.000 C 
ATOM     40  C   UNL     1      -7.546  -3.114 129.178  0.00  0.00    +0.000 C 
ATOM     41  C   UNL     1      -8.861  -3.666 128.660  0.00  0.00    +0.000 C 
ATOM     42  O   UNL     1      -8.881  -3.735 127.241  0.00  0.00    +0.000 OA
ATOM     43  C   UNL     1      -8.728  -2.456 126.639  0.00  0.00    +0.000 C 
ATOM     44  C   UNL     1      -7.367  -1.869 126.944  0.00  0.00    +0.000 C 
ENDBRANCH  37  39
ENDBRANCH   2  37
TORSDOF 8
ENDMDL
MODEL 9
REMARK VINA RESULT:      -7.6      4.476      7.951
REMARK  Name = Gilteritinib
REMARK  11 active torsions:
REMARK  status: ('A' for Active; 'I' for Inactive)
REMARK    1  A    between atoms: C_1  and  C_2
REMARK    2  A    between atoms: C_2  and  C_3
REMARK    3  A    between atoms: C_4  and  N_5
REMARK    4  A    between atoms: N_5  and  C_6
REMARK    5  A    between atoms: N_14  and  C_15
REMARK    6  A    between atoms: C_18  and  N_19
REMARK    7  A    between atoms: C_22  and  N_25
REMARK    8  A    between atoms: N_28  and  C_29
REMARK    9  A    between atoms: C_32  and  O_33
REMARK   10  A    between atoms: O_33  and  C_34
REMARK   11  A    between atoms: C_36  and  C_38
REMARK                            x       y       z     vdW  Elec       q    Type
REMARK                         _______ _______ _______ _____ _____    ______ ____
ROOT
ATOM      1  C   UNL     1     -10.730   6.081 130.904  0.00  0.00    +0.000 A 
ATOM      2  C   UNL     1      -9.825   5.036 131.049  0.00  0.00    +0.000 A 
ATOM      3  N   UNL     1      -9.134   4.649 129.968  0.00  0.00    +0.000 NA
ATOM      4  C   UNL     1      -9.286   5.269 128.774  0.00  0.00    +0.000 A 
ATOM      5  N   UNL     1      -8.392   4.915 127.777  0.00  0.00    +0.000 N 
ATOM      6  C   UNL     1     -10.172   6.327 128.641  0.00  0.00    +0.000 A 
ATOM      7  N   UNL     1     -10.917   6.736 129.713  0.00  0.00    +0.000 NA
ATOM      8  H   UNL     1      -8.781   4.906 126.854  0.00  0.00    +0.000 HD
ENDROOT
BRANCH   5   9
ATOM      9  C   UNL     1      -7.492   3.852 127.830  0.00  0.00    +0.000 A 
ATOM     10  C   UNL     1      -8.107   2.628 127.933  0.00  0.00    +0.000 A 
ATOM     11  C   UNL     1      -7.340   1.561 128.236  0.00  0.00    +0.000 A 
ATOM     12  C   UNL     1      -5.947   1.669 128.406  0.00  0.00    +0.000 A 
ATOM     13  C   UNL     1      -5.289   2.907 128.242  0.00  0.00    +0.000 A 
ATOM     14  C   UNL     1      -6.107   4.012 128.010  0.00  0.00    +0.000 A 
BRANCH  12  15
ATOM     15  N   UNL     1      -5.447   0.398 128.671  0.00  0.00    +0.000 N 
ATOM     16  C   UNL     1      -4.997   0.439 130.066  0.00  0.00    +0.000 C 
ATOM     17  C   UNL     1      -3.931  -0.666 130.354  0.00  0.00    +0.000 C 
ATOM     18  C   UNL     1      -4.396  -2.120 129.978  0.00  0.00    +0.000 C 
ATOM     19  C   UNL     1      -5.008  -1.940 128.447  0.00  0.00    +0.000 C 
ATOM     20  C   UNL     1      -6.112  -0.827 128.231  0.00  0.00    +0.000 C 
BRANCH  18  21
ATOM     21  N   UNL     1      -5.451  -2.777 130.870  0.00  0.00    +0.000 NA
ATOM     22  C   UNL     1      -4.927  -2.688 132.212  0.00  0.00    +0.000 C 
ATOM     23  C   UNL     1      -3.933  -3.769 132.609  0.00  0.00    +0.000 C 
ATOM     24  N   UNL     1      -4.682  -4.868 133.091  0.00  0.00    +0.000 NA
ATOM     25  C   UNL     1      -3.637  -5.687 133.705  0.00  0.00    +0.000 C 
ATOM     26  C   UNL     1      -5.361  -5.315 131.846  0.00  0.00    +0.000 C 
ATOM     27  C   UNL     1      -6.105  -4.115 131.011  0.00  0.00    +0.000 C 
ENDBRANCH  18  21
ENDBRANCH  12  15
BRANCH  13  28
ATOM     28  O   UNL     1      -3.915   2.986 128.261  0.00  0.00    +0.000 OA
ATOM     29  C   UNL     1      -3.248   3.019 126.992  0.00  0.00    +0.000 C 
ENDBRANCH  13  28
ENDBRANCH   5   9
BRANCH   6  30
ATOM     30  C   UNL     1     -10.387   7.067 127.344  0.00  0.00    +0.000 C 
ATOM     31  N   UNL     1     -10.851   8.362 127.233  0.00  0.00    +0.000 N 
ATOM     32  O   UNL     1     -10.116   6.504 126.250  0.00  0.00    +0.000 OA
ATOM     33  H   UNL     1     -11.318   8.955 127.902  0.00  0.00    +0.000 HD
ATOM     34  H   UNL     1     -10.958   8.699 126.284  0.00  0.00    +0.000 HD
ENDBRANCH   6  30
BRANCH   1  36
ATOM     35  C   UNL     1     -12.760   7.335 131.536  0.00  0.00    +0.000 C 
ATOM     36  C   UNL     1     -11.622   6.473 132.049  0.00  0.00    +0.000 C 
ENDBRANCH   1  36
BRANCH   2  37
ATOM     37  N   UNL     1      -9.656   4.319 132.222  0.00  0.00    +0.000 N 
ATOM     38  H   UNL     1     -10.156   4.588 133.054  0.00  0.00    +0.000 HD
BRANCH  37  39
ATOM     39  C   UNL     1      -8.491   3.464 132.427  0.00  0.00    +0.000 C 
ATOM     40  C   UNL     1      -8.786   1.979 132.185  0.00  0.00    +0.000 C 
ATOM     41  C   UNL     1      -7.633   1.104 132.643  0.00  0.00    +0.000 C 
ATOM     42  O   UNL     1      -7.213   1.434 133.960  0.00  0.00    +0.000 OA
ATOM     43  C   UNL     1      -6.751   2.775 134.056  0.00  0.00    +0.000 C 
ATOM     44  C   UNL     1      -7.869   3.758 133.787  0.00  0.00    +0.000 C 
ENDBRANCH  37  39
ENDBRANCH   2  37
TORSDOF 8
ENDMDL
