MODEL 1
REMARK VINA RESULT:      -4.6      0.000      0.000
REMARK  Name = Gimeracil
REMARK  1 active torsions:
REMARK  status: ('A' for Active; 'I' for Inactive)
REMARK    1  A    between atoms: O_1  and  C_2
REMARK                            x       y       z     vdW  Elec       q    Type
REMARK                         _______ _______ _______ _____ _____    ______ ____
ROOT
ATOM      1  C   UNL     1     -11.953   6.822 130.718  0.00  0.00    +0.000 A 
ATOM      2  C   UNL     1     -13.026   7.207 130.009  0.00  0.00    +0.000 A 
ATOM      3  C   UNL     1     -12.829   7.861 128.691  0.00  0.00    +0.000 A 
ATOM      4  O   UNL     1     -13.778   8.070 127.940  0.00  0.00    +0.000 OA
ATOM      5  N   UNL     1     -11.537   8.195 128.370  0.00  0.00    +0.000 N 
ATOM      6  C   UNL     1     -10.454   7.887 129.158  0.00  0.00    +0.000 A 
ATOM      7  C   UNL     1     -10.611   7.175 130.283  0.00  0.00    +0.000 A 
ATOM      8 CL   UNL     1      -9.234   6.704 131.209  0.00  0.00    +0.000 Cl
ATOM      9  H   UNL     1     -11.402   8.635 127.467  0.00  0.00    +0.000 HD
ENDROOT
BRANCH   1  10
ATOM     10  O   UNL     1     -12.052   6.115 131.897  0.00  0.00    +0.000 OA
ATOM     11  H   UNL     1     -12.198   6.735 132.631  0.00  0.00    +0.000 HD
ENDBRANCH   1  10
TORSDOF 1
ENDMDL
MODEL 2
REMARK VINA RESULT:      -4.6      2.510      3.215
REMARK  Name = Gimeracil
REMARK  1 active torsions:
REMARK  status: ('A' for Active; 'I' for Inactive)
REMARK    1  A    between atoms: O_1  and  C_2
REMARK                            x       y       z     vdW  Elec       q    Type
REMARK                         _______ _______ _______ _____ _____    ______ ____
ROOT
ATOM      1  C   UNL     1     -11.983   8.650 128.843  0.00  0.00    +0.000 A 
ATOM      2  C   UNL     1     -11.176   8.308 127.827  0.00  0.00    +0.000 A 
ATOM      3  C   UNL     1     -10.435   7.022 127.890  0.00  0.00    +0.000 A 
ATOM      4  O   UNL     1      -9.826   6.595 126.913  0.00  0.00    +0.000 OA
ATOM      5  N   UNL     1     -10.490   6.352 129.086  0.00  0.00    +0.000 N 
ATOM      6  C   UNL     1     -11.240   6.771 130.158  0.00  0.00    +0.000 A 
ATOM      7  C   UNL     1     -12.020   7.857 130.062  0.00  0.00    +0.000 A 
ATOM      8 CL   UNL     1     -13.036   8.313 131.378  0.00  0.00    +0.000 Cl
ATOM      9  H   UNL     1      -9.990   5.471 129.126  0.00  0.00    +0.000 HD
ENDROOT
BRANCH   1  10
ATOM     10  O   UNL     1     -12.785   9.772 128.815  0.00  0.00    +0.000 OA
ATOM     11  H   UNL     1     -13.476   9.688 129.494  0.00  0.00    +0.000 HD
ENDBRANCH   1  10
TORSDOF 1
ENDMDL
MODEL 3
REMARK VINA RESULT:      -4.5      2.538      3.143
REMARK  Name = Gimeracil
REMARK  1 active torsions:
REMARK  status: ('A' for Active; 'I' for Inactive)
REMARK    1  A    between atoms: O_1  and  C_2
REMARK                            x       y       z     vdW  Elec       q    Type
REMARK                         _______ _______ _______ _____ _____    ______ ____
ROOT
ATOM      1  C   UNL     1     -10.777   6.819 128.830  0.00  0.00    +0.000 A 
ATOM      2  C   UNL     1     -11.209   6.713 130.097  0.00  0.00    +0.000 A 
ATOM      3  C   UNL     1     -12.470   7.389 130.492  0.00  0.00    +0.000 A 
ATOM      4  O   UNL     1     -12.986   7.176 131.586  0.00  0.00    +0.000 OA
ATOM      5  N   UNL     1     -13.017   8.239 129.564  0.00  0.00    +0.000 N 
ATOM      6  C   UNL     1     -12.503   8.418 128.302  0.00  0.00    +0.000 A 
ATOM      7  C   UNL     1     -11.443   7.707 127.891  0.00  0.00    +0.000 A 
ATOM      8 CL   UNL     1     -10.871   7.864 126.272  0.00  0.00    +0.000 Cl
ATOM      9  H   UNL     1     -13.882   8.694 129.831  0.00  0.00    +0.000 HD
ENDROOT
BRANCH   1  10
ATOM     10  O   UNL     1      -9.676   6.138 128.357  0.00  0.00    +0.000 OA
ATOM     11  H   UNL     1      -9.121   5.865 129.107  0.00  0.00    +0.000 HD
ENDBRANCH   1  10
TORSDOF 1
ENDMDL
MODEL 4
REMARK VINA RESULT:      -4.5      2.713      4.003
REMARK  Name = Gimeracil
REMARK  1 active torsions:
REMARK  status: ('A' for Active; 'I' for Inactive)
REMARK    1  A    between atoms: O_1  and  C_2
REMARK                            x       y       z     vdW  Elec       q    Type
REMARK                         _______ _______ _______ _____ _____    ______ ____
ROOT
ATOM      1  C   UNL     1     -10.458   7.539 129.794  0.00  0.00    +0.000 A 
ATOM      2  C   UNL     1      -9.737   6.825 130.673  0.00  0.00    +0.000 A 
ATOM      3  C   UNL     1     -10.437   6.063 131.737  0.00  0.00    +0.000 A 
ATOM      4  O   UNL     1      -9.831   5.267 132.448  0.00  0.00    +0.000 OA
ATOM      5  N   UNL     1     -11.784   6.295 131.859  0.00  0.00    +0.000 N 
ATOM      6  C   UNL     1     -12.494   7.113 131.013  0.00  0.00    +0.000 A 
ATOM      7  C   UNL     1     -11.893   7.697 129.966  0.00  0.00    +0.000 A 
ATOM      8 CL   UNL     1     -12.815   8.637 128.853  0.00  0.00    +0.000 Cl
ATOM      9  H   UNL     1     -12.263   5.769 132.581  0.00  0.00    +0.000 HD
ENDROOT
BRANCH   1  10
ATOM     10  O   UNL     1      -9.893   8.187 128.716  0.00  0.00    +0.000 OA
ATOM     11  H   UNL     1     -10.453   8.941 128.466  0.00  0.00    +0.000 HD
ENDBRANCH   1  10
TORSDOF 1
ENDMDL
MODEL 5
REMARK VINA RESULT:      -4.5      2.589      3.616
REMARK  Name = Gimeracil
REMARK  1 active torsions:
REMARK  status: ('A' for Active; 'I' for Inactive)
REMARK    1  A    between atoms: O_1  and  C_2
REMARK                            x       y       z     vdW  Elec       q    Type
REMARK                         _______ _______ _______ _____ _____    ______ ____
ROOT
ATOM      1  C   UNL     1     -11.538   8.014 128.954  0.00  0.00    +0.000 A 
ATOM      2  C   UNL     1     -10.999   6.786 129.002  0.00  0.00    +0.000 A 
ATOM      3  C   UNL     1     -11.472   5.825 130.029  0.00  0.00    +0.000 A 
ATOM      4  O   UNL     1     -11.131   4.645 129.997  0.00  0.00    +0.000 OA
ATOM      5  N   UNL     1     -12.313   6.331 130.988  0.00  0.00    +0.000 N 
ATOM      6  C   UNL     1     -12.777   7.624 130.986  0.00  0.00    +0.000 A 
ATOM      7  C   UNL     1     -12.463   8.459 129.985  0.00  0.00    +0.000 A 
ATOM      8 CL   UNL     1     -13.135  10.046 129.939  0.00  0.00    +0.000 Cl
ATOM      9  H   UNL     1     -12.643   5.672 131.684  0.00  0.00    +0.000 HD
ENDROOT
BRANCH   1  10
ATOM     10  O   UNL     1     -11.231   8.928 127.968  0.00  0.00    +0.000 OA
ATOM     11  H   UNL     1     -11.752   9.737 128.108  0.00  0.00    +0.000 HD
ENDBRANCH   1  10
TORSDOF 1
ENDMDL
MODEL 6
REMARK VINA RESULT:      -4.4      2.328      2.831
REMARK  Name = Gimeracil
REMARK  1 active torsions:
REMARK  status: ('A' for Active; 'I' for Inactive)
REMARK    1  A    between atoms: O_1  and  C_2
REMARK                            x       y       z     vdW  Elec       q    Type
REMARK                         _______ _______ _______ _____ _____    ______ ____
ROOT
ATOM      1  C   UNL     1     -10.955   7.344 129.160  0.00  0.00    +0.000 A 
ATOM      2  C   UNL     1     -10.495   7.347 127.899  0.00  0.00    +0.000 A 
ATOM      3  C   UNL     1     -11.461   7.421 126.774  0.00  0.00    +0.000 A 
ATOM      4  O   UNL     1     -11.076   7.599 125.621  0.00  0.00    +0.000 OA
ATOM      5  N   UNL     1     -12.786   7.296 127.107  0.00  0.00    +0.000 N 
ATOM      6  C   UNL     1     -13.238   7.188 128.400  0.00  0.00    +0.000 A 
ATOM      7  C   UNL     1     -12.382   7.258 129.429  0.00  0.00    +0.000 A 
ATOM      8 CL   UNL     1     -12.971   7.227 131.049  0.00  0.00    +0.000 Cl
ATOM      9  H   UNL     1     -13.445   7.355 126.339  0.00  0.00    +0.000 HD
ENDROOT
BRANCH   1  10
ATOM     10  O   UNL     1     -10.124   7.384 130.259  0.00  0.00    +0.000 OA
ATOM     11  H   UNL     1      -9.358   7.949 130.061  0.00  0.00    +0.000 HD
ENDBRANCH   1  10
TORSDOF 1
ENDMDL
MODEL 7
REMARK VINA RESULT:      -4.4      9.999     10.755
REMARK  Name = Gimeracil
REMARK  1 active torsions:
REMARK  status: ('A' for Active; 'I' for Inactive)
REMARK    1  A    between atoms: O_1  and  C_2
REMARK                            x       y       z     vdW  Elec       q    Type
REMARK                         _______ _______ _______ _____ _____    ______ ____
ROOT
ATOM      1  C   UNL     1      -8.546   3.747 120.551  0.00  0.00    +0.000 A 
ATOM      2  C   UNL     1      -8.716   3.197 121.763  0.00  0.00    +0.000 A 
ATOM      3  C   UNL     1      -7.559   3.109 122.689  0.00  0.00    +0.000 A 
ATOM      4  O   UNL     1      -7.710   2.774 123.861  0.00  0.00    +0.000 OA
ATOM      5  N   UNL     1      -6.336   3.438 122.160  0.00  0.00    +0.000 N 
ATOM      6  C   UNL     1      -6.162   3.903 120.879  0.00  0.00    +0.000 A 
ATOM      7  C   UNL     1      -7.219   4.114 120.081  0.00  0.00    +0.000 A 
ATOM      8 CL   UNL     1      -6.997   4.796 118.513  0.00  0.00    +0.000 Cl
ATOM      9  H   UNL     1      -5.548   3.385 122.795  0.00  0.00    +0.000 HD
ENDROOT
BRANCH   1  10
ATOM     10  O   UNL     1      -9.588   3.962 119.674  0.00  0.00    +0.000 OA
ATOM     11  H   UNL     1     -10.378   3.495 119.996  0.00  0.00    +0.000 HD
ENDBRANCH   1  10
TORSDOF 1
ENDMDL
MODEL 8
REMARK VINA RESULT:      -4.4      3.091      3.959
REMARK  Name = Gimeracil
REMARK  1 active torsions:
REMARK  status: ('A' for Active; 'I' for Inactive)
REMARK    1  A    between atoms: O_1  and  C_2
REMARK                            x       y       z     vdW  Elec       q    Type
REMARK                         _______ _______ _______ _____ _____    ______ ____
ROOT
ATOM      1  C   UNL     1      -8.890   6.842 131.052  0.00  0.00    +0.000 A 
ATOM      2  C   UNL     1     -10.209   6.890 130.809  0.00  0.00    +0.000 A 
ATOM      3  C   UNL     1     -11.151   6.303 131.796  0.00  0.00    +0.000 A 
ATOM      4  O   UNL     1     -12.362   6.478 131.695  0.00  0.00    +0.000 OA
ATOM      5  N   UNL     1     -10.584   5.581 132.815  0.00  0.00    +0.000 N 
ATOM      6  C   UNL     1      -9.228   5.452 132.993  0.00  0.00    +0.000 A 
ATOM      7  C   UNL     1      -8.371   6.093 132.185  0.00  0.00    +0.000 A 
ATOM      8 CL   UNL     1      -6.674   6.009 132.481  0.00  0.00    +0.000 Cl
ATOM      9  H   UNL     1     -11.227   5.187 133.493  0.00  0.00    +0.000 HD
ENDROOT
BRANCH   1  10
ATOM     10  O   UNL     1      -7.958   7.454 130.241  0.00  0.00    +0.000 OA
ATOM     11  H   UNL     1      -8.156   7.246 129.312  0.00  0.00    +0.000 HD
ENDBRANCH   1  10
TORSDOF 1
ENDMDL
MODEL 9
REMARK VINA RESULT:      -4.2      2.230      2.566
REMARK  Name = Gimeracil
REMARK  1 active torsions:
REMARK  status: ('A' for Active; 'I' for Inactive)
REMARK    1  A    between atoms: O_1  and  C_2
REMARK                            x       y       z     vdW  Elec       q    Type
REMARK                         _______ _______ _______ _____ _____    ______ ____
ROOT
ATOM      1  C   UNL     1     -10.878   7.017 128.796  0.00  0.00    +0.000 A 
ATOM      2  C   UNL     1     -11.519   8.169 128.539  0.00  0.00    +0.000 A 
ATOM      3  C   UNL     1     -12.459   8.717 129.549  0.00  0.00    +0.000 A 
ATOM      4  O   UNL     1     -12.929   9.845 129.428  0.00  0.00    +0.000 OA
ATOM      5  N   UNL     1     -12.748   7.899 130.612  0.00  0.00    +0.000 N 
ATOM      6  C   UNL     1     -12.160   6.672 130.809  0.00  0.00    +0.000 A 
ATOM      7  C   UNL     1     -11.209   6.231 129.973  0.00  0.00    +0.000 A 
ATOM      8 CL   UNL     1     -10.405   4.738 130.289  0.00  0.00    +0.000 Cl
ATOM      9  H   UNL     1     -13.383   8.277 131.305  0.00  0.00    +0.000 HD
ENDROOT
BRANCH   1  10
ATOM     10  O   UNL     1      -9.913   6.497 127.960  0.00  0.00    +0.000 OA
ATOM     11  H   UNL     1      -9.389   5.839 128.447  0.00  0.00    +0.000 HD
ENDBRANCH   1  10
TORSDOF 1
ENDMDL
