MODEL 1
REMARK VINA RESULT:      -9.0      0.000      0.000
REMARK  Name = Glasdegib
REMARK  5 active torsions:
REMARK  status: ('A' for Active; 'I' for Inactive)
REMARK    1  A    between atoms: C_1  and  N_2
REMARK    2  A    between atoms: C_5  and  N_17
REMARK    3  A    between atoms: C_7  and  C_8
REMARK    4  A    between atoms: N_20  and  C_21
REMARK    5  A    between atoms: C_24  and  C_27
REMARK                            x       y       z     vdW  Elec       q    Type
REMARK                         _______ _______ _______ _____ _____    ______ ____
ROOT
ATOM      1  C   UNL     1      -8.715   4.549 132.859  0.00  0.00    +0.000 C 
ATOM      2  N   UNL     1      -8.436   3.762 131.650  0.00  0.00    +0.000 NA
ATOM      3  C   UNL     1      -7.317   4.338 130.911  0.00  0.00    +0.000 C 
ATOM      4  C   UNL     1      -7.021   3.554 129.634  0.00  0.00    +0.000 C 
ATOM      5  C   UNL     1      -8.235   3.299 128.718  0.00  0.00    +0.000 C 
ATOM      6  C   UNL     1      -9.380   2.729 129.575  0.00  0.00    +0.000 C 
ATOM      7  C   UNL     1      -9.657   3.613 130.819  0.00  0.00    +0.000 C 
ENDROOT
BRANCH   7   8
ATOM      8  C   UNL     1     -10.264   4.941 130.421  0.00  0.00    +0.000 A 
ATOM      9  N   UNL     1      -9.988   5.661 129.352  0.00  0.00    +0.000 NA
ATOM     10  C   UNL     1     -10.859   6.725 129.398  0.00  0.00    +0.000 A 
ATOM     11  C   UNL     1     -10.996   7.817 128.544  0.00  0.00    +0.000 A 
ATOM     12  C   UNL     1     -11.970   8.777 128.857  0.00  0.00    +0.000 A 
ATOM     13  C   UNL     1     -12.808   8.641 129.973  0.00  0.00    +0.000 A 
ATOM     14  C   UNL     1     -12.696   7.550 130.825  0.00  0.00    +0.000 A 
ATOM     15  C   UNL     1     -11.697   6.646 130.495  0.00  0.00    +0.000 A 
ATOM     16  N   UNL     1     -11.289   5.524 131.124  0.00  0.00    +0.000 N 
ATOM     17  H   UNL     1     -11.727   5.191 131.964  0.00  0.00    +0.000 HD
ENDBRANCH   7   8
BRANCH   5  18
ATOM     18  N   UNL     1      -7.860   2.479 127.553  0.00  0.00    +0.000 N 
ATOM     19  C   UNL     1      -7.858   3.060 126.288  0.00  0.00    +0.000 C 
ATOM     20  O   UNL     1      -8.152   4.241 126.123  0.00  0.00    +0.000 OA
ATOM     21  N   UNL     1      -7.493   2.217 125.252  0.00  0.00    +0.000 N 
ATOM     22  H   UNL     1      -7.818   1.476 127.666  0.00  0.00    +0.000 HD
ATOM     23  H   UNL     1      -7.610   1.225 125.397  0.00  0.00    +0.000 HD
BRANCH  21  24
ATOM     24  C   UNL     1      -7.463   2.691 123.905  0.00  0.00    +0.000 A 
ATOM     25  C   UNL     1      -8.612   2.673 123.102  0.00  0.00    +0.000 A 
ATOM     26  C   UNL     1      -8.579   3.131 121.773  0.00  0.00    +0.000 A 
ATOM     27  C   UNL     1      -7.391   3.610 121.221  0.00  0.00    +0.000 A 
ATOM     28  C   UNL     1      -6.234   3.614 122.007  0.00  0.00    +0.000 A 
ATOM     29  C   UNL     1      -6.275   3.184 123.349  0.00  0.00    +0.000 A 
BRANCH  27  30
ATOM     30  C   UNL     1      -7.373   4.126 119.875  0.00  0.00    +0.000 C 
ATOM     31  N   UNL     1      -7.329   4.551 118.802  0.00  0.00    +0.000 NA
ENDBRANCH  27  30
ENDBRANCH  21  24
ENDBRANCH   5  18
TORSDOF 4
ENDMDL
MODEL 2
REMARK VINA RESULT:      -7.6      4.223      4.911
REMARK  Name = Glasdegib
REMARK  5 active torsions:
REMARK  status: ('A' for Active; 'I' for Inactive)
REMARK    1  A    between atoms: C_1  and  N_2
REMARK    2  A    between atoms: C_5  and  N_17
REMARK    3  A    between atoms: C_7  and  C_8
REMARK    4  A    between atoms: N_20  and  C_21
REMARK    5  A    between atoms: C_24  and  C_27
REMARK                            x       y       z     vdW  Elec       q    Type
REMARK                         _______ _______ _______ _____ _____    ______ ____
ROOT
ATOM      1  C   UNL     1      -7.882   5.497 134.993  0.00  0.00    +0.000 C 
ATOM      2  N   UNL     1      -7.564   4.215 134.349  0.00  0.00    +0.000 NA
ATOM      3  C   UNL     1      -6.412   4.359 133.464  0.00  0.00    +0.000 C 
ATOM      4  C   UNL     1      -6.074   3.047 132.760  0.00  0.00    +0.000 C 
ATOM      5  C   UNL     1      -7.254   2.353 132.050  0.00  0.00    +0.000 C 
ATOM      6  C   UNL     1      -8.435   2.273 133.034  0.00  0.00    +0.000 C 
ATOM      7  C   UNL     1      -8.753   3.656 133.660  0.00  0.00    +0.000 C 
ENDROOT
BRANCH   7   8
ATOM      8  C   UNL     1      -9.334   4.600 132.630  0.00  0.00    +0.000 A 
ATOM      9  N   UNL     1      -8.897   4.819 131.406  0.00  0.00    +0.000 NA
ATOM     10  C   UNL     1      -9.808   5.686 130.846  0.00  0.00    +0.000 A 
ATOM     11  C   UNL     1      -9.834   6.280 129.587  0.00  0.00    +0.000 A 
ATOM     12  C   UNL     1     -10.891   7.156 129.295  0.00  0.00    +0.000 A 
ATOM     13  C   UNL     1     -11.914   7.410 130.219  0.00  0.00    +0.000 A 
ATOM     14  C   UNL     1     -11.913   6.813 131.473  0.00  0.00    +0.000 A 
ATOM     15  C   UNL     1     -10.831   5.983 131.728  0.00  0.00    +0.000 A 
ATOM     16  N   UNL     1     -10.497   5.298 132.842  0.00  0.00    +0.000 N 
ATOM     17  H   UNL     1     -11.067   5.307 133.669  0.00  0.00    +0.000 HD
ENDBRANCH   7   8
BRANCH   5  18
ATOM     18  N   UNL     1      -6.840   1.066 131.464  0.00  0.00    +0.000 N 
ATOM     19  C   UNL     1      -7.449   0.628 130.292  0.00  0.00    +0.000 C 
ATOM     20  O   UNL     1      -8.315   1.293 129.731  0.00  0.00    +0.000 OA
ATOM     21  N   UNL     1      -6.998  -0.591 129.813  0.00  0.00    +0.000 N 
ATOM     22  H   UNL     1      -6.285   0.439 132.029  0.00  0.00    +0.000 HD
ATOM     23  H   UNL     1      -6.573  -1.221 130.476  0.00  0.00    +0.000 HD
BRANCH  21  24
ATOM     24  C   UNL     1      -7.553  -1.154 128.623  0.00  0.00    +0.000 A 
ATOM     25  C   UNL     1      -7.686  -0.394 127.452  0.00  0.00    +0.000 A 
ATOM     26  C   UNL     1      -8.242  -0.946 126.284  0.00  0.00    +0.000 A 
ATOM     27  C   UNL     1      -8.682  -2.269 126.271  0.00  0.00    +0.000 A 
ATOM     28  C   UNL     1      -8.572  -3.031 127.438  0.00  0.00    +0.000 A 
ATOM     29  C   UNL     1      -7.985  -2.486 128.599  0.00  0.00    +0.000 A 
BRANCH  27  30
ATOM     30  C   UNL     1      -9.203  -2.847 125.057  0.00  0.00    +0.000 C 
ATOM     31  N   UNL     1      -9.616  -3.339 124.097  0.00  0.00    +0.000 NA
ENDBRANCH  27  30
ENDBRANCH  21  24
ENDBRANCH   5  18
TORSDOF 4
ENDMDL
MODEL 3
REMARK VINA RESULT:      -7.6      3.351      4.762
REMARK  Name = Glasdegib
REMARK  5 active torsions:
REMARK  status: ('A' for Active; 'I' for Inactive)
REMARK    1  A    between atoms: C_1  and  N_2
REMARK    2  A    between atoms: C_5  and  N_17
REMARK    3  A    between atoms: C_7  and  C_8
REMARK    4  A    between atoms: N_20  and  C_21
REMARK    5  A    between atoms: C_24  and  C_27
REMARK                            x       y       z     vdW  Elec       q    Type
REMARK                         _______ _______ _______ _____ _____    ______ ____
ROOT
ATOM      1  C   UNL     1      -2.806   7.630 131.600  0.00  0.00    +0.000 C 
ATOM      2  N   UNL     1      -2.858   6.836 130.365  0.00  0.00    +0.000 NA
ATOM      3  C   UNL     1      -3.418   7.624 129.272  0.00  0.00    +0.000 C 
ATOM      4  C   UNL     1      -3.508   6.814 127.980  0.00  0.00    +0.000 C 
ATOM      5  C   UNL     1      -4.202   5.443 128.106  0.00  0.00    +0.000 C 
ATOM      6  C   UNL     1      -3.584   4.691 129.298  0.00  0.00    +0.000 C 
ATOM      7  C   UNL     1      -3.583   5.559 130.583  0.00  0.00    +0.000 C 
ENDROOT
BRANCH   7   8
ATOM      8  C   UNL     1      -4.989   5.763 131.105  0.00  0.00    +0.000 A 
ATOM      9  N   UNL     1      -6.016   6.282 130.461  0.00  0.00    +0.000 NA
ATOM     10  C   UNL     1      -7.080   6.167 131.326  0.00  0.00    +0.000 A 
ATOM     11  C   UNL     1      -8.404   6.577 131.188  0.00  0.00    +0.000 A 
ATOM     12  C   UNL     1      -9.278   6.347 132.261  0.00  0.00    +0.000 A 
ATOM     13  C   UNL     1      -8.856   5.698 133.430  0.00  0.00    +0.000 A 
ATOM     14  C   UNL     1      -7.544   5.268 133.578  0.00  0.00    +0.000 A 
ATOM     15  C   UNL     1      -6.709   5.548 132.505  0.00  0.00    +0.000 A 
ATOM     16  N   UNL     1      -5.389   5.320 132.341  0.00  0.00    +0.000 N 
ATOM     17  H   UNL     1      -4.833   4.861 133.040  0.00  0.00    +0.000 HD
ENDBRANCH   7   8
BRANCH   5  18
ATOM     18  N   UNL     1      -4.177   4.713 126.826  0.00  0.00    +0.000 N 
ATOM     19  C   UNL     1      -5.343   4.112 126.365  0.00  0.00    +0.000 C 
ATOM     20  O   UNL     1      -6.395   4.183 126.995  0.00  0.00    +0.000 OA
ATOM     21  N   UNL     1      -5.227   3.449 125.154  0.00  0.00    +0.000 N 
ATOM     22  H   UNL     1      -3.279   4.489 126.421  0.00  0.00    +0.000 HD
ATOM     23  H   UNL     1      -4.308   3.135 124.884  0.00  0.00    +0.000 HD
BRANCH  21  24
ATOM     24  C   UNL     1      -6.352   2.781 124.580  0.00  0.00    +0.000 A 
ATOM     25  C   UNL     1      -6.637   1.442 124.885  0.00  0.00    +0.000 A 
ATOM     26  C   UNL     1      -7.738   0.783 124.312  0.00  0.00    +0.000 A 
ATOM     27  C   UNL     1      -8.572   1.452 123.416  0.00  0.00    +0.000 A 
ATOM     28  C   UNL     1      -8.287   2.781 123.090  0.00  0.00    +0.000 A 
ATOM     29  C   UNL     1      -7.200   3.451 123.690  0.00  0.00    +0.000 A 
BRANCH  27  30
ATOM     30  C   UNL     1      -9.730   0.789 122.870  0.00  0.00    +0.000 C 
ATOM     31  N   UNL     1     -10.642   0.251 122.406  0.00  0.00    +0.000 NA
ENDBRANCH  27  30
ENDBRANCH  21  24
ENDBRANCH   5  18
TORSDOF 4
ENDMDL
MODEL 4
REMARK VINA RESULT:      -7.5      3.270      3.787
REMARK  Name = Glasdegib
REMARK  5 active torsions:
REMARK  status: ('A' for Active; 'I' for Inactive)
REMARK    1  A    between atoms: C_1  and  N_2
REMARK    2  A    between atoms: C_5  and  N_17
REMARK    3  A    between atoms: C_7  and  C_8
REMARK    4  A    between atoms: N_20  and  C_21
REMARK    5  A    between atoms: C_24  and  C_27
REMARK                            x       y       z     vdW  Elec       q    Type
REMARK                         _______ _______ _______ _____ _____    ______ ____
ROOT
ATOM      1  C   UNL     1      -9.151   6.024 133.060  0.00  0.00    +0.000 C 
ATOM      2  N   UNL     1      -8.536   4.940 132.281  0.00  0.00    +0.000 NA
ATOM      3  C   UNL     1      -7.362   5.427 131.564  0.00  0.00    +0.000 C 
ATOM      4  C   UNL     1      -6.717   4.327 130.724  0.00  0.00    +0.000 C 
ATOM      5  C   UNL     1      -7.675   3.559 129.791  0.00  0.00    +0.000 C 
ATOM      6  C   UNL     1      -8.900   3.113 130.610  0.00  0.00    +0.000 C 
ATOM      7  C   UNL     1      -9.531   4.298 131.386  0.00  0.00    +0.000 C 
ENDROOT
BRANCH   7   8
ATOM      8  C   UNL     1     -10.192   5.278 130.442  0.00  0.00    +0.000 A 
ATOM      9  N   UNL     1      -9.609   6.035 129.534  0.00  0.00    +0.000 NA
ATOM     10  C   UNL     1     -10.638   6.676 128.882  0.00  0.00    +0.000 A 
ATOM     11  C   UNL     1     -10.610   7.616 127.855  0.00  0.00    +0.000 A 
ATOM     12  C   UNL     1     -11.834   8.123 127.395  0.00  0.00    +0.000 A 
ATOM     13  C   UNL     1     -13.058   7.686 127.920  0.00  0.00    +0.000 A 
ATOM     14  C   UNL     1     -13.105   6.736 128.933  0.00  0.00    +0.000 A 
ATOM     15  C   UNL     1     -11.869   6.289 129.378  0.00  0.00    +0.000 A 
ATOM     16  N   UNL     1     -11.555   5.424 130.365  0.00  0.00    +0.000 N 
ATOM     17  H   UNL     1     -12.256   4.957 130.912  0.00  0.00    +0.000 HD
ENDBRANCH   7   8
BRANCH   5  18
ATOM     18  N   UNL     1      -6.972   2.478 129.078  0.00  0.00    +0.000 N 
ATOM     19  C   UNL     1      -7.682   1.678 128.190  0.00  0.00    +0.000 C 
ATOM     20  O   UNL     1      -8.878   1.858 127.978  0.00  0.00    +0.000 OA
ATOM     21  N   UNL     1      -6.941   0.688 127.565  0.00  0.00    +0.000 N 
ATOM     22  H   UNL     1      -6.053   2.210 129.403  0.00  0.00    +0.000 HD
ATOM     23  H   UNL     1      -6.100   0.377 128.027  0.00  0.00    +0.000 HD
BRANCH  21  24
ATOM     24  C   UNL     1      -7.559  -0.207 126.639  0.00  0.00    +0.000 A 
ATOM     25  C   UNL     1      -8.145  -1.407 127.066  0.00  0.00    +0.000 A 
ATOM     26  C   UNL     1      -8.744  -2.292 126.153  0.00  0.00    +0.000 A 
ATOM     27  C   UNL     1      -8.761  -1.993 124.790  0.00  0.00    +0.000 A 
ATOM     28  C   UNL     1      -8.163  -0.808 124.350  0.00  0.00    +0.000 A 
ATOM     29  C   UNL     1      -7.590   0.093 125.271  0.00  0.00    +0.000 A 
BRANCH  27  30
ATOM     30  C   UNL     1      -9.421  -2.878 123.862  0.00  0.00    +0.000 C 
ATOM     31  N   UNL     1      -9.973  -3.590 123.140  0.00  0.00    +0.000 NA
ENDBRANCH  27  30
ENDBRANCH  21  24
ENDBRANCH   5  18
TORSDOF 4
ENDMDL
MODEL 5
REMARK VINA RESULT:      -7.4      3.608      8.093
REMARK  Name = Glasdegib
REMARK  5 active torsions:
REMARK  status: ('A' for Active; 'I' for Inactive)
REMARK    1  A    between atoms: C_1  and  N_2
REMARK    2  A    between atoms: C_5  and  N_17
REMARK    3  A    between atoms: C_7  and  C_8
REMARK    4  A    between atoms: N_20  and  C_21
REMARK    5  A    between atoms: C_24  and  C_27
REMARK                            x       y       z     vdW  Elec       q    Type
REMARK                         _______ _______ _______ _____ _____    ______ ____
ROOT
ATOM      1  C   UNL     1      -6.806  -2.236 131.200  0.00  0.00    +0.000 C 
ATOM      2  N   UNL     1      -7.010  -0.826 131.559  0.00  0.00    +0.000 NA
ATOM      3  C   UNL     1      -8.418  -0.568 131.843  0.00  0.00    +0.000 C 
ATOM      4  C   UNL     1      -8.665   0.898 132.193  0.00  0.00    +0.000 C 
ATOM      5  C   UNL     1      -8.089   1.923 131.196  0.00  0.00    +0.000 C 
ATOM      6  C   UNL     1      -6.618   1.562 130.921  0.00  0.00    +0.000 C 
ATOM      7  C   UNL     1      -6.461   0.074 130.515  0.00  0.00    +0.000 C 
ENDROOT
BRANCH   7   8
ATOM      8  C   UNL     1      -7.052  -0.183 129.145  0.00  0.00    +0.000 A 
ATOM      9  N   UNL     1      -7.139  -1.336 128.513  0.00  0.00    +0.000 NA
ATOM     10  C   UNL     1      -7.827  -1.061 127.353  0.00  0.00    +0.000 A 
ATOM     11  C   UNL     1      -8.180  -1.894 126.294  0.00  0.00    +0.000 A 
ATOM     12  C   UNL     1      -8.872  -1.324 125.214  0.00  0.00    +0.000 A 
ATOM     13  C   UNL     1      -9.230   0.030 125.199  0.00  0.00    +0.000 A 
ATOM     14  C   UNL     1      -8.901   0.871 126.255  0.00  0.00    +0.000 A 
ATOM     15  C   UNL     1      -8.189   0.272 127.284  0.00  0.00    +0.000 A 
ATOM     16  N   UNL     1      -7.675   0.798 128.416  0.00  0.00    +0.000 N 
ATOM     17  H   UNL     1      -7.788   1.767 128.656  0.00  0.00    +0.000 HD
ENDBRANCH   7   8
BRANCH   5  18
ATOM     18  N   UNL     1      -8.319   3.303 131.658  0.00  0.00    +0.000 N 
ATOM     19  C   UNL     1      -9.226   4.105 130.973  0.00  0.00    +0.000 C 
ATOM     20  O   UNL     1      -9.846   3.687 129.999  0.00  0.00    +0.000 OA
ATOM     21  N   UNL     1      -9.379   5.386 131.477  0.00  0.00    +0.000 N 
ATOM     22  H   UNL     1      -7.669   3.700 132.322  0.00  0.00    +0.000 HD
ATOM     23  H   UNL     1      -8.619   5.764 132.021  0.00  0.00    +0.000 HD
BRANCH  21  24
ATOM     24  C   UNL     1     -10.273   6.310 130.854  0.00  0.00    +0.000 A 
ATOM     25  C   UNL     1      -9.840   7.163 129.828  0.00  0.00    +0.000 A 
ATOM     26  C   UNL     1     -10.718   8.079 129.223  0.00  0.00    +0.000 A 
ATOM     27  C   UNL     1     -12.046   8.163 129.640  0.00  0.00    +0.000 A 
ATOM     28  C   UNL     1     -12.484   7.331 130.675  0.00  0.00    +0.000 A 
ATOM     29  C   UNL     1     -11.611   6.391 131.260  0.00  0.00    +0.000 A 
BRANCH  27  30
ATOM     30  C   UNL     1     -12.957   9.067 128.982  0.00  0.00    +0.000 C 
ATOM     31  N   UNL     1     -13.711   9.771 128.462  0.00  0.00    +0.000 NA
ENDBRANCH  27  30
ENDBRANCH  21  24
ENDBRANCH   5  18
TORSDOF 4
ENDMDL
MODEL 6
REMARK VINA RESULT:      -7.4      4.985     10.359
REMARK  Name = Glasdegib
REMARK  5 active torsions:
REMARK  status: ('A' for Active; 'I' for Inactive)
REMARK    1  A    between atoms: C_1  and  N_2
REMARK    2  A    between atoms: C_5  and  N_17
REMARK    3  A    between atoms: C_7  and  C_8
REMARK    4  A    between atoms: N_20  and  C_21
REMARK    5  A    between atoms: C_24  and  C_27
REMARK                            x       y       z     vdW  Elec       q    Type
REMARK                         _______ _______ _______ _____ _____    ______ ____
ROOT
ATOM      1  C   UNL     1      -9.096   2.556 129.529  0.00  0.00    +0.000 C 
ATOM      2  N   UNL     1      -8.673   2.873 130.901  0.00  0.00    +0.000 NA
ATOM      3  C   UNL     1      -9.769   2.650 131.839  0.00  0.00    +0.000 C 
ATOM      4  C   UNL     1      -9.366   2.997 133.270  0.00  0.00    +0.000 C 
ATOM      5  C   UNL     1      -8.730   4.389 133.460  0.00  0.00    +0.000 C 
ATOM      6  C   UNL     1      -7.614   4.561 132.414  0.00  0.00    +0.000 C 
ATOM      7  C   UNL     1      -8.119   4.247 130.982  0.00  0.00    +0.000 C 
ENDROOT
BRANCH   7   8
ATOM      8  C   UNL     1      -9.090   5.304 130.502  0.00  0.00    +0.000 A 
ATOM      9  N   UNL     1      -8.921   6.158 129.512  0.00  0.00    +0.000 NA
ATOM     10  C   UNL     1     -10.112   6.842 129.418  0.00  0.00    +0.000 A 
ATOM     11  C   UNL     1     -10.492   7.880 128.571  0.00  0.00    +0.000 A 
ATOM     12  C   UNL     1     -11.784   8.408 128.718  0.00  0.00    +0.000 A 
ATOM     13  C   UNL     1     -12.686   7.898 129.662  0.00  0.00    +0.000 A 
ATOM     14  C   UNL     1     -12.329   6.851 130.503  0.00  0.00    +0.000 A 
ATOM     15  C   UNL     1     -11.032   6.385 130.344  0.00  0.00    +0.000 A 
ATOM     16  N   UNL     1     -10.355   5.431 131.017  0.00  0.00    +0.000 N 
ATOM     17  H   UNL     1     -10.775   4.900 131.760  0.00  0.00    +0.000 HD
ENDBRANCH   7   8
BRANCH   5  18
ATOM     18  N   UNL     1      -8.316   4.600 134.858  0.00  0.00    +0.000 N 
ATOM     19  C   UNL     1      -8.306   5.890 135.376  0.00  0.00    +0.000 C 
ATOM     20  O   UNL     1      -8.646   6.857 134.698  0.00  0.00    +0.000 OA
ATOM     21  N   UNL     1      -7.903   5.994 136.697  0.00  0.00    +0.000 N 
ATOM     22  H   UNL     1      -7.852   3.841 135.338  0.00  0.00    +0.000 HD
ATOM     23  H   UNL     1      -7.324   5.255 137.064  0.00  0.00    +0.000 HD
BRANCH  21  24
ATOM     24  C   UNL     1      -7.841   7.269 137.340  0.00  0.00    +0.000 A 
ATOM     25  C   UNL     1      -8.996   7.894 137.829  0.00  0.00    +0.000 A 
ATOM     26  C   UNL     1      -8.936   9.152 138.452  0.00  0.00    +0.000 A 
ATOM     27  C   UNL     1      -7.715   9.812 138.591  0.00  0.00    +0.000 A 
ATOM     28  C   UNL     1      -6.558   9.207 138.090  0.00  0.00    +0.000 A 
ATOM     29  C   UNL     1      -6.616   7.930 137.492  0.00  0.00    +0.000 A 
BRANCH  27  30
ATOM     30  C   UNL     1      -7.648  11.079 139.276  0.00  0.00    +0.000 C 
ATOM     31  N   UNL     1      -7.576  12.105 139.803  0.00  0.00    +0.000 NA
ENDBRANCH  27  30
ENDBRANCH  21  24
ENDBRANCH   5  18
TORSDOF 4
ENDMDL
MODEL 7
REMARK VINA RESULT:      -7.3      4.883      9.250
REMARK  Name = Glasdegib
REMARK  5 active torsions:
REMARK  status: ('A' for Active; 'I' for Inactive)
REMARK    1  A    between atoms: C_1  and  N_2
REMARK    2  A    between atoms: C_5  and  N_17
REMARK    3  A    between atoms: C_7  and  C_8
REMARK    4  A    between atoms: N_20  and  C_21
REMARK    5  A    between atoms: C_24  and  C_27
REMARK                            x       y       z     vdW  Elec       q    Type
REMARK                         _______ _______ _______ _____ _____    ______ ____
ROOT
ATOM      1  C   UNL     1      -3.771  -3.009 131.419  0.00  0.00    +0.000 C 
ATOM      2  N   UNL     1      -3.989  -1.556 131.407  0.00  0.00    +0.000 NA
ATOM      3  C   UNL     1      -5.081  -1.195 132.305  0.00  0.00    +0.000 C 
ATOM      4  C   UNL     1      -5.347   0.309 132.293  0.00  0.00    +0.000 C 
ATOM      5  C   UNL     1      -5.529   0.938 130.897  0.00  0.00    +0.000 C 
ATOM      6  C   UNL     1      -4.363   0.481 130.002  0.00  0.00    +0.000 C 
ATOM      7  C   UNL     1      -4.196  -1.061 130.023  0.00  0.00    +0.000 C 
ENDROOT
BRANCH   7   8
ATOM      8  C   UNL     1      -5.348  -1.743 129.319  0.00  0.00    +0.000 A 
ATOM      9  N   UNL     1      -6.366  -2.373 129.871  0.00  0.00    +0.000 NA
ATOM     10  C   UNL     1      -7.179  -2.737 128.822  0.00  0.00    +0.000 A 
ATOM     11  C   UNL     1      -8.374  -3.452 128.812  0.00  0.00    +0.000 A 
ATOM     12  C   UNL     1      -8.980  -3.701 127.570  0.00  0.00    +0.000 A 
ATOM     13  C   UNL     1      -8.428  -3.226 126.373  0.00  0.00    +0.000 A 
ATOM     14  C   UNL     1      -7.246  -2.497 126.367  0.00  0.00    +0.000 A 
ATOM     15  C   UNL     1      -6.666  -2.306 127.613  0.00  0.00    +0.000 A 
ATOM     16  N   UNL     1      -5.511  -1.699 127.957  0.00  0.00    +0.000 N 
ATOM     17  H   UNL     1      -4.910  -1.266 127.279  0.00  0.00    +0.000 HD
ENDBRANCH   7   8
BRANCH   5  18
ATOM     18  N   UNL     1      -5.711   2.397 130.990  0.00  0.00    +0.000 N 
ATOM     19  C   UNL     1      -7.000   2.916 131.070  0.00  0.00    +0.000 C 
ATOM     20  O   UNL     1      -7.987   2.185 131.075  0.00  0.00    +0.000 OA
ATOM     21  N   UNL     1      -7.077   4.296 131.154  0.00  0.00    +0.000 N 
ATOM     22  H   UNL     1      -4.921   2.992 130.784  0.00  0.00    +0.000 HD
ATOM     23  H   UNL     1      -6.296   4.826 130.799  0.00  0.00    +0.000 HD
BRANCH  21  24
ATOM     24  C   UNL     1      -8.345   4.950 131.230  0.00  0.00    +0.000 A 
ATOM     25  C   UNL     1      -9.059   5.289 130.072  0.00  0.00    +0.000 A 
ATOM     26  C   UNL     1     -10.302   5.941 130.147  0.00  0.00    +0.000 A 
ATOM     27  C   UNL     1     -10.849   6.274 131.386  0.00  0.00    +0.000 A 
ATOM     28  C   UNL     1     -10.137   5.958 132.547  0.00  0.00    +0.000 A 
ATOM     29  C   UNL     1      -8.905   5.275 132.471  0.00  0.00    +0.000 A 
BRANCH  27  30
ATOM     30  C   UNL     1     -12.148   6.897 131.462  0.00  0.00    +0.000 C 
ATOM     31  N   UNL     1     -13.196   7.380 131.496  0.00  0.00    +0.000 NA
ENDBRANCH  27  30
ENDBRANCH  21  24
ENDBRANCH   5  18
TORSDOF 4
ENDMDL
MODEL 8
REMARK VINA RESULT:      -7.2      5.834      8.410
REMARK  Name = Glasdegib
REMARK  5 active torsions:
REMARK  status: ('A' for Active; 'I' for Inactive)
REMARK    1  A    between atoms: C_1  and  N_2
REMARK    2  A    between atoms: C_5  and  N_17
REMARK    3  A    between atoms: C_7  and  C_8
REMARK    4  A    between atoms: N_20  and  C_21
REMARK    5  A    between atoms: C_24  and  C_27
REMARK                            x       y       z     vdW  Elec       q    Type
REMARK                         _______ _______ _______ _____ _____    ______ ____
ROOT
ATOM      1  C   UNL     1      -7.411   5.868 134.512  0.00  0.00    +0.000 C 
ATOM      2  N   UNL     1      -7.537   4.498 133.996  0.00  0.00    +0.000 NA
ATOM      3  C   UNL     1      -6.631   4.289 132.871  0.00  0.00    +0.000 C 
ATOM      4  C   UNL     1      -6.759   2.880 132.297  0.00  0.00    +0.000 C 
ATOM      5  C   UNL     1      -8.195   2.430 131.962  0.00  0.00    +0.000 C 
ATOM      6  C   UNL     1      -9.092   2.715 133.180  0.00  0.00    +0.000 C 
ATOM      7  C   UNL     1      -8.948   4.182 133.664  0.00  0.00    +0.000 C 
ENDROOT
BRANCH   7   8
ATOM      8  C   UNL     1      -9.549   5.147 132.666  0.00  0.00    +0.000 A 
ATOM      9  N   UNL     1      -9.012   5.575 131.540  0.00  0.00    +0.000 NA
ATOM     10  C   UNL     1      -9.979   6.359 130.954  0.00  0.00    +0.000 A 
ATOM     11  C   UNL     1      -9.951   7.091 129.769  0.00  0.00    +0.000 A 
ATOM     12  C   UNL     1     -11.094   7.830 129.427  0.00  0.00    +0.000 A 
ATOM     13  C   UNL     1     -12.246   7.819 130.226  0.00  0.00    +0.000 A 
ATOM     14  C   UNL     1     -12.296   7.082 131.402  0.00  0.00    +0.000 A 
ATOM     15  C   UNL     1     -11.132   6.395 131.716  0.00  0.00    +0.000 A 
ATOM     16  N   UNL     1     -10.825   5.637 132.789  0.00  0.00    +0.000 N 
ATOM     17  H   UNL     1     -11.483   5.463 133.528  0.00  0.00    +0.000 HD
ENDBRANCH   7   8
BRANCH   5  18
ATOM     18  N   UNL     1      -8.218   1.037 131.482  0.00  0.00    +0.000 N 
ATOM     19  C   UNL     1      -7.705   0.031 132.294  0.00  0.00    +0.000 C 
ATOM     20  O   UNL     1      -7.242   0.276 133.405  0.00  0.00    +0.000 OA
ATOM     21  N   UNL     1      -7.767  -1.247 131.762  0.00  0.00    +0.000 N 
ATOM     22  H   UNL     1      -8.409   0.871 130.503  0.00  0.00    +0.000 HD
ATOM     23  H   UNL     1      -7.820  -1.329 130.758  0.00  0.00    +0.000 HD
BRANCH  21  24
ATOM     24  C   UNL     1      -7.261  -2.364 132.495  0.00  0.00    +0.000 A 
ATOM     25  C   UNL     1      -6.079  -3.011 132.111  0.00  0.00    +0.000 A 
ATOM     26  C   UNL     1      -5.587  -4.117 132.826  0.00  0.00    +0.000 A 
ATOM     27  C   UNL     1      -6.277  -4.600 133.938  0.00  0.00    +0.000 A 
ATOM     28  C   UNL     1      -7.468  -3.975 134.319  0.00  0.00    +0.000 A 
ATOM     29  C   UNL     1      -7.944  -2.846 133.619  0.00  0.00    +0.000 A 
BRANCH  27  30
ATOM     30  C   UNL     1      -5.744  -5.702 134.700  0.00  0.00    +0.000 C 
ATOM     31  N   UNL     1      -5.326  -6.570 135.337  0.00  0.00    +0.000 NA
ENDBRANCH  27  30
ENDBRANCH  21  24
ENDBRANCH   5  18
TORSDOF 4
ENDMDL
MODEL 9
REMARK VINA RESULT:      -7.2      5.491      8.811
REMARK  Name = Glasdegib
REMARK  5 active torsions:
REMARK  status: ('A' for Active; 'I' for Inactive)
REMARK    1  A    between atoms: C_1  and  N_2
REMARK    2  A    between atoms: C_5  and  N_17
REMARK    3  A    between atoms: C_7  and  C_8
REMARK    4  A    between atoms: N_20  and  C_21
REMARK    5  A    between atoms: C_24  and  C_27
REMARK                            x       y       z     vdW  Elec       q    Type
REMARK                         _______ _______ _______ _____ _____    ______ ____
ROOT
ATOM      1  C   UNL     1      -5.640   3.085 134.129  0.00  0.00    +0.000 C 
ATOM      2  N   UNL     1      -6.770   3.509 133.291  0.00  0.00    +0.000 NA
ATOM      3  C   UNL     1      -8.037   3.219 133.956  0.00  0.00    +0.000 C 
ATOM      4  C   UNL     1      -9.231   3.626 133.095  0.00  0.00    +0.000 C 
ATOM      5  C   UNL     1      -9.214   3.096 131.647  0.00  0.00    +0.000 C 
ATOM      6  C   UNL     1      -7.838   3.406 131.031  0.00  0.00    +0.000 C 
ATOM      7  C   UNL     1      -6.681   2.910 131.937  0.00  0.00    +0.000 C 
ENDROOT
BRANCH   7   8
ATOM      8  C   UNL     1      -6.620   1.398 131.964  0.00  0.00    +0.000 A 
ATOM      9  N   UNL     1      -7.588   0.562 132.280  0.00  0.00    +0.000 NA
ATOM     10  C   UNL     1      -7.066  -0.694 132.068  0.00  0.00    +0.000 A 
ATOM     11  C   UNL     1      -7.629  -1.952 132.267  0.00  0.00    +0.000 A 
ATOM     12  C   UNL     1      -6.841  -3.077 131.982  0.00  0.00    +0.000 A 
ATOM     13  C   UNL     1      -5.536  -2.956 131.484  0.00  0.00    +0.000 A 
ATOM     14  C   UNL     1      -4.965  -1.709 131.264  0.00  0.00    +0.000 A 
ATOM     15  C   UNL     1      -5.769  -0.627 131.591  0.00  0.00    +0.000 A 
ATOM     16  N   UNL     1      -5.515   0.697 131.551  0.00  0.00    +0.000 N 
ATOM     17  H   UNL     1      -4.637   1.065 131.228  0.00  0.00    +0.000 HD
ENDBRANCH   7   8
BRANCH   5  18
ATOM     18  N   UNL     1     -10.370   3.599 130.883  0.00  0.00    +0.000 N 
ATOM     19  C   UNL     1     -10.637   4.964 130.877  0.00  0.00    +0.000 C 
ATOM     20  O   UNL     1      -9.927   5.760 131.486  0.00  0.00    +0.000 OA
ATOM     21  N   UNL     1     -11.741   5.346 130.134  0.00  0.00    +0.000 N 
ATOM     22  H   UNL     1     -11.055   2.931 130.558  0.00  0.00    +0.000 HD
ATOM     23  H   UNL     1     -12.452   4.650 129.967  0.00  0.00    +0.000 HD
BRANCH  21  24
ATOM     24  C   UNL     1     -12.126   6.720 130.059  0.00  0.00    +0.000 A 
ATOM     25  C   UNL     1     -12.771   7.354 131.130  0.00  0.00    +0.000 A 
ATOM     26  C   UNL     1     -13.159   8.703 131.052  0.00  0.00    +0.000 A 
ATOM     27  C   UNL     1     -12.914   9.440 129.893  0.00  0.00    +0.000 A 
ATOM     28  C   UNL     1     -12.289   8.813 128.811  0.00  0.00    +0.000 A 
ATOM     29  C   UNL     1     -11.873   7.469 128.903  0.00  0.00    +0.000 A 
BRANCH  27  30
ATOM     30  C   UNL     1     -13.267  10.838 129.835  0.00  0.00    +0.000 C 
ATOM     31  N   UNL     1     -13.579  11.949 129.779  0.00  0.00    +0.000 NA
ENDBRANCH  27  30
ENDBRANCH  21  24
ENDBRANCH   5  18
TORSDOF 4
ENDMDL
