MODEL 1
REMARK VINA RESULT:      -7.7      0.000      0.000
REMARK  Name = Gliclazide
REMARK  4 active torsions:
REMARK  status: ('A' for Active; 'I' for Inactive)
REMARK    1  A    between atoms: N_9  and  N_11
REMARK    2  A    between atoms: N_14  and  S_15
REMARK    3  A    between atoms: S_15  and  C_18
REMARK    4  A    between atoms: C_21  and  C_22
REMARK                            x       y       z     vdW  Elec       q    Type
REMARK                         _______ _______ _______ _____ _____    ______ ____
ROOT
ATOM      1  N   UNL     1     -11.408   6.414 131.415  0.00  0.00    +0.000 N 
ATOM      2  C   UNL     1     -10.224   5.706 131.675  0.00  0.00    +0.000 C 
ATOM      3  O   UNL     1      -9.431   5.396 130.792  0.00  0.00    +0.000 OA
ATOM      4  N   UNL     1      -9.968   5.384 133.023  0.00  0.00    +0.000 N 
ATOM      5  H   UNL     1     -12.082   6.593 132.148  0.00  0.00    +0.000 HD
ATOM      6  H   UNL     1     -10.627   5.628 133.741  0.00  0.00    +0.000 HD
ENDROOT
BRANCH   1  13
ATOM      7  C   UNL     1     -13.089   7.839 128.445  0.00  0.00    +0.000 C 
ATOM      8  C   UNL     1     -13.347   6.838 127.313  0.00  0.00    +0.000 C 
ATOM      9  C   UNL     1     -12.354   7.219 126.228  0.00  0.00    +0.000 C 
ATOM     10  C   UNL     1     -11.108   7.586 127.011  0.00  0.00    +0.000 C 
ATOM     11  C   UNL     1     -11.630   8.298 128.264  0.00  0.00    +0.000 C 
ATOM     12  C   UNL     1     -10.931   7.879 129.555  0.00  0.00    +0.000 C 
ATOM     13  N   UNL     1     -11.752   6.761 130.063  0.00  0.00    +0.000 NA
ATOM     14  C   UNL     1     -13.135   7.230 129.855  0.00  0.00    +0.000 C 
ENDBRANCH   1  13
BRANCH   4  15
ATOM     15  S   UNL     1      -8.531   4.596 133.452  0.00  0.00    +0.000 S 
ATOM     16  O   UNL     1      -7.428   5.371 132.928  0.00  0.00    +0.000 OA
ATOM     17  O   UNL     1      -8.630   4.223 134.847  0.00  0.00    +0.000 OA
BRANCH  15  18
ATOM     18  C   UNL     1      -8.451   3.029 132.568  0.00  0.00    +0.000 A 
ATOM     19  C   UNL     1      -9.518   2.136 132.531  0.00  0.00    +0.000 A 
ATOM     20  C   UNL     1      -9.389   0.917 131.849  0.00  0.00    +0.000 A 
ATOM     21  C   UNL     1      -8.200   0.570 131.195  0.00  0.00    +0.000 A 
ATOM     22  C   UNL     1      -8.078  -0.752 130.488  0.00  0.00    +0.000 C 
ATOM     23  C   UNL     1      -7.131   1.473 131.223  0.00  0.00    +0.000 A 
ATOM     24  C   UNL     1      -7.253   2.696 131.905  0.00  0.00    +0.000 A 
ENDBRANCH  15  18
ENDBRANCH   4  15
TORSDOF 3
ENDMDL
MODEL 2
REMARK VINA RESULT:      -7.7      3.941      6.620
REMARK  Name = Gliclazide
REMARK  4 active torsions:
REMARK  status: ('A' for Active; 'I' for Inactive)
REMARK    1  A    between atoms: N_9  and  N_11
REMARK    2  A    between atoms: N_14  and  S_15
REMARK    3  A    between atoms: S_15  and  C_18
REMARK    4  A    between atoms: C_21  and  C_22
REMARK                            x       y       z     vdW  Elec       q    Type
REMARK                         _______ _______ _______ _____ _____    ______ ____
ROOT
ATOM      1  N   UNL     1      -8.116   3.331 128.656  0.00  0.00    +0.000 N 
ATOM      2  C   UNL     1      -8.499   4.639 128.989  0.00  0.00    +0.000 C 
ATOM      3  O   UNL     1      -9.020   5.403 128.182  0.00  0.00    +0.000 OA
ATOM      4  N   UNL     1      -8.279   5.037 130.324  0.00  0.00    +0.000 N 
ATOM      5  H   UNL     1      -7.621   2.746 129.317  0.00  0.00    +0.000 HD
ATOM      6  H   UNL     1      -7.840   4.413 130.978  0.00  0.00    +0.000 HD
ENDROOT
BRANCH   1  13
ATOM      7  C   UNL     1      -7.474   2.065 125.241  0.00  0.00    +0.000 C 
ATOM      8  C   UNL     1      -8.229   2.805 124.131  0.00  0.00    +0.000 C 
ATOM      9  C   UNL     1      -9.302   1.830 123.677  0.00  0.00    +0.000 C 
ATOM     10  C   UNL     1      -9.754   1.184 124.973  0.00  0.00    +0.000 C 
ATOM     11  C   UNL     1      -8.474   1.037 125.804  0.00  0.00    +0.000 C 
ATOM     12  C   UNL     1      -8.638   1.421 127.272  0.00  0.00    +0.000 C 
ATOM     13  N   UNL     1      -8.286   2.856 127.309  0.00  0.00    +0.000 NA
ATOM     14  C   UNL     1      -7.095   2.940 126.445  0.00  0.00    +0.000 C 
ENDBRANCH   1  13
BRANCH   4  15
ATOM     15  S   UNL     1      -8.774   6.570 130.848  0.00  0.00    +0.000 S 
ATOM     16  O   UNL     1      -9.142   6.465 132.243  0.00  0.00    +0.000 OA
ATOM     17  O   UNL     1      -7.809   7.535 130.365  0.00  0.00    +0.000 OA
BRANCH  15  18
ATOM     18  C   UNL     1     -10.305   6.999 130.001  0.00  0.00    +0.000 A 
ATOM     19  C   UNL     1     -11.508   6.345 130.254  0.00  0.00    +0.000 A 
ATOM     20  C   UNL     1     -12.663   6.703 129.545  0.00  0.00    +0.000 A 
ATOM     21  C   UNL     1     -12.640   7.715 128.577  0.00  0.00    +0.000 A 
ATOM     22  C   UNL     1     -13.887   8.067 127.814  0.00  0.00    +0.000 C 
ATOM     23  C   UNL     1     -11.434   8.380 128.330  0.00  0.00    +0.000 A 
ATOM     24  C   UNL     1     -10.271   8.026 129.037  0.00  0.00    +0.000 A 
ENDBRANCH  15  18
ENDBRANCH   4  15
TORSDOF 3
ENDMDL
MODEL 3
REMARK VINA RESULT:      -7.6      1.846      2.822
REMARK  Name = Gliclazide
REMARK  4 active torsions:
REMARK  status: ('A' for Active; 'I' for Inactive)
REMARK    1  A    between atoms: N_9  and  N_11
REMARK    2  A    between atoms: N_14  and  S_15
REMARK    3  A    between atoms: S_15  and  C_18
REMARK    4  A    between atoms: C_21  and  C_22
REMARK                            x       y       z     vdW  Elec       q    Type
REMARK                         _______ _______ _______ _____ _____    ______ ____
ROOT
ATOM      1  N   UNL     1     -11.150   6.646 131.431  0.00  0.00    +0.000 N 
ATOM      2  C   UNL     1     -10.268   5.588 131.705  0.00  0.00    +0.000 C 
ATOM      3  O   UNL     1      -9.744   4.918 130.821  0.00  0.00    +0.000 OA
ATOM      4  N   UNL     1      -9.987   5.341 133.064  0.00  0.00    +0.000 N 
ATOM      5  H   UNL     1     -11.627   7.135 132.177  0.00  0.00    +0.000 HD
ATOM      6  H   UNL     1     -10.429   5.883 133.785  0.00  0.00    +0.000 HD
ENDROOT
BRANCH   1  13
ATOM      7  C   UNL     1     -12.714   8.133 128.429  0.00  0.00    +0.000 C 
ATOM      8  C   UNL     1     -13.222   7.117 127.400  0.00  0.00    +0.000 C 
ATOM      9  C   UNL     1     -12.243   7.218 126.242  0.00  0.00    +0.000 C 
ATOM     10  C   UNL     1     -10.905   7.400 126.934  0.00  0.00    +0.000 C 
ATOM     11  C   UNL     1     -11.209   8.291 128.143  0.00  0.00    +0.000 C 
ATOM     12  C   UNL     1     -10.522   7.847 129.432  0.00  0.00    +0.000 C 
ATOM     13  N   UNL     1     -11.505   6.948 130.072  0.00  0.00    +0.000 NA
ATOM     14  C   UNL     1     -12.786   7.654 129.887  0.00  0.00    +0.000 C 
ENDBRANCH   1  13
BRANCH   4  15
ATOM     15  S   UNL     1      -8.879   4.135 133.498  0.00  0.00    +0.000 S 
ATOM     16  O   UNL     1      -8.571   4.301 134.902  0.00  0.00    +0.000 OA
ATOM     17  O   UNL     1      -9.348   2.883 132.944  0.00  0.00    +0.000 OA
BRANCH  15  18
ATOM     18  C   UNL     1      -7.323   4.453 132.647  0.00  0.00    +0.000 A 
ATOM     19  C   UNL     1      -6.677   3.485 131.883  0.00  0.00    +0.000 A 
ATOM     20  C   UNL     1      -5.454   3.781 131.265  0.00  0.00    +0.000 A 
ATOM     21  C   UNL     1      -4.856   5.041 131.396  0.00  0.00    +0.000 A 
ATOM     22  C   UNL     1      -3.533   5.328 130.742  0.00  0.00    +0.000 C 
ATOM     23  C   UNL     1      -5.511   6.017 132.155  0.00  0.00    +0.000 A 
ATOM     24  C   UNL     1      -6.738   5.728 132.779  0.00  0.00    +0.000 A 
ENDBRANCH  15  18
ENDBRANCH   4  15
TORSDOF 3
ENDMDL
MODEL 4
REMARK VINA RESULT:      -7.6      6.856      9.254
REMARK  Name = Gliclazide
REMARK  4 active torsions:
REMARK  status: ('A' for Active; 'I' for Inactive)
REMARK    1  A    between atoms: N_9  and  N_11
REMARK    2  A    between atoms: N_14  and  S_15
REMARK    3  A    between atoms: S_15  and  C_18
REMARK    4  A    between atoms: C_21  and  C_22
REMARK                            x       y       z     vdW  Elec       q    Type
REMARK                         _______ _______ _______ _____ _____    ______ ____
ROOT
ATOM      1  N   UNL     1      -8.632   1.179 123.782  0.00  0.00    +0.000 N 
ATOM      2  C   UNL     1      -8.223   1.943 124.886  0.00  0.00    +0.000 C 
ATOM      3  O   UNL     1      -7.703   1.445 125.880  0.00  0.00    +0.000 OA
ATOM      4  N   UNL     1      -8.414   3.336 124.790  0.00  0.00    +0.000 N 
ATOM      5  H   UNL     1      -9.125   1.602 123.006  0.00  0.00    +0.000 HD
ATOM      6  H   UNL     1      -8.852   3.738 123.980  0.00  0.00    +0.000 HD
ENDROOT
BRANCH   1  13
ATOM      7  C   UNL     1      -8.766  -2.409 122.894  0.00  0.00    +0.000 C 
ATOM      8  C   UNL     1      -9.278  -3.327 124.010  0.00  0.00    +0.000 C 
ATOM      9  C   UNL     1      -8.046  -4.076 124.490  0.00  0.00    +0.000 C 
ATOM     10  C   UNL     1      -6.958  -3.018 124.447  0.00  0.00    +0.000 C 
ATOM     11  C   UNL     1      -7.271  -2.188 123.197  0.00  0.00    +0.000 C 
ATOM     12  C   UNL     1      -7.138  -0.681 123.402  0.00  0.00    +0.000 C 
ATOM     13  N   UNL     1      -8.492  -0.252 123.810  0.00  0.00    +0.000 NA
ATOM     14  C   UNL     1      -9.377  -1.000 122.898  0.00  0.00    +0.000 C 
ENDBRANCH   1  13
BRANCH   4  15
ATOM     15  S   UNL     1      -7.886   4.355 126.037  0.00  0.00    +0.000 S 
ATOM     16  O   UNL     1      -7.967   5.718 125.559  0.00  0.00    +0.000 OA
ATOM     17  O   UNL     1      -8.519   3.918 127.263  0.00  0.00    +0.000 OA
BRANCH  15  18
ATOM     18  C   UNL     1      -6.129   4.067 126.307  0.00  0.00    +0.000 A 
ATOM     19  C   UNL     1      -5.203   4.059 125.267  0.00  0.00    +0.000 A 
ATOM     20  C   UNL     1      -3.851   3.803 125.533  0.00  0.00    +0.000 A 
ATOM     21  C   UNL     1      -3.399   3.552 126.835  0.00  0.00    +0.000 A 
ATOM     22  C   UNL     1      -1.947   3.259 127.094  0.00  0.00    +0.000 C 
ATOM     23  C   UNL     1      -4.327   3.572 127.882  0.00  0.00    +0.000 A 
ATOM     24  C   UNL     1      -5.685   3.827 127.623  0.00  0.00    +0.000 A 
ENDBRANCH  15  18
ENDBRANCH   4  15
TORSDOF 3
ENDMDL
MODEL 5
REMARK VINA RESULT:      -7.5      2.892      3.992
REMARK  Name = Gliclazide
REMARK  4 active torsions:
REMARK  status: ('A' for Active; 'I' for Inactive)
REMARK    1  A    between atoms: N_9  and  N_11
REMARK    2  A    between atoms: N_14  and  S_15
REMARK    3  A    between atoms: S_15  and  C_18
REMARK    4  A    between atoms: C_21  and  C_22
REMARK                            x       y       z     vdW  Elec       q    Type
REMARK                         _______ _______ _______ _____ _____    ______ ____
ROOT
ATOM      1  N   UNL     1     -10.653   6.906 131.331  0.00  0.00    +0.000 N 
ATOM      2  C   UNL     1      -9.886   5.761 131.594  0.00  0.00    +0.000 C 
ATOM      3  O   UNL     1      -9.612   4.935 130.729  0.00  0.00    +0.000 OA
ATOM      4  N   UNL     1      -9.412   5.611 132.913  0.00  0.00    +0.000 N 
ATOM      5  H   UNL     1     -10.928   7.534 132.076  0.00  0.00    +0.000 HD
ATOM      6  H   UNL     1      -9.650   6.283 133.621  0.00  0.00    +0.000 HD
ENDROOT
BRANCH   1  13
ATOM      7  C   UNL     1     -12.599   8.221 128.475  0.00  0.00    +0.000 C 
ATOM      8  C   UNL     1     -13.265   7.149 127.605  0.00  0.00    +0.000 C 
ATOM      9  C   UNL     1     -12.459   7.139 126.318  0.00  0.00    +0.000 C 
ATOM     10  C   UNL     1     -11.033   7.331 126.800  0.00  0.00    +0.000 C 
ATOM     11  C   UNL     1     -11.146   8.315 127.970  0.00  0.00    +0.000 C 
ATOM     12  C   UNL     1     -10.293   7.944 129.180  0.00  0.00    +0.000 C 
ATOM     13  N   UNL     1     -11.192   7.121 130.016  0.00  0.00    +0.000 NA
ATOM     14  C   UNL     1     -12.473   7.849 129.959  0.00  0.00    +0.000 C 
ENDBRANCH   1  13
BRANCH   4  15
ATOM     15  S   UNL     1      -8.415   4.302 133.317  0.00  0.00    +0.000 S 
ATOM     16  O   UNL     1      -9.268   3.203 133.716  0.00  0.00    +0.000 OA
ATOM     17  O   UNL     1      -7.411   4.176 132.282  0.00  0.00    +0.000 OA
BRANCH  15  18
ATOM     18  C   UNL     1      -7.486   4.725 134.801  0.00  0.00    +0.000 A 
ATOM     19  C   UNL     1      -6.353   4.022 135.199  0.00  0.00    +0.000 A 
ATOM     20  C   UNL     1      -5.685   4.379 136.379  0.00  0.00    +0.000 A 
ATOM     21  C   UNL     1      -6.133   5.438 137.179  0.00  0.00    +0.000 A 
ATOM     22  C   UNL     1      -5.413   5.789 138.451  0.00  0.00    +0.000 C 
ATOM     23  C   UNL     1      -7.266   6.152 136.773  0.00  0.00    +0.000 A 
ATOM     24  C   UNL     1      -7.941   5.799 135.590  0.00  0.00    +0.000 A 
ENDBRANCH  15  18
ENDBRANCH   4  15
TORSDOF 3
ENDMDL
MODEL 6
REMARK VINA RESULT:      -7.5      7.569     10.044
REMARK  Name = Gliclazide
REMARK  4 active torsions:
REMARK  status: ('A' for Active; 'I' for Inactive)
REMARK    1  A    between atoms: N_9  and  N_11
REMARK    2  A    between atoms: N_14  and  S_15
REMARK    3  A    between atoms: S_15  and  C_18
REMARK    4  A    between atoms: C_21  and  C_22
REMARK                            x       y       z     vdW  Elec       q    Type
REMARK                         _______ _______ _______ _____ _____    ______ ____
ROOT
ATOM      1  N   UNL     1      -4.921   3.010 126.481  0.00  0.00    +0.000 N 
ATOM      2  C   UNL     1      -6.033   3.291 125.672  0.00  0.00    +0.000 C 
ATOM      3  O   UNL     1      -6.567   4.396 125.640  0.00  0.00    +0.000 OA
ATOM      4  N   UNL     1      -6.503   2.237 124.861  0.00  0.00    +0.000 N 
ATOM      5  H   UNL     1      -4.544   2.073 126.545  0.00  0.00    +0.000 HD
ATOM      6  H   UNL     1      -6.071   1.331 124.900  0.00  0.00    +0.000 HD
ENDROOT
BRANCH   1  13
ATOM      7  C   UNL     1      -3.513   4.782 129.404  0.00  0.00    +0.000 C 
ATOM      8  C   UNL     1      -4.216   6.098 129.757  0.00  0.00    +0.000 C 
ATOM      9  C   UNL     1      -3.236   7.183 129.344  0.00  0.00    +0.000 C 
ATOM     10  C   UNL     1      -2.648   6.645 128.053  0.00  0.00    +0.000 C 
ATOM     11  C   UNL     1      -2.519   5.135 128.281  0.00  0.00    +0.000 C 
ATOM     12  C   UNL     1      -2.964   4.287 127.093  0.00  0.00    +0.000 C 
ATOM     13  N   UNL     1      -4.395   4.025 127.352  0.00  0.00    +0.000 NA
ATOM     14  C   UNL     1      -4.430   3.713 128.793  0.00  0.00    +0.000 C 
ENDBRANCH   1  13
BRANCH   4  15
ATOM     15  S   UNL     1      -7.793   2.494 123.794  0.00  0.00    +0.000 S 
ATOM     16  O   UNL     1      -8.255   1.201 123.339  0.00  0.00    +0.000 OA
ATOM     17  O   UNL     1      -8.675   3.473 124.393  0.00  0.00    +0.000 OA
BRANCH  15  18
ATOM     18  C   UNL     1      -7.160   3.301 122.313  0.00  0.00    +0.000 A 
ATOM     19  C   UNL     1      -5.846   3.747 122.208  0.00  0.00    +0.000 A 
ATOM     20  C   UNL     1      -5.415   4.393 121.040  0.00  0.00    +0.000 A 
ATOM     21  C   UNL     1      -6.283   4.604 119.961  0.00  0.00    +0.000 A 
ATOM     22  C   UNL     1      -5.805   5.318 118.728  0.00  0.00    +0.000 C 
ATOM     23  C   UNL     1      -7.601   4.145 120.062  0.00  0.00    +0.000 A 
ATOM     24  C   UNL     1      -8.040   3.497 121.231  0.00  0.00    +0.000 A 
ENDBRANCH  15  18
ENDBRANCH   4  15
TORSDOF 3
ENDMDL
MODEL 7
REMARK VINA RESULT:      -7.5      7.471      9.485
REMARK  Name = Gliclazide
REMARK  4 active torsions:
REMARK  status: ('A' for Active; 'I' for Inactive)
REMARK    1  A    between atoms: N_9  and  N_11
REMARK    2  A    between atoms: N_14  and  S_15
REMARK    3  A    between atoms: S_15  and  C_18
REMARK    4  A    between atoms: C_21  and  C_22
REMARK                            x       y       z     vdW  Elec       q    Type
REMARK                         _______ _______ _______ _____ _____    ______ ____
ROOT
ATOM      1  N   UNL     1      -6.898   2.555 124.855  0.00  0.00    +0.000 N 
ATOM      2  C   UNL     1      -7.345   1.225 124.891  0.00  0.00    +0.000 C 
ATOM      3  O   UNL     1      -6.960   0.420 125.732  0.00  0.00    +0.000 OA
ATOM      4  N   UNL     1      -8.294   0.855 123.916  0.00  0.00    +0.000 N 
ATOM      5  H   UNL     1      -7.174   3.180 124.108  0.00  0.00    +0.000 HD
ATOM      6  H   UNL     1      -8.596   1.514 123.220  0.00  0.00    +0.000 HD
ENDROOT
BRANCH   1  13
ATOM      7  C   UNL     1      -4.238   4.489 126.546  0.00  0.00    +0.000 C 
ATOM      8  C   UNL     1      -3.076   3.646 127.084  0.00  0.00    +0.000 C 
ATOM      9  C   UNL     1      -3.256   3.659 128.592  0.00  0.00    +0.000 C 
ATOM     10  C   UNL     1      -4.761   3.563 128.763  0.00  0.00    +0.000 C 
ATOM     11  C   UNL     1      -5.338   4.408 127.622  0.00  0.00    +0.000 C 
ATOM     12  C   UNL     1      -6.527   3.766 126.912  0.00  0.00    +0.000 C 
ATOM     13  N   UNL     1      -5.915   3.006 125.802  0.00  0.00    +0.000 NA
ATOM     14  C   UNL     1      -4.895   3.931 125.274  0.00  0.00    +0.000 C 
ENDBRANCH   1  13
BRANCH   4  15
ATOM     15  S   UNL     1      -8.952  -0.706 123.918  0.00  0.00    +0.000 S 
ATOM     16  O   UNL     1      -9.547  -0.934 125.217  0.00  0.00    +0.000 OA
ATOM     17  O   UNL     1      -9.684  -0.879 122.682  0.00  0.00    +0.000 OA
BRANCH  15  18
ATOM     18  C   UNL     1      -7.604  -1.896 123.816  0.00  0.00    +0.000 A 
ATOM     19  C   UNL     1      -7.554  -3.040 124.607  0.00  0.00    +0.000 A 
ATOM     20  C   UNL     1      -6.466  -3.918 124.504  0.00  0.00    +0.000 A 
ATOM     21  C   UNL     1      -5.413  -3.673 123.615  0.00  0.00    +0.000 A 
ATOM     22  C   UNL     1      -4.245  -4.617 123.537  0.00  0.00    +0.000 C 
ATOM     23  C   UNL     1      -5.467  -2.529 122.811  0.00  0.00    +0.000 A 
ATOM     24  C   UNL     1      -6.556  -1.643 122.909  0.00  0.00    +0.000 A 
ENDBRANCH  15  18
ENDBRANCH   4  15
TORSDOF 3
ENDMDL
MODEL 8
REMARK VINA RESULT:      -7.5      4.550      5.346
REMARK  Name = Gliclazide
REMARK  4 active torsions:
REMARK  status: ('A' for Active; 'I' for Inactive)
REMARK    1  A    between atoms: N_9  and  N_11
REMARK    2  A    between atoms: N_14  and  S_15
REMARK    3  A    between atoms: S_15  and  C_18
REMARK    4  A    between atoms: C_21  and  C_22
REMARK                            x       y       z     vdW  Elec       q    Type
REMARK                         _______ _______ _______ _____ _____    ______ ____
ROOT
ATOM      1  N   UNL     1      -9.293   5.256 129.372  0.00  0.00    +0.000 N 
ATOM      2  C   UNL     1      -8.540   4.903 128.242  0.00  0.00    +0.000 C 
ATOM      3  O   UNL     1      -8.813   5.301 127.114  0.00  0.00    +0.000 OA
ATOM      4  N   UNL     1      -7.420   4.077 128.467  0.00  0.00    +0.000 N 
ATOM      5  H   UNL     1      -9.093   4.857 130.280  0.00  0.00    +0.000 HD
ATOM      6  H   UNL     1      -7.208   3.743 129.390  0.00  0.00    +0.000 HD
ENDROOT
BRANCH   1  13
ATOM      7  C   UNL     1     -12.568   6.883 129.923  0.00  0.00    +0.000 C 
ATOM      8  C   UNL     1     -13.490   6.897 128.699  0.00  0.00    +0.000 C 
ATOM      9  C   UNL     1     -13.491   8.344 128.233  0.00  0.00    +0.000 C 
ATOM     10  C   UNL     1     -12.051   8.775 128.440  0.00  0.00    +0.000 C 
ATOM     11  C   UNL     1     -11.619   8.082 129.737  0.00  0.00    +0.000 C 
ATOM     12  C   UNL     1     -10.224   7.464 129.677  0.00  0.00    +0.000 C 
ATOM     13  N   UNL     1     -10.463   6.078 129.225  0.00  0.00    +0.000 NA
ATOM     14  C   UNL     1     -11.642   5.661 130.007  0.00  0.00    +0.000 C 
ENDBRANCH   1  13
BRANCH   4  15
ATOM     15  S   UNL     1      -6.402   3.654 127.180  0.00  0.00    +0.000 S 
ATOM     16  O   UNL     1      -5.887   4.877 126.602  0.00  0.00    +0.000 OA
ATOM     17  O   UNL     1      -5.543   2.580 127.630  0.00  0.00    +0.000 OA
BRANCH  15  18
ATOM     18  C   UNL     1      -7.403   2.918 125.876  0.00  0.00    +0.000 A 
ATOM     19  C   UNL     1      -7.395   3.393 124.568  0.00  0.00    +0.000 A 
ATOM     20  C   UNL     1      -8.216   2.797 123.599  0.00  0.00    +0.000 A 
ATOM     21  C   UNL     1      -9.055   1.722 123.917  0.00  0.00    +0.000 A 
ATOM     22  C   UNL     1      -9.943   1.113 122.867  0.00  0.00    +0.000 C 
ATOM     23  C   UNL     1      -9.056   1.237 125.229  0.00  0.00    +0.000 A 
ATOM     24  C   UNL     1      -8.235   1.830 126.206  0.00  0.00    +0.000 A 
ENDBRANCH  15  18
ENDBRANCH   4  15
TORSDOF 3
ENDMDL
MODEL 9
REMARK VINA RESULT:      -7.4      3.290      4.172
REMARK  Name = Gliclazide
REMARK  4 active torsions:
REMARK  status: ('A' for Active; 'I' for Inactive)
REMARK    1  A    between atoms: N_9  and  N_11
REMARK    2  A    between atoms: N_14  and  S_15
REMARK    3  A    between atoms: S_15  and  C_18
REMARK    4  A    between atoms: C_21  and  C_22
REMARK                            x       y       z     vdW  Elec       q    Type
REMARK                         _______ _______ _______ _____ _____    ______ ____
ROOT
ATOM      1  N   UNL     1      -9.723   7.024 130.924  0.00  0.00    +0.000 N 
ATOM      2  C   UNL     1      -8.672   6.093 130.907  0.00  0.00    +0.000 C 
ATOM      3  O   UNL     1      -8.411   5.408 129.923  0.00  0.00    +0.000 OA
ATOM      4  N   UNL     1      -7.900   5.997 132.083  0.00  0.00    +0.000 N 
ATOM      5  H   UNL     1      -9.965   7.524 131.770  0.00  0.00    +0.000 HD
ATOM      6  H   UNL     1      -8.126   6.550 132.890  0.00  0.00    +0.000 HD
ENDROOT
BRANCH   1  13
ATOM      7  C   UNL     1     -12.459   8.024 128.647  0.00  0.00    +0.000 C 
ATOM      8  C   UNL     1     -13.103   6.868 127.873  0.00  0.00    +0.000 C 
ATOM      9  C   UNL     1     -12.616   7.042 126.444  0.00  0.00    +0.000 C 
ATOM     10  C   UNL     1     -11.175   7.484 126.620  0.00  0.00    +0.000 C 
ATOM     11  C   UNL     1     -11.196   8.400 127.848  0.00  0.00    +0.000 C 
ATOM     12  C   UNL     1     -10.042   8.165 128.819  0.00  0.00    +0.000 C 
ATOM     13  N   UNL     1     -10.571   7.168 129.773  0.00  0.00    +0.000 NA
ATOM     14  C   UNL     1     -11.940   7.645 130.042  0.00  0.00    +0.000 C 
ENDBRANCH   1  13
BRANCH   4  15
ATOM     15  S   UNL     1      -6.564   4.957 132.139  0.00  0.00    +0.000 S 
ATOM     16  O   UNL     1      -5.970   5.069 133.454  0.00  0.00    +0.000 OA
ATOM     17  O   UNL     1      -6.966   3.688 131.570  0.00  0.00    +0.000 OA
BRANCH  15  18
ATOM     18  C   UNL     1      -5.304   5.580 131.013  0.00  0.00    +0.000 A 
ATOM     19  C   UNL     1      -5.084   6.940 130.816  0.00  0.00    +0.000 A 
ATOM     20  C   UNL     1      -4.106   7.368 129.906  0.00  0.00    +0.000 A 
ATOM     21  C   UNL     1      -3.334   6.451 129.181  0.00  0.00    +0.000 A 
ATOM     22  C   UNL     1      -2.307   6.934 128.195  0.00  0.00    +0.000 C 
ATOM     23  C   UNL     1      -3.547   5.084 129.388  0.00  0.00    +0.000 A 
ATOM     24  C   UNL     1      -4.526   4.647 130.299  0.00  0.00    +0.000 A 
ENDBRANCH  15  18
ENDBRANCH   4  15
TORSDOF 3
ENDMDL
