MODEL 1
REMARK VINA RESULT:      -8.3      0.000      0.000
REMARK  Name = Glipizide
REMARK  8 active torsions:
REMARK  status: ('A' for Active; 'I' for Inactive)
REMARK    1  A    between atoms: C_1  and  C_2
REMARK    2  A    between atoms: C_5  and  C_8
REMARK    3  A    between atoms: N_10  and  C_11
REMARK    4  A    between atoms: C_11  and  C_12
REMARK    5  A    between atoms: C_12  and  C_13
REMARK    6  A    between atoms: C_16  and  S_19
REMARK    7  A    between atoms: S_19  and  N_22
REMARK    8  A    between atoms: N_25  and  C_26
REMARK                            x       y       z     vdW  Elec       q    Type
REMARK                         _______ _______ _______ _____ _____    ______ ____
ROOT
ATOM      1  C   UNL     1      -8.261   3.146 133.520  0.00  0.00    +0.000 A 
ATOM      2  C   UNL     1      -6.926   2.793 133.282  0.00  0.00    +0.000 A 
ATOM      3  C   UNL     1      -6.614   1.811 132.323  0.00  0.00    +0.000 A 
ATOM      4  C   UNL     1      -7.640   1.106 131.663  0.00  0.00    +0.000 A 
ATOM      5  C   UNL     1      -8.960   1.435 131.910  0.00  0.00    +0.000 A 
ATOM      6  C   UNL     1      -9.258   2.437 132.829  0.00  0.00    +0.000 A 
ENDROOT
BRANCH   4   7
ATOM      7  S   UNL     1      -7.200  -0.269 130.610  0.00  0.00    +0.000 S 
ATOM      8  O   UNL     1      -5.755  -0.237 130.537  0.00  0.00    +0.000 OA
ATOM      9  O   UNL     1      -7.928  -1.391 131.167  0.00  0.00    +0.000 OA
BRANCH   7  10
ATOM     10  N   UNL     1      -7.818   0.032 129.049  0.00  0.00    +0.000 N 
ATOM     11  C   UNL     1      -7.640  -0.945 128.064  0.00  0.00    +0.000 C 
ATOM     12  O   UNL     1      -7.133  -2.015 128.373  0.00  0.00    +0.000 OA
ATOM     13  N   UNL     1      -8.033  -0.645 126.765  0.00  0.00    +0.000 N 
ATOM     14  H   UNL     1      -8.290   0.896 128.851  0.00  0.00    +0.000 HD
ATOM     15  H   UNL     1      -8.594   0.177 126.595  0.00  0.00    +0.000 HD
BRANCH  13  16
ATOM     16  C   UNL     1      -7.874  -1.618 125.642  0.00  0.00    +0.000 C 
ATOM     17  C   UNL     1      -9.012  -2.674 125.587  0.00  0.00    +0.000 C 
ATOM     18  C   UNL     1      -8.942  -3.572 124.335  0.00  0.00    +0.000 C 
ATOM     19  C   UNL     1      -8.895  -2.761 123.045  0.00  0.00    +0.000 C 
ATOM     20  C   UNL     1      -7.731  -1.798 123.081  0.00  0.00    +0.000 C 
ATOM     21  C   UNL     1      -7.814  -0.890 124.288  0.00  0.00    +0.000 C 
ENDBRANCH  13  16
ENDBRANCH   7  10
ENDBRANCH   4   7
BRANCH   1  22
ATOM     22  C   UNL     1      -8.608   4.304 134.446  0.00  0.00    +0.000 C 
BRANCH  22  23
ATOM     23  C   UNL     1      -8.394   5.681 133.801  0.00  0.00    +0.000 C 
BRANCH  23  26
ATOM     24  C   UNL     1      -8.781   6.258 131.460  0.00  0.00    +0.000 C 
ATOM     25  O   UNL     1      -7.580   6.192 131.208  0.00  0.00    +0.000 OA
ATOM     26  N   UNL     1      -9.294   6.022 132.726  0.00  0.00    +0.000 N 
ATOM     27  H   UNL     1     -10.297   6.099 132.867  0.00  0.00    +0.000 HD
BRANCH  24  32
ATOM     28  C   UNL     1     -12.616   7.431 127.428  0.00  0.00    +0.000 C 
ATOM     29  C   UNL     1     -11.597   7.120 128.482  0.00  0.00    +0.000 A 
ATOM     30  N   UNL     1     -11.803   6.024 129.250  0.00  0.00    +0.000 NA
ATOM     31  C   UNL     1     -10.863   5.784 130.201  0.00  0.00    +0.000 A 
ATOM     32  C   UNL     1      -9.756   6.601 130.386  0.00  0.00    +0.000 A 
ATOM     33  N   UNL     1      -9.531   7.707 129.623  0.00  0.00    +0.000 NA
ATOM     34  C   UNL     1     -10.480   7.936 128.674  0.00  0.00    +0.000 A 
ENDBRANCH  24  32
ENDBRANCH  23  26
ENDBRANCH  22  23
ENDBRANCH   1  22
TORSDOF 7
ENDMDL
MODEL 2
REMARK VINA RESULT:      -8.2      2.044      8.896
REMARK  Name = Glipizide
REMARK  8 active torsions:
REMARK  status: ('A' for Active; 'I' for Inactive)
REMARK    1  A    between atoms: C_1  and  C_2
REMARK    2  A    between atoms: C_5  and  C_8
REMARK    3  A    between atoms: N_10  and  C_11
REMARK    4  A    between atoms: C_11  and  C_12
REMARK    5  A    between atoms: C_12  and  C_13
REMARK    6  A    between atoms: C_16  and  S_19
REMARK    7  A    between atoms: S_19  and  N_22
REMARK    8  A    between atoms: N_25  and  C_26
REMARK                            x       y       z     vdW  Elec       q    Type
REMARK                         _______ _______ _______ _____ _____    ______ ____
ROOT
ATOM      1  C   UNL     1      -8.328   0.367 131.997  0.00  0.00    +0.000 A 
ATOM      2  C   UNL     1      -9.535   1.076 131.950  0.00  0.00    +0.000 A 
ATOM      3  C   UNL     1      -9.578   2.427 132.338  0.00  0.00    +0.000 A 
ATOM      4  C   UNL     1      -8.434   3.055 132.868  0.00  0.00    +0.000 A 
ATOM      5  C   UNL     1      -7.243   2.354 132.938  0.00  0.00    +0.000 A 
ATOM      6  C   UNL     1      -7.200   1.030 132.512  0.00  0.00    +0.000 A 
ENDROOT
BRANCH   4   7
ATOM      7  S   UNL     1      -8.587   4.705 133.538  0.00  0.00    +0.000 S 
ATOM      8  O   UNL     1      -8.577   4.527 134.974  0.00  0.00    +0.000 OA
ATOM      9  O   UNL     1      -7.575   5.469 132.839  0.00  0.00    +0.000 OA
BRANCH   7  10
ATOM     10  N   UNL     1     -10.112   5.324 133.092  0.00  0.00    +0.000 N 
ATOM     11  C   UNL     1     -10.249   5.905 131.827  0.00  0.00    +0.000 C 
ATOM     12  O   UNL     1      -9.303   5.870 131.051  0.00  0.00    +0.000 OA
ATOM     13  N   UNL     1     -11.456   6.520 131.515  0.00  0.00    +0.000 N 
ATOM     14  H   UNL     1     -10.885   5.274 133.731  0.00  0.00    +0.000 HD
ATOM     15  H   UNL     1     -12.254   6.377 132.117  0.00  0.00    +0.000 HD
BRANCH  13  16
ATOM     16  C   UNL     1     -11.695   7.178 130.195  0.00  0.00    +0.000 C 
ATOM     17  C   UNL     1     -12.346   6.228 129.151  0.00  0.00    +0.000 C 
ATOM     18  C   UNL     1     -12.747   6.948 127.847  0.00  0.00    +0.000 C 
ATOM     19  C   UNL     1     -13.637   8.158 128.106  0.00  0.00    +0.000 C 
ATOM     20  C   UNL     1     -12.952   9.111 129.057  0.00  0.00    +0.000 C 
ATOM     21  C   UNL     1     -12.590   8.419 130.353  0.00  0.00    +0.000 C 
ENDBRANCH  13  16
ENDBRANCH   7  10
ENDBRANCH   4   7
BRANCH   1  22
ATOM     22  C   UNL     1      -8.232  -1.049 131.446  0.00  0.00    +0.000 C 
BRANCH  22  23
ATOM     23  C   UNL     1      -7.228  -1.185 130.292  0.00  0.00    +0.000 C 
BRANCH  23  26
ATOM     24  C   UNL     1      -6.928  -1.859 127.965  0.00  0.00    +0.000 C 
ATOM     25  O   UNL     1      -5.704  -1.826 128.075  0.00  0.00    +0.000 OA
ATOM     26  N   UNL     1      -7.783  -1.555 129.012  0.00  0.00    +0.000 N 
ATOM     27  H   UNL     1      -8.784  -1.596 128.852  0.00  0.00    +0.000 HD
BRANCH  24  32
ATOM     28  C   UNL     1      -9.490  -3.262 123.085  0.00  0.00    +0.000 C 
ATOM     29  C   UNL     1      -8.810  -2.903 124.372  0.00  0.00    +0.000 A 
ATOM     30  N   UNL     1      -9.594  -2.619 125.438  0.00  0.00    +0.000 NA
ATOM     31  C   UNL     1      -8.940  -2.287 126.581  0.00  0.00    +0.000 A 
ATOM     32  C   UNL     1      -7.555  -2.239 126.667  0.00  0.00    +0.000 A 
ATOM     33  N   UNL     1      -6.749  -2.522 125.605  0.00  0.00    +0.000 NA
ATOM     34  C   UNL     1      -7.418  -2.853 124.466  0.00  0.00    +0.000 A 
ENDBRANCH  24  32
ENDBRANCH  23  26
ENDBRANCH  22  23
ENDBRANCH   1  22
TORSDOF 7
ENDMDL
MODEL 3
REMARK VINA RESULT:      -8.1      1.821      2.117
REMARK  Name = Glipizide
REMARK  8 active torsions:
REMARK  status: ('A' for Active; 'I' for Inactive)
REMARK    1  A    between atoms: C_1  and  C_2
REMARK    2  A    between atoms: C_5  and  C_8
REMARK    3  A    between atoms: N_10  and  C_11
REMARK    4  A    between atoms: C_11  and  C_12
REMARK    5  A    between atoms: C_12  and  C_13
REMARK    6  A    between atoms: C_16  and  S_19
REMARK    7  A    between atoms: S_19  and  N_22
REMARK    8  A    between atoms: N_25  and  C_26
REMARK                            x       y       z     vdW  Elec       q    Type
REMARK                         _______ _______ _______ _____ _____    ______ ____
ROOT
ATOM      1  C   UNL     1      -7.672   1.696 132.665  0.00  0.00    +0.000 A 
ATOM      2  C   UNL     1      -6.510   1.007 133.037  0.00  0.00    +0.000 A 
ATOM      3  C   UNL     1      -6.297  -0.312 132.594  0.00  0.00    +0.000 A 
ATOM      4  C   UNL     1      -7.289  -0.986 131.855  0.00  0.00    +0.000 A 
ATOM      5  C   UNL     1      -8.448  -0.319 131.503  0.00  0.00    +0.000 A 
ATOM      6  C   UNL     1      -8.631   1.000 131.909  0.00  0.00    +0.000 A 
ENDROOT
BRANCH   4   7
ATOM      7  S   UNL     1      -7.063  -2.721 131.492  0.00  0.00    +0.000 S 
ATOM      8  O   UNL     1      -5.681  -2.840 131.080  0.00  0.00    +0.000 OA
ATOM      9  O   UNL     1      -7.590  -3.401 132.657  0.00  0.00    +0.000 OA
BRANCH   7  10
ATOM     10  N   UNL     1      -8.050  -3.124 130.161  0.00  0.00    +0.000 N 
ATOM     11  C   UNL     1      -7.631  -2.740 128.883  0.00  0.00    +0.000 C 
ATOM     12  O   UNL     1      -6.534  -2.213 128.750  0.00  0.00    +0.000 OA
ATOM     13  N   UNL     1      -8.495  -2.959 127.817  0.00  0.00    +0.000 N 
ATOM     14  H   UNL     1      -8.913  -3.618 130.303  0.00  0.00    +0.000 HD
ATOM     15  H   UNL     1      -9.308  -3.543 127.950  0.00  0.00    +0.000 HD
BRANCH  13  16
ATOM     16  C   UNL     1      -8.143  -2.574 126.416  0.00  0.00    +0.000 C 
ATOM     17  C   UNL     1      -8.294  -3.746 125.407  0.00  0.00    +0.000 C 
ATOM     18  C   UNL     1      -8.095  -3.310 123.942  0.00  0.00    +0.000 C 
ATOM     19  C   UNL     1      -9.000  -2.145 123.558  0.00  0.00    +0.000 C 
ATOM     20  C   UNL     1      -8.778  -0.984 124.498  0.00  0.00    +0.000 C 
ATOM     21  C   UNL     1      -9.008  -1.397 125.935  0.00  0.00    +0.000 C 
ENDBRANCH  13  16
ENDBRANCH   7  10
ENDBRANCH   4   7
BRANCH   1  22
ATOM     22  C   UNL     1      -7.852   3.167 133.013  0.00  0.00    +0.000 C 
BRANCH  22  23
ATOM     23  C   UNL     1      -9.279   3.515 133.461  0.00  0.00    +0.000 C 
BRANCH  23  26
ATOM     24  C   UNL     1      -9.970   5.678 132.564  0.00  0.00    +0.000 C 
ATOM     25  O   UNL     1      -9.249   6.278 133.358  0.00  0.00    +0.000 OA
ATOM     26  N   UNL     1     -10.060   4.295 132.532  0.00  0.00    +0.000 N 
ATOM     27  H   UNL     1     -10.681   3.863 131.854  0.00  0.00    +0.000 HD
BRANCH  24  32
ATOM     28  C   UNL     1     -12.965   8.574 128.693  0.00  0.00    +0.000 C 
ATOM     29  C   UNL     1     -12.179   7.819 129.721  0.00  0.00    +0.000 A 
ATOM     30  N   UNL     1     -10.845   7.696 129.525  0.00  0.00    +0.000 NA
ATOM     31  C   UNL     1     -10.170   6.994 130.473  0.00  0.00    +0.000 A 
ATOM     32  C   UNL     1     -10.795   6.435 131.579  0.00  0.00    +0.000 A 
ATOM     33  N   UNL     1     -12.135   6.549 131.794  0.00  0.00    +0.000 NA
ATOM     34  C   UNL     1     -12.799   7.254 130.837  0.00  0.00    +0.000 A 
ENDBRANCH  24  32
ENDBRANCH  23  26
ENDBRANCH  22  23
ENDBRANCH   1  22
TORSDOF 7
ENDMDL
MODEL 4
REMARK VINA RESULT:      -8.0      4.756      7.968
REMARK  Name = Glipizide
REMARK  8 active torsions:
REMARK  status: ('A' for Active; 'I' for Inactive)
REMARK    1  A    between atoms: C_1  and  C_2
REMARK    2  A    between atoms: C_5  and  C_8
REMARK    3  A    between atoms: N_10  and  C_11
REMARK    4  A    between atoms: C_11  and  C_12
REMARK    5  A    between atoms: C_12  and  C_13
REMARK    6  A    between atoms: C_16  and  S_19
REMARK    7  A    between atoms: S_19  and  N_22
REMARK    8  A    between atoms: N_25  and  C_26
REMARK                            x       y       z     vdW  Elec       q    Type
REMARK                         _______ _______ _______ _____ _____    ______ ____
ROOT
ATOM      1  C   UNL     1      -7.751  -2.903 125.114  0.00  0.00    +0.000 A 
ATOM      2  C   UNL     1      -8.649  -2.982 126.187  0.00  0.00    +0.000 A 
ATOM      3  C   UNL     1      -8.228  -2.653 127.488  0.00  0.00    +0.000 A 
ATOM      4  C   UNL     1      -6.879  -2.335 127.743  0.00  0.00    +0.000 A 
ATOM      5  C   UNL     1      -5.983  -2.277 126.691  0.00  0.00    +0.000 A 
ATOM      6  C   UNL     1      -6.418  -2.562 125.401  0.00  0.00    +0.000 A 
ENDROOT
BRANCH   4   7
ATOM      7  S   UNL     1      -6.347  -2.128 129.436  0.00  0.00    +0.000 S 
ATOM      8  O   UNL     1      -7.446  -1.450 130.092  0.00  0.00    +0.000 OA
ATOM      9  O   UNL     1      -5.896  -3.445 129.832  0.00  0.00    +0.000 OA
BRANCH   7  10
ATOM     10  N   UNL     1      -4.998  -1.085 129.450  0.00  0.00    +0.000 N 
ATOM     11  C   UNL     1      -5.178   0.241 129.045  0.00  0.00    +0.000 C 
ATOM     12  O   UNL     1      -6.307   0.634 128.782  0.00  0.00    +0.000 OA
ATOM     13  N   UNL     1      -4.054   1.052 128.939  0.00  0.00    +0.000 N 
ATOM     14  H   UNL     1      -4.098  -1.427 129.739  0.00  0.00    +0.000 HD
ATOM     15  H   UNL     1      -3.176   0.735 129.324  0.00  0.00    +0.000 HD
BRANCH  13  16
ATOM     16  C   UNL     1      -4.142   2.479 128.503  0.00  0.00    +0.000 C 
ATOM     17  C   UNL     1      -3.652   3.477 129.587  0.00  0.00    +0.000 C 
ATOM     18  C   UNL     1      -3.583   4.932 129.081  0.00  0.00    +0.000 C 
ATOM     19  C   UNL     1      -2.752   5.063 127.810  0.00  0.00    +0.000 C 
ATOM     20  C   UNL     1      -3.296   4.147 126.739  0.00  0.00    +0.000 C 
ATOM     21  C   UNL     1      -3.330   2.712 127.217  0.00  0.00    +0.000 C 
ENDBRANCH  13  16
ENDBRANCH   7  10
ENDBRANCH   4   7
BRANCH   1  22
ATOM     22  C   UNL     1      -8.226  -3.114 123.682  0.00  0.00    +0.000 C 
BRANCH  22  23
ATOM     23  C   UNL     1      -8.916  -1.879 123.084  0.00  0.00    +0.000 C 
BRANCH  23  26
ATOM     24  C   UNL     1      -8.922   0.320 124.144  0.00  0.00    +0.000 C 
ATOM     25  O   UNL     1     -10.025   0.115 124.647  0.00  0.00    +0.000 OA
ATOM     26  N   UNL     1      -8.278  -0.611 123.344  0.00  0.00    +0.000 N 
ATOM     27  H   UNL     1      -7.371  -0.375 122.955  0.00  0.00    +0.000 HD
BRANCH  24  32
ATOM     28  C   UNL     1      -6.393   5.318 125.127  0.00  0.00    +0.000 C 
ATOM     29  C   UNL     1      -7.056   4.002 124.857  0.00  0.00    +0.000 A 
ATOM     30  N   UNL     1      -8.399   3.931 125.015  0.00  0.00    +0.000 NA
ATOM     31  C   UNL     1      -8.960   2.718 124.772  0.00  0.00    +0.000 A 
ATOM     32  C   UNL     1      -8.217   1.611 124.384  0.00  0.00    +0.000 A 
ATOM     33  N   UNL     1      -6.866   1.663 124.218  0.00  0.00    +0.000 NA
ATOM     34  C   UNL     1      -6.316   2.884 124.464  0.00  0.00    +0.000 A 
ENDBRANCH  24  32
ENDBRANCH  23  26
ENDBRANCH  22  23
ENDBRANCH   1  22
TORSDOF 7
ENDMDL
MODEL 5
REMARK VINA RESULT:      -7.9      2.027      2.610
REMARK  Name = Glipizide
REMARK  8 active torsions:
REMARK  status: ('A' for Active; 'I' for Inactive)
REMARK    1  A    between atoms: C_1  and  C_2
REMARK    2  A    between atoms: C_5  and  C_8
REMARK    3  A    between atoms: N_10  and  C_11
REMARK    4  A    between atoms: C_11  and  C_12
REMARK    5  A    between atoms: C_12  and  C_13
REMARK    6  A    between atoms: C_16  and  S_19
REMARK    7  A    between atoms: S_19  and  N_22
REMARK    8  A    between atoms: N_25  and  C_26
REMARK                            x       y       z     vdW  Elec       q    Type
REMARK                         _______ _______ _______ _____ _____    ______ ____
ROOT
ATOM      1  C   UNL     1      -8.460   1.211 132.069  0.00  0.00    +0.000 A 
ATOM      2  C   UNL     1      -8.695   0.017 131.375  0.00  0.00    +0.000 A 
ATOM      3  C   UNL     1      -7.618  -0.799 130.985  0.00  0.00    +0.000 A 
ATOM      4  C   UNL     1      -6.290  -0.381 131.202  0.00  0.00    +0.000 A 
ATOM      5  C   UNL     1      -6.050   0.808 131.867  0.00  0.00    +0.000 A 
ATOM      6  C   UNL     1      -7.124   1.588 132.287  0.00  0.00    +0.000 A 
ENDROOT
BRANCH   4   7
ATOM      7  S   UNL     1      -4.957  -1.348 130.508  0.00  0.00    +0.000 S 
ATOM      8  O   UNL     1      -3.797  -1.010 131.304  0.00  0.00    +0.000 OA
ATOM      9  O   UNL     1      -5.491  -2.692 130.438  0.00  0.00    +0.000 OA
BRANCH   7  10
ATOM     10  N   UNL     1      -4.680  -0.812 128.913  0.00  0.00    +0.000 N 
ATOM     11  C   UNL     1      -5.483  -1.325 127.890  0.00  0.00    +0.000 C 
ATOM     12  O   UNL     1      -6.413  -2.067 128.180  0.00  0.00    +0.000 OA
ATOM     13  N   UNL     1      -5.175  -0.982 126.579  0.00  0.00    +0.000 N 
ATOM     14  H   UNL     1      -3.951  -0.148 128.722  0.00  0.00    +0.000 HD
ATOM     15  H   UNL     1      -4.511  -0.241 126.404  0.00  0.00    +0.000 HD
BRANCH  13  16
ATOM     16  C   UNL     1      -5.966  -1.488 125.417  0.00  0.00    +0.000 C 
ATOM     17  C   UNL     1      -6.546  -0.349 124.533  0.00  0.00    +0.000 C 
ATOM     18  C   UNL     1      -7.218  -0.867 123.245  0.00  0.00    +0.000 C 
ATOM     19  C   UNL     1      -6.292  -1.766 122.432  0.00  0.00    +0.000 C 
ATOM     20  C   UNL     1      -5.807  -2.915 123.284  0.00  0.00    +0.000 C 
ATOM     21  C   UNL     1      -5.114  -2.412 124.531  0.00  0.00    +0.000 C 
ENDBRANCH  13  16
ENDBRANCH   7  10
ENDBRANCH   4   7
BRANCH   1  22
ATOM     22  C   UNL     1      -9.616   2.032 132.624  0.00  0.00    +0.000 C 
BRANCH  22  23
ATOM     23  C   UNL     1      -9.302   3.532 132.724  0.00  0.00    +0.000 C 
BRANCH  23  26
ATOM     24  C   UNL     1     -10.109   5.765 132.151  0.00  0.00    +0.000 C 
ATOM     25  O   UNL     1      -9.455   6.274 133.058  0.00  0.00    +0.000 OA
ATOM     26  N   UNL     1     -10.105   4.402 131.898  0.00  0.00    +0.000 N 
ATOM     27  H   UNL     1     -10.673   4.046 131.135  0.00  0.00    +0.000 HD
BRANCH  24  32
ATOM     28  C   UNL     1     -13.181   9.023 128.646  0.00  0.00    +0.000 C 
ATOM     29  C   UNL     1     -12.374   8.173 129.578  0.00  0.00    +0.000 A 
ATOM     30  N   UNL     1     -11.061   8.003 129.295  0.00  0.00    +0.000 NA
ATOM     31  C   UNL     1     -10.367   7.216 130.157  0.00  0.00    +0.000 A 
ATOM     32  C   UNL     1     -10.953   6.616 131.264  0.00  0.00    +0.000 A 
ATOM     33  N   UNL     1     -12.271   6.776 131.566  0.00  0.00    +0.000 NA
ATOM     34  C   UNL     1     -12.955   7.567 130.694  0.00  0.00    +0.000 A 
ENDBRANCH  24  32
ENDBRANCH  23  26
ENDBRANCH  22  23
ENDBRANCH   1  22
TORSDOF 7
ENDMDL
MODEL 6
REMARK VINA RESULT:      -7.9      3.639      8.292
REMARK  Name = Glipizide
REMARK  8 active torsions:
REMARK  status: ('A' for Active; 'I' for Inactive)
REMARK    1  A    between atoms: C_1  and  C_2
REMARK    2  A    between atoms: C_5  and  C_8
REMARK    3  A    between atoms: N_10  and  C_11
REMARK    4  A    between atoms: C_11  and  C_12
REMARK    5  A    between atoms: C_12  and  C_13
REMARK    6  A    between atoms: C_16  and  S_19
REMARK    7  A    between atoms: S_19  and  N_22
REMARK    8  A    between atoms: N_25  and  C_26
REMARK                            x       y       z     vdW  Elec       q    Type
REMARK                         _______ _______ _______ _____ _____    ______ ____
ROOT
ATOM      1  C   UNL     1      -7.216   1.268 128.585  0.00  0.00    +0.000 A 
ATOM      2  C   UNL     1      -6.605   2.442 129.046  0.00  0.00    +0.000 A 
ATOM      3  C   UNL     1      -6.877   2.919 130.341  0.00  0.00    +0.000 A 
ATOM      4  C   UNL     1      -7.836   2.280 131.152  0.00  0.00    +0.000 A 
ATOM      5  C   UNL     1      -8.458   1.133 130.693  0.00  0.00    +0.000 A 
ATOM      6  C   UNL     1      -8.151   0.643 129.427  0.00  0.00    +0.000 A 
ENDROOT
BRANCH   4   7
ATOM      7  S   UNL     1      -8.298   3.038 132.702  0.00  0.00    +0.000 S 
ATOM      8  O   UNL     1      -9.533   2.386 133.083  0.00  0.00    +0.000 OA
ATOM      9  O   UNL     1      -7.097   2.966 133.507  0.00  0.00    +0.000 OA
BRANCH   7  10
ATOM     10  N   UNL     1      -8.636   4.685 132.413  0.00  0.00    +0.000 N 
ATOM     11  C   UNL     1      -9.600   5.007 131.453  0.00  0.00    +0.000 C 
ATOM     12  O   UNL     1     -10.233   4.105 130.920  0.00  0.00    +0.000 OA
ATOM     13  N   UNL     1      -9.784   6.347 131.132  0.00  0.00    +0.000 N 
ATOM     14  H   UNL     1      -8.144   5.398 132.920  0.00  0.00    +0.000 HD
ATOM     15  H   UNL     1      -9.363   7.057 131.713  0.00  0.00    +0.000 HD
BRANCH  13  16
ATOM     16  C   UNL     1     -10.781   6.791 130.112  0.00  0.00    +0.000 C 
ATOM     17  C   UNL     1     -12.123   7.263 130.738  0.00  0.00    +0.000 C 
ATOM     18  C   UNL     1     -13.089   7.877 129.705  0.00  0.00    +0.000 C 
ATOM     19  C   UNL     1     -12.440   9.001 128.904  0.00  0.00    +0.000 C 
ATOM     20  C   UNL     1     -11.182   8.500 128.233  0.00  0.00    +0.000 C 
ATOM     21  C   UNL     1     -10.215   7.930 129.247  0.00  0.00    +0.000 C 
ENDBRANCH  13  16
ENDBRANCH   7  10
ENDBRANCH   4   7
BRANCH   1  22
ATOM     22  C   UNL     1      -6.824   0.659 127.245  0.00  0.00    +0.000 C 
BRANCH  22  23
ATOM     23  C   UNL     1      -7.995   0.564 126.257  0.00  0.00    +0.000 C 
BRANCH  23  26
ATOM     24  C   UNL     1      -8.211   2.377 124.635  0.00  0.00    +0.000 C 
ATOM     25  O   UNL     1      -8.819   3.075 125.443  0.00  0.00    +0.000 OA
ATOM     26  N   UNL     1      -7.755   1.104 124.940  0.00  0.00    +0.000 N 
ATOM     27  H   UNL     1      -7.264   0.577 124.224  0.00  0.00    +0.000 HD
BRANCH  24  32
ATOM     28  C   UNL     1      -6.960   4.300 119.432  0.00  0.00    +0.000 C 
ATOM     29  C   UNL     1      -7.295   3.803 120.805  0.00  0.00    +0.000 A 
ATOM     30  N   UNL     1      -6.273   3.615 121.672  0.00  0.00    +0.000 NA
ATOM     31  C   UNL     1      -6.618   3.152 122.902  0.00  0.00    +0.000 A 
ATOM     32  C   UNL     1      -7.932   2.886 123.262  0.00  0.00    +0.000 A 
ATOM     33  N   UNL     1      -8.974   3.071 122.405  0.00  0.00    +0.000 NA
ATOM     34  C   UNL     1      -8.614   3.534 121.176  0.00  0.00    +0.000 A 
ENDBRANCH  24  32
ENDBRANCH  23  26
ENDBRANCH  22  23
ENDBRANCH   1  22
TORSDOF 7
ENDMDL
MODEL 7
REMARK VINA RESULT:      -7.8      4.996      7.478
REMARK  Name = Glipizide
REMARK  8 active torsions:
REMARK  status: ('A' for Active; 'I' for Inactive)
REMARK    1  A    between atoms: C_1  and  C_2
REMARK    2  A    between atoms: C_5  and  C_8
REMARK    3  A    between atoms: N_10  and  C_11
REMARK    4  A    between atoms: C_11  and  C_12
REMARK    5  A    between atoms: C_12  and  C_13
REMARK    6  A    between atoms: C_16  and  S_19
REMARK    7  A    between atoms: S_19  and  N_22
REMARK    8  A    between atoms: N_25  and  C_26
REMARK                            x       y       z     vdW  Elec       q    Type
REMARK                         _______ _______ _______ _____ _____    ______ ____
ROOT
ATOM      1  C   UNL     1      -6.911   3.901 134.823  0.00  0.00    +0.000 A 
ATOM      2  C   UNL     1      -6.412   2.915 133.962  0.00  0.00    +0.000 A 
ATOM      3  C   UNL     1      -7.190   2.457 132.884  0.00  0.00    +0.000 A 
ATOM      4  C   UNL     1      -8.513   2.912 132.714  0.00  0.00    +0.000 A 
ATOM      5  C   UNL     1      -9.020   3.869 133.574  0.00  0.00    +0.000 A 
ATOM      6  C   UNL     1      -8.227   4.348 134.613  0.00  0.00    +0.000 A 
ENDROOT
BRANCH   4   7
ATOM      7  S   UNL     1      -9.532   2.151 131.458  0.00  0.00    +0.000 S 
ATOM      8  O   UNL     1      -8.722   2.173 130.258  0.00  0.00    +0.000 OA
ATOM      9  O   UNL     1      -9.990   0.921 132.067  0.00  0.00    +0.000 OA
BRANCH   7  10
ATOM     10  N   UNL     1     -10.893   3.145 131.198  0.00  0.00    +0.000 N 
ATOM     11  C   UNL     1     -10.691   4.423 130.668  0.00  0.00    +0.000 C 
ATOM     12  O   UNL     1      -9.563   4.754 130.325  0.00  0.00    +0.000 OA
ATOM     13  N   UNL     1     -11.786   5.275 130.574  0.00  0.00    +0.000 N 
ATOM     14  H   UNL     1     -11.812   2.813 131.428  0.00  0.00    +0.000 HD
ATOM     15  H   UNL     1     -12.715   4.903 130.711  0.00  0.00    +0.000 HD
BRANCH  13  16
ATOM     16  C   UNL     1     -11.670   6.663 130.033  0.00  0.00    +0.000 C 
ATOM     17  C   UNL     1     -11.766   6.721 128.483  0.00  0.00    +0.000 C 
ATOM     18  C   UNL     1     -11.815   8.162 127.935  0.00  0.00    +0.000 C 
ATOM     19  C   UNL     1     -12.925   8.986 128.578  0.00  0.00    +0.000 C 
ATOM     20  C   UNL     1     -12.766   8.988 130.080  0.00  0.00    +0.000 C 
ATOM     21  C   UNL     1     -12.754   7.577 130.627  0.00  0.00    +0.000 C 
ENDBRANCH  13  16
ENDBRANCH   7  10
ENDBRANCH   4   7
BRANCH   1  22
ATOM     22  C   UNL     1      -6.030   4.511 135.905  0.00  0.00    +0.000 C 
BRANCH  22  23
ATOM     23  C   UNL     1      -5.509   5.911 135.546  0.00  0.00    +0.000 C 
BRANCH  23  26
ATOM     24  C   UNL     1      -3.786   5.901 133.815  0.00  0.00    +0.000 C 
ATOM     25  O   UNL     1      -2.925   5.565 134.624  0.00  0.00    +0.000 OA
ATOM     26  N   UNL     1      -5.111   6.102 134.172  0.00  0.00    +0.000 N 
ATOM     27  H   UNL     1      -5.771   6.386 133.455  0.00  0.00    +0.000 HD
BRANCH  24  32
ATOM     28  C   UNL     1      -2.247   6.685 128.397  0.00  0.00    +0.000 C 
ATOM     29  C   UNL     1      -2.658   6.489 129.824  0.00  0.00    +0.000 A 
ATOM     30  N   UNL     1      -1.688   6.516 130.767  0.00  0.00    +0.000 NA
ATOM     31  C   UNL     1      -2.101   6.321 132.047  0.00  0.00    +0.000 A 
ATOM     32  C   UNL     1      -3.431   6.109 132.382  0.00  0.00    +0.000 A 
ATOM     33  N   UNL     1      -4.422   6.080 131.448  0.00  0.00    +0.000 NA
ATOM     34  C   UNL     1      -3.994   6.275 130.170  0.00  0.00    +0.000 A 
ENDBRANCH  24  32
ENDBRANCH  23  26
ENDBRANCH  22  23
ENDBRANCH   1  22
TORSDOF 7
ENDMDL
MODEL 8
REMARK VINA RESULT:      -7.5      2.693      3.717
REMARK  Name = Glipizide
REMARK  8 active torsions:
REMARK  status: ('A' for Active; 'I' for Inactive)
REMARK    1  A    between atoms: C_1  and  C_2
REMARK    2  A    between atoms: C_5  and  C_8
REMARK    3  A    between atoms: N_10  and  C_11
REMARK    4  A    between atoms: C_11  and  C_12
REMARK    5  A    between atoms: C_12  and  C_13
REMARK    6  A    between atoms: C_16  and  S_19
REMARK    7  A    between atoms: S_19  and  N_22
REMARK    8  A    between atoms: N_25  and  C_26
REMARK                            x       y       z     vdW  Elec       q    Type
REMARK                         _______ _______ _______ _____ _____    ______ ____
ROOT
ATOM      1  C   UNL     1      -8.246   3.179 133.667  0.00  0.00    +0.000 A 
ATOM      2  C   UNL     1      -9.137   2.563 132.778  0.00  0.00    +0.000 A 
ATOM      3  C   UNL     1      -8.836   1.300 132.236  0.00  0.00    +0.000 A 
ATOM      4  C   UNL     1      -7.596   0.685 132.503  0.00  0.00    +0.000 A 
ATOM      5  C   UNL     1      -6.703   1.299 133.362  0.00  0.00    +0.000 A 
ATOM      6  C   UNL     1      -7.028   2.528 133.928  0.00  0.00    +0.000 A 
ENDROOT
BRANCH   4   7
ATOM      7  S   UNL     1      -7.173  -0.816 131.631  0.00  0.00    +0.000 S 
ATOM      8  O   UNL     1      -5.731  -0.783 131.509  0.00  0.00    +0.000 OA
ATOM      9  O   UNL     1      -7.871  -1.857 132.354  0.00  0.00    +0.000 OA
BRANCH   7  10
ATOM     10  N   UNL     1      -7.839  -0.731 130.063  0.00  0.00    +0.000 N 
ATOM     11  C   UNL     1      -7.473  -1.707 129.132  0.00  0.00    +0.000 C 
ATOM     12  O   UNL     1      -6.764  -2.637 129.493  0.00  0.00    +0.000 OA
ATOM     13  N   UNL     1      -7.919  -1.565 127.823  0.00  0.00    +0.000 N 
ATOM     14  H   UNL     1      -8.473   0.010 129.823  0.00  0.00    +0.000 HD
ATOM     15  H   UNL     1      -8.632  -0.881 127.615  0.00  0.00    +0.000 HD
BRANCH  13  16
ATOM     16  C   UNL     1      -7.572  -2.549 126.753  0.00  0.00    +0.000 C 
ATOM     17  C   UNL     1      -8.784  -2.927 125.859  0.00  0.00    +0.000 C 
ATOM     18  C   UNL     1      -8.395  -3.809 124.655  0.00  0.00    +0.000 C 
ATOM     19  C   UNL     1      -7.280  -3.187 123.821  0.00  0.00    +0.000 C 
ATOM     20  C   UNL     1      -6.078  -2.905 124.691  0.00  0.00    +0.000 C 
ATOM     21  C   UNL     1      -6.447  -2.010 125.853  0.00  0.00    +0.000 C 
ENDBRANCH  13  16
ENDBRANCH   7  10
ENDBRANCH   4   7
BRANCH   1  22
ATOM     22  C   UNL     1      -8.620   4.475 134.374  0.00  0.00    +0.000 C 
BRANCH  22  23
ATOM     23  C   UNL     1      -8.376   5.726 133.518  0.00  0.00    +0.000 C 
BRANCH  23  26
ATOM     24  C   UNL     1      -7.137   6.374 131.516  0.00  0.00    +0.000 C 
ATOM     25  O   UNL     1      -8.121   6.941 131.046  0.00  0.00    +0.000 OA
ATOM     26  N   UNL     1      -7.157   5.734 132.745  0.00  0.00    +0.000 N 
ATOM     27  H   UNL     1      -6.310   5.279 133.072  0.00  0.00    +0.000 HD
BRANCH  24  32
ATOM     28  C   UNL     1      -2.152   6.410 128.779  0.00  0.00    +0.000 C 
ATOM     29  C   UNL     1      -3.470   6.405 129.490  0.00  0.00    +0.000 A 
ATOM     30  N   UNL     1      -3.605   7.211 130.569  0.00  0.00    +0.000 NA
ATOM     31  C   UNL     1      -4.811   7.169 131.193  0.00  0.00    +0.000 A 
ATOM     32  C   UNL     1      -5.851   6.355 130.762  0.00  0.00    +0.000 A 
ATOM     33  N   UNL     1      -5.735   5.538 129.679  0.00  0.00    +0.000 NA
ATOM     34  C   UNL     1      -4.522   5.591 129.063  0.00  0.00    +0.000 A 
ENDBRANCH  24  32
ENDBRANCH  23  26
ENDBRANCH  22  23
ENDBRANCH   1  22
TORSDOF 7
ENDMDL
MODEL 9
REMARK VINA RESULT:      -7.5      4.256      5.209
REMARK  Name = Glipizide
REMARK  8 active torsions:
REMARK  status: ('A' for Active; 'I' for Inactive)
REMARK    1  A    between atoms: C_1  and  C_2
REMARK    2  A    between atoms: C_5  and  C_8
REMARK    3  A    between atoms: N_10  and  C_11
REMARK    4  A    between atoms: C_11  and  C_12
REMARK    5  A    between atoms: C_12  and  C_13
REMARK    6  A    between atoms: C_16  and  S_19
REMARK    7  A    between atoms: S_19  and  N_22
REMARK    8  A    between atoms: N_25  and  C_26
REMARK                            x       y       z     vdW  Elec       q    Type
REMARK                         _______ _______ _______ _____ _____    ______ ____
ROOT
ATOM      1  C   UNL     1      -2.401   5.705 130.063  0.00  0.00    +0.000 A 
ATOM      2  C   UNL     1      -2.557   6.402 128.858  0.00  0.00    +0.000 A 
ATOM      3  C   UNL     1      -3.376   5.881 127.839  0.00  0.00    +0.000 A 
ATOM      4  C   UNL     1      -3.969   4.610 127.980  0.00  0.00    +0.000 A 
ATOM      5  C   UNL     1      -3.800   3.907 129.158  0.00  0.00    +0.000 A 
ATOM      6  C   UNL     1      -3.023   4.450 130.177  0.00  0.00    +0.000 A 
ENDROOT
BRANCH   4   7
ATOM      7  S   UNL     1      -4.828   3.901 126.583  0.00  0.00    +0.000 S 
ATOM      8  O   UNL     1      -6.095   4.600 126.529  0.00  0.00    +0.000 OA
ATOM      9  O   UNL     1      -3.862   3.954 125.506  0.00  0.00    +0.000 OA
BRANCH   7  10
ATOM     10  N   UNL     1      -5.142   2.260 126.924  0.00  0.00    +0.000 N 
ATOM     11  C   UNL     1      -5.868   1.514 125.990  0.00  0.00    +0.000 C 
ATOM     12  O   UNL     1      -6.174   2.032 124.924  0.00  0.00    +0.000 OA
ATOM     13  N   UNL     1      -6.229   0.214 126.326  0.00  0.00    +0.000 N 
ATOM     14  H   UNL     1      -4.815   1.850 127.781  0.00  0.00    +0.000 HD
ATOM     15  H   UNL     1      -5.813  -0.220 127.137  0.00  0.00    +0.000 HD
BRANCH  13  16
ATOM     16  C   UNL     1      -7.013  -0.658 125.401  0.00  0.00    +0.000 C 
ATOM     17  C   UNL     1      -6.123  -1.637 124.587  0.00  0.00    +0.000 C 
ATOM     18  C   UNL     1      -6.940  -2.650 123.759  0.00  0.00    +0.000 C 
ATOM     19  C   UNL     1      -7.946  -3.415 124.611  0.00  0.00    +0.000 C 
ATOM     20  C   UNL     1      -8.858  -2.448 125.329  0.00  0.00    +0.000 C 
ATOM     21  C   UNL     1      -8.063  -1.475 126.172  0.00  0.00    +0.000 C 
ENDBRANCH  13  16
ENDBRANCH   7  10
ENDBRANCH   4   7
BRANCH   1  22
ATOM     22  C   UNL     1      -1.637   6.321 131.227  0.00  0.00    +0.000 C 
BRANCH  22  23
ATOM     23  C   UNL     1      -2.502   7.244 132.099  0.00  0.00    +0.000 C 
BRANCH  23  26
ATOM     24  C   UNL     1      -4.725   6.334 132.542  0.00  0.00    +0.000 C 
ATOM     25  O   UNL     1      -4.280   5.566 133.392  0.00  0.00    +0.000 OA
ATOM     26  N   UNL     1      -3.921   7.215 131.835  0.00  0.00    +0.000 N 
ATOM     27  H   UNL     1      -4.351   7.818 131.141  0.00  0.00    +0.000 HD
BRANCH  24  32
ATOM     28  C   UNL     1     -10.247   6.469 131.190  0.00  0.00    +0.000 C 
ATOM     29  C   UNL     1      -8.794   6.440 131.556  0.00  0.00    +0.000 A 
ATOM     30  N   UNL     1      -7.925   7.063 130.726  0.00  0.00    +0.000 NA
ATOM     31  C   UNL     1      -6.616   7.003 131.086  0.00  0.00    +0.000 A 
ATOM     32  C   UNL     1      -6.183   6.349 132.232  0.00  0.00    +0.000 A 
ATOM     33  N   UNL     1      -7.042   5.718 133.080  0.00  0.00    +0.000 NA
ATOM     34  C   UNL     1      -8.350   5.785 132.707  0.00  0.00    +0.000 A 
ENDBRANCH  24  32
ENDBRANCH  23  26
ENDBRANCH  22  23
ENDBRANCH   1  22
TORSDOF 7
ENDMDL
