MODEL 1
REMARK VINA RESULT:      -8.9      0.000      0.000
REMARK  Name = Gliquidone
REMARK  10 active torsions:
REMARK  status: ('A' for Active; 'I' for Inactive)
REMARK    1  A    between atoms: C_1  and  O_2
REMARK    2  A    between atoms: O_2  and  C_3
REMARK    3  A    between atoms: C_9  and  C_10
REMARK    4  A    between atoms: C_9  and  C_11
REMARK    5  A    between atoms: N_14  and  C_15
REMARK    6  A    between atoms: C_15  and  C_16
REMARK    7  A    between atoms: C_16  and  C_17
REMARK    8  A    between atoms: C_20  and  S_23
REMARK    9  A    between atoms: S_23  and  N_26
REMARK   10  A    between atoms: N_29  and  C_30
REMARK                            x       y       z     vdW  Elec       q    Type
REMARK                         _______ _______ _______ _____ _____    ______ ____
ROOT
ATOM      1  C   UNL     1      -6.571  -1.086 128.924  0.00  0.00    +0.000 A 
ATOM      2  C   UNL     1      -7.817  -0.452 128.905  0.00  0.00    +0.000 A 
ATOM      3  C   UNL     1      -7.916   0.900 129.223  0.00  0.00    +0.000 A 
ATOM      4  C   UNL     1      -6.809   1.577 129.751  0.00  0.00    +0.000 A 
ATOM      5  C   UNL     1      -5.634   0.881 130.012  0.00  0.00    +0.000 A 
ATOM      6  C   UNL     1      -5.499  -0.430 129.548  0.00  0.00    +0.000 A 
ENDROOT
BRANCH   4   7
ATOM      7  S   UNL     1      -6.976   3.329 130.006  0.00  0.00    +0.000 S 
ATOM      8  O   UNL     1      -6.527   3.546 131.366  0.00  0.00    +0.000 OA
ATOM      9  O   UNL     1      -6.319   3.932 128.866  0.00  0.00    +0.000 OA
BRANCH   7  10
ATOM     10  N   UNL     1      -8.628   3.711 129.934  0.00  0.00    +0.000 N 
ATOM     11  C   UNL     1      -8.972   5.059 129.857  0.00  0.00    +0.000 C 
ATOM     12  O   UNL     1      -8.076   5.891 129.800  0.00  0.00    +0.000 OA
ATOM     13  N   UNL     1     -10.313   5.390 129.860  0.00  0.00    +0.000 N 
ATOM     14  H   UNL     1      -9.318   2.985 129.990  0.00  0.00    +0.000 HD
ATOM     15  H   UNL     1     -11.009   4.659 129.856  0.00  0.00    +0.000 HD
BRANCH  13  16
ATOM     16  C   UNL     1     -10.806   6.796 129.818  0.00  0.00    +0.000 C 
ATOM     17  C   UNL     1     -10.873   7.342 128.382  0.00  0.00    +0.000 C 
ATOM     18  C   UNL     1     -11.465   8.725 128.229  0.00  0.00    +0.000 C 
ATOM     19  C   UNL     1     -12.835   8.787 128.892  0.00  0.00    +0.000 C 
ATOM     20  C   UNL     1     -12.731   8.395 130.361  0.00  0.00    +0.000 C 
ATOM     21  C   UNL     1     -12.156   6.980 130.538  0.00  0.00    +0.000 C 
ENDBRANCH  13  16
ENDBRANCH   7  10
ENDBRANCH   4   7
BRANCH   1  22
ATOM     22  C   UNL     1      -6.346  -2.426 128.258  0.00  0.00    +0.000 C 
BRANCH  22  23
ATOM     23  C   UNL     1      -5.494  -2.353 126.971  0.00  0.00    +0.000 C 
BRANCH  23  35
ATOM     24  C   UNL     1      -8.602   2.369 125.005  0.00  0.00    +0.000 A 
ATOM     25  C   UNL     1      -7.388   1.766 125.347  0.00  0.00    +0.000 A 
ATOM     26  C   UNL     1      -7.257   0.375 125.265  0.00  0.00    +0.000 A 
ATOM     27  C   UNL     1      -8.349  -0.417 124.860  0.00  0.00    +0.000 A 
ATOM     28  C   UNL     1      -9.570   0.206 124.572  0.00  0.00    +0.000 A 
ATOM     29  C   UNL     1      -9.695   1.586 124.642  0.00  0.00    +0.000 A 
ATOM     30  C   UNL     1      -8.215  -1.929 124.766  0.00  0.00    +0.000 C 
ATOM     31  C   UNL     1      -8.844  -2.457 123.471  0.00  0.00    +0.000 C 
ATOM     32  C   UNL     1      -8.916  -2.574 125.979  0.00  0.00    +0.000 C 
ATOM     33  C   UNL     1      -6.737  -2.326 124.828  0.00  0.00    +0.000 C 
ATOM     34  O   UNL     1      -6.209  -3.171 124.115  0.00  0.00    +0.000 OA
ATOM     35  N   UNL     1      -6.097  -1.658 125.844  0.00  0.00    +0.000 N 
ATOM     36  C   UNL     1      -5.992  -0.288 125.716  0.00  0.00    +0.000 C 
ATOM     37  O   UNL     1      -4.985   0.363 125.959  0.00  0.00    +0.000 OA
BRANCH  24  39
ATOM     38  C   UNL     1      -7.832   4.433 125.790  0.00  0.00    +0.000 C 
ATOM     39  O   UNL     1      -8.839   3.712 125.085  0.00  0.00    +0.000 OA
ENDBRANCH  24  39
ENDBRANCH  23  35
ENDBRANCH  22  23
ENDBRANCH   1  22
TORSDOF 7
ENDMDL
MODEL 2
REMARK VINA RESULT:      -8.8      3.411      5.101
REMARK  Name = Gliquidone
REMARK  10 active torsions:
REMARK  status: ('A' for Active; 'I' for Inactive)
REMARK    1  A    between atoms: C_1  and  O_2
REMARK    2  A    between atoms: O_2  and  C_3
REMARK    3  A    between atoms: C_9  and  C_10
REMARK    4  A    between atoms: C_9  and  C_11
REMARK    5  A    between atoms: N_14  and  C_15
REMARK    6  A    between atoms: C_15  and  C_16
REMARK    7  A    between atoms: C_16  and  C_17
REMARK    8  A    between atoms: C_20  and  S_23
REMARK    9  A    between atoms: S_23  and  N_26
REMARK   10  A    between atoms: N_29  and  C_30
REMARK                            x       y       z     vdW  Elec       q    Type
REMARK                         _______ _______ _______ _____ _____    ______ ____
ROOT
ATOM      1  C   UNL     1      -6.313   2.820 124.406  0.00  0.00    +0.000 A 
ATOM      2  C   UNL     1      -6.450   4.198 124.598  0.00  0.00    +0.000 A 
ATOM      3  C   UNL     1      -5.705   4.841 125.583  0.00  0.00    +0.000 A 
ATOM      4  C   UNL     1      -4.972   4.088 126.509  0.00  0.00    +0.000 A 
ATOM      5  C   UNL     1      -5.039   2.699 126.478  0.00  0.00    +0.000 A 
ATOM      6  C   UNL     1      -5.662   2.070 125.397  0.00  0.00    +0.000 A 
ENDROOT
BRANCH   4   7
ATOM      7  S   UNL     1      -3.943   4.984 127.650  0.00  0.00    +0.000 S 
ATOM      8  O   UNL     1      -2.588   4.648 127.263  0.00  0.00    +0.000 OA
ATOM      9  O   UNL     1      -4.448   6.340 127.616  0.00  0.00    +0.000 OA
BRANCH   7  10
ATOM     10  N   UNL     1      -4.214   4.352 129.202  0.00  0.00    +0.000 N 
ATOM     11  C   UNL     1      -5.481   4.528 129.755  0.00  0.00    +0.000 C 
ATOM     12  O   UNL     1      -6.341   5.084 129.084  0.00  0.00    +0.000 OA
ATOM     13  N   UNL     1      -5.699   4.073 131.041  0.00  0.00    +0.000 N 
ATOM     14  H   UNL     1      -3.468   3.908 129.706  0.00  0.00    +0.000 HD
ATOM     15  H   UNL     1      -4.968   3.575 131.526  0.00  0.00    +0.000 HD
BRANCH  13  16
ATOM     16  C   UNL     1      -6.999   4.235 131.753  0.00  0.00    +0.000 C 
ATOM     17  C   UNL     1      -7.344   3.007 132.612  0.00  0.00    +0.000 C 
ATOM     18  C   UNL     1      -8.592   3.124 133.458  0.00  0.00    +0.000 C 
ATOM     19  C   UNL     1      -8.529   4.380 134.317  0.00  0.00    +0.000 C 
ATOM     20  C   UNL     1      -8.345   5.613 133.440  0.00  0.00    +0.000 C 
ATOM     21  C   UNL     1      -7.066   5.527 132.591  0.00  0.00    +0.000 C 
ENDBRANCH  13  16
ENDBRANCH   7  10
ENDBRANCH   4   7
BRANCH   1  22
ATOM     22  C   UNL     1      -6.810   2.136 123.151  0.00  0.00    +0.000 C 
BRANCH  22  23
ATOM     23  C   UNL     1      -8.339   1.907 123.124  0.00  0.00    +0.000 C 
BRANCH  23  35
ATOM     24  C   UNL     1      -7.756  -1.548 127.975  0.00  0.00    +0.000 A 
ATOM     25  C   UNL     1      -8.255  -0.403 127.349  0.00  0.00    +0.000 A 
ATOM     26  C   UNL     1      -8.475  -0.408 125.966  0.00  0.00    +0.000 A 
ATOM     27  C   UNL     1      -8.176  -1.555 125.206  0.00  0.00    +0.000 A 
ATOM     28  C   UNL     1      -7.629  -2.674 125.850  0.00  0.00    +0.000 A 
ATOM     29  C   UNL     1      -7.424  -2.671 127.222  0.00  0.00    +0.000 A 
ATOM     30  C   UNL     1      -8.413  -1.572 123.704  0.00  0.00    +0.000 C 
ATOM     31  C   UNL     1      -9.088  -2.879 123.268  0.00  0.00    +0.000 C 
ATOM     32  C   UNL     1      -7.060  -1.423 122.978  0.00  0.00    +0.000 C 
ATOM     33  C   UNL     1      -9.283  -0.377 123.301  0.00  0.00    +0.000 C 
ATOM     34  O   UNL     1     -10.214  -0.425 122.507  0.00  0.00    +0.000 OA
ATOM     35  N   UNL     1      -8.829   0.776 123.896  0.00  0.00    +0.000 N 
ATOM     36  C   UNL     1      -8.920   0.841 125.271  0.00  0.00    +0.000 C 
ATOM     37  O   UNL     1      -9.303   1.817 125.902  0.00  0.00    +0.000 OA
BRANCH  24  39
ATOM     38  C   UNL     1      -7.742  -2.910 129.876  0.00  0.00    +0.000 C 
ATOM     39  O   UNL     1      -7.477  -1.630 129.310  0.00  0.00    +0.000 OA
ENDBRANCH  24  39
ENDBRANCH  23  35
ENDBRANCH  22  23
ENDBRANCH   1  22
TORSDOF 7
ENDMDL
MODEL 3
REMARK VINA RESULT:      -8.7      2.885      4.723
REMARK  Name = Gliquidone
REMARK  10 active torsions:
REMARK  status: ('A' for Active; 'I' for Inactive)
REMARK    1  A    between atoms: C_1  and  O_2
REMARK    2  A    between atoms: O_2  and  C_3
REMARK    3  A    between atoms: C_9  and  C_10
REMARK    4  A    between atoms: C_9  and  C_11
REMARK    5  A    between atoms: N_14  and  C_15
REMARK    6  A    between atoms: C_15  and  C_16
REMARK    7  A    between atoms: C_16  and  C_17
REMARK    8  A    between atoms: C_20  and  S_23
REMARK    9  A    between atoms: S_23  and  N_26
REMARK   10  A    between atoms: N_29  and  C_30
REMARK                            x       y       z     vdW  Elec       q    Type
REMARK                         _______ _______ _______ _____ _____    ______ ____
ROOT
ATOM      1  C   UNL     1      -6.724   0.495 132.959  0.00  0.00    +0.000 A 
ATOM      2  C   UNL     1      -7.856   0.122 132.229  0.00  0.00    +0.000 A 
ATOM      3  C   UNL     1      -8.495   1.051 131.412  0.00  0.00    +0.000 A 
ATOM      4  C   UNL     1      -8.130   2.402 131.470  0.00  0.00    +0.000 A 
ATOM      5  C   UNL     1      -7.173   2.820 132.389  0.00  0.00    +0.000 A 
ATOM      6  C   UNL     1      -6.435   1.862 133.089  0.00  0.00    +0.000 A 
ENDROOT
BRANCH   4   7
ATOM      7  S   UNL     1      -8.899   3.501 130.303  0.00  0.00    +0.000 S 
ATOM      8  O   UNL     1      -7.911   4.535 130.067  0.00  0.00    +0.000 OA
ATOM      9  O   UNL     1      -9.387   2.638 129.249  0.00  0.00    +0.000 OA
BRANCH   7  10
ATOM     10  N   UNL     1     -10.234   4.220 131.065  0.00  0.00    +0.000 N 
ATOM     11  C   UNL     1     -10.960   5.161 130.337  0.00  0.00    +0.000 C 
ATOM     12  O   UNL     1     -10.630   5.388 129.180  0.00  0.00    +0.000 OA
ATOM     13  N   UNL     1     -12.012   5.800 130.964  0.00  0.00    +0.000 N 
ATOM     14  H   UNL     1     -10.454   3.997 132.019  0.00  0.00    +0.000 HD
ATOM     15  H   UNL     1     -12.271   5.534 131.902  0.00  0.00    +0.000 HD
BRANCH  13  16
ATOM     16  C   UNL     1     -12.839   6.850 130.302  0.00  0.00    +0.000 C 
ATOM     17  C   UNL     1     -12.264   8.259 130.521  0.00  0.00    +0.000 C 
ATOM     18  C   UNL     1     -12.975   9.381 129.795  0.00  0.00    +0.000 C 
ATOM     19  C   UNL     1     -13.074   9.065 128.309  0.00  0.00    +0.000 C 
ATOM     20  C   UNL     1     -13.788   7.735 128.096  0.00  0.00    +0.000 C 
ATOM     21  C   UNL     1     -13.066   6.576 128.803  0.00  0.00    +0.000 C 
ENDBRANCH  13  16
ENDBRANCH   7  10
ENDBRANCH   4   7
BRANCH   1  22
ATOM     22  C   UNL     1      -5.794  -0.530 133.570  0.00  0.00    +0.000 C 
BRANCH  22  23
ATOM     23  C   UNL     1      -4.526  -0.807 132.730  0.00  0.00    +0.000 C 
BRANCH  23  35
ATOM     24  C   UNL     1      -7.747  -1.842 127.793  0.00  0.00    +0.000 A 
ATOM     25  C   UNL     1      -6.721  -1.166 128.458  0.00  0.00    +0.000 A 
ATOM     26  C   UNL     1      -6.088  -1.768 129.552  0.00  0.00    +0.000 A 
ATOM     27  C   UNL     1      -6.497  -3.041 129.995  0.00  0.00    +0.000 A 
ATOM     28  C   UNL     1      -7.562  -3.677 129.343  0.00  0.00    +0.000 A 
ATOM     29  C   UNL     1      -8.180  -3.084 128.251  0.00  0.00    +0.000 A 
ATOM     30  C   UNL     1      -5.814  -3.704 131.181  0.00  0.00    +0.000 C 
ATOM     31  C   UNL     1      -5.517  -5.180 130.890  0.00  0.00    +0.000 C 
ATOM     32  C   UNL     1      -6.732  -3.596 132.416  0.00  0.00    +0.000 C 
ATOM     33  C   UNL     1      -4.514  -2.965 131.513  0.00  0.00    +0.000 C 
ATOM     34  O   UNL     1      -3.452  -3.509 131.790  0.00  0.00    +0.000 OA
ATOM     35  N   UNL     1      -4.718  -1.606 131.529  0.00  0.00    +0.000 N 
ATOM     36  C   UNL     1      -5.052  -1.015 130.329  0.00  0.00    +0.000 C 
ATOM     37  O   UNL     1      -4.585   0.036 129.912  0.00  0.00    +0.000 OA
BRANCH  24  39
ATOM     38  C   UNL     1      -8.522  -2.198 125.615  0.00  0.00    +0.000 C 
ATOM     39  O   UNL     1      -8.447  -1.326 126.739  0.00  0.00    +0.000 OA
ENDBRANCH  24  39
ENDBRANCH  23  35
ENDBRANCH  22  23
ENDBRANCH   1  22
TORSDOF 7
ENDMDL
MODEL 4
REMARK VINA RESULT:      -8.7      4.108      6.163
REMARK  Name = Gliquidone
REMARK  10 active torsions:
REMARK  status: ('A' for Active; 'I' for Inactive)
REMARK    1  A    between atoms: C_1  and  O_2
REMARK    2  A    between atoms: O_2  and  C_3
REMARK    3  A    between atoms: C_9  and  C_10
REMARK    4  A    between atoms: C_9  and  C_11
REMARK    5  A    between atoms: N_14  and  C_15
REMARK    6  A    between atoms: C_15  and  C_16
REMARK    7  A    between atoms: C_16  and  C_17
REMARK    8  A    between atoms: C_20  and  S_23
REMARK    9  A    between atoms: S_23  and  N_26
REMARK   10  A    between atoms: N_29  and  C_30
REMARK                            x       y       z     vdW  Elec       q    Type
REMARK                         _______ _______ _______ _____ _____    ______ ____
ROOT
ATOM      1  C   UNL     1      -6.344   2.696 124.414  0.00  0.00    +0.000 A 
ATOM      2  C   UNL     1      -5.644   1.914 125.338  0.00  0.00    +0.000 A 
ATOM      3  C   UNL     1      -5.466   2.368 126.642  0.00  0.00    +0.000 A 
ATOM      4  C   UNL     1      -5.810   3.684 126.977  0.00  0.00    +0.000 A 
ATOM      5  C   UNL     1      -6.271   4.550 125.992  0.00  0.00    +0.000 A 
ATOM      6  C   UNL     1      -6.589   4.041 124.730  0.00  0.00    +0.000 A 
ENDROOT
BRANCH   4   7
ATOM      7  S   UNL     1      -5.677   4.146 128.690  0.00  0.00    +0.000 S 
ATOM      8  O   UNL     1      -6.707   5.147 128.880  0.00  0.00    +0.000 OA
ATOM      9  O   UNL     1      -5.671   2.891 129.411  0.00  0.00    +0.000 OA
BRANCH   7  10
ATOM     10  N   UNL     1      -4.172   4.897 128.911  0.00  0.00    +0.000 N 
ATOM     11  C   UNL     1      -3.870   5.365 130.189  0.00  0.00    +0.000 C 
ATOM     12  O   UNL     1      -4.677   5.175 131.089  0.00  0.00    +0.000 OA
ATOM     13  N   UNL     1      -2.675   6.033 130.372  0.00  0.00    +0.000 N 
ATOM     14  H   UNL     1      -3.552   5.029 128.133  0.00  0.00    +0.000 HD
ATOM     15  H   UNL     1      -2.024   6.115 129.605  0.00  0.00    +0.000 HD
BRANCH  13  16
ATOM     16  C   UNL     1      -2.257   6.612 131.681  0.00  0.00    +0.000 C 
ATOM     17  C   UNL     1      -0.727   6.643 131.836  0.00  0.00    +0.000 C 
ATOM     18  C   UNL     1      -0.205   7.314 133.087  0.00  0.00    +0.000 C 
ATOM     19  C   UNL     1      -0.787   8.716 133.214  0.00  0.00    +0.000 C 
ATOM     20  C   UNL     1      -2.310   8.659 133.218  0.00  0.00    +0.000 C 
ATOM     21  C   UNL     1      -2.863   8.004 131.941  0.00  0.00    +0.000 C 
ENDBRANCH  13  16
ENDBRANCH   7  10
ENDBRANCH   4   7
BRANCH   1  22
ATOM     22  C   UNL     1      -6.871   2.121 123.118  0.00  0.00    +0.000 C 
BRANCH  22  23
ATOM     23  C   UNL     1      -8.401   1.895 123.107  0.00  0.00    +0.000 C 
BRANCH  23  35
ATOM     24  C   UNL     1      -7.781  -1.603 127.923  0.00  0.00    +0.000 A 
ATOM     25  C   UNL     1      -8.285  -0.453 127.311  0.00  0.00    +0.000 A 
ATOM     26  C   UNL     1      -8.514  -0.446 125.929  0.00  0.00    +0.000 A 
ATOM     27  C   UNL     1      -8.218  -1.586 125.157  0.00  0.00    +0.000 A 
ATOM     28  C   UNL     1      -7.665  -2.709 125.787  0.00  0.00    +0.000 A 
ATOM     29  C   UNL     1      -7.451  -2.718 127.158  0.00  0.00    +0.000 A 
ATOM     30  C   UNL     1      -8.465  -1.590 123.656  0.00  0.00    +0.000 C 
ATOM     31  C   UNL     1      -9.140  -2.893 123.213  0.00  0.00    +0.000 C 
ATOM     32  C   UNL     1      -7.117  -1.431 122.923  0.00  0.00    +0.000 C 
ATOM     33  C   UNL     1      -9.339  -0.392 123.270  0.00  0.00    +0.000 C 
ATOM     34  O   UNL     1     -10.276  -0.435 122.481  0.00  0.00    +0.000 OA
ATOM     35  N   UNL     1      -8.884   0.756 123.872  0.00  0.00    +0.000 N 
ATOM     36  C   UNL     1      -8.966   0.808 125.248  0.00  0.00    +0.000 C 
ATOM     37  O   UNL     1      -9.347   1.778 125.891  0.00  0.00    +0.000 OA
BRANCH  24  39
ATOM     38  C   UNL     1      -7.586  -3.020 129.773  0.00  0.00    +0.000 C 
ATOM     39  O   UNL     1      -7.492  -1.696 129.256  0.00  0.00    +0.000 OA
ENDBRANCH  24  39
ENDBRANCH  23  35
ENDBRANCH  22  23
ENDBRANCH   1  22
TORSDOF 7
ENDMDL
MODEL 5
REMARK VINA RESULT:      -8.7      3.638      9.079
REMARK  Name = Gliquidone
REMARK  10 active torsions:
REMARK  status: ('A' for Active; 'I' for Inactive)
REMARK    1  A    between atoms: C_1  and  O_2
REMARK    2  A    between atoms: O_2  and  C_3
REMARK    3  A    between atoms: C_9  and  C_10
REMARK    4  A    between atoms: C_9  and  C_11
REMARK    5  A    between atoms: N_14  and  C_15
REMARK    6  A    between atoms: C_15  and  C_16
REMARK    7  A    between atoms: C_16  and  C_17
REMARK    8  A    between atoms: C_20  and  S_23
REMARK    9  A    between atoms: S_23  and  N_26
REMARK   10  A    between atoms: N_29  and  C_30
REMARK                            x       y       z     vdW  Elec       q    Type
REMARK                         _______ _______ _______ _____ _____    ______ ____
ROOT
ATOM      1  C   UNL     1      -8.256   2.627 131.799  0.00  0.00    +0.000 A 
ATOM      2  C   UNL     1      -6.951   2.582 131.301  0.00  0.00    +0.000 A 
ATOM      3  C   UNL     1      -6.691   2.984 129.993  0.00  0.00    +0.000 A 
ATOM      4  C   UNL     1      -7.752   3.243 129.116  0.00  0.00    +0.000 A 
ATOM      5  C   UNL     1      -9.061   3.039 129.537  0.00  0.00    +0.000 A 
ATOM      6  C   UNL     1      -9.312   2.786 130.889  0.00  0.00    +0.000 A 
ENDROOT
BRANCH   4   7
ATOM      7  S   UNL     1      -7.338   3.878 127.507  0.00  0.00    +0.000 S 
ATOM      8  O   UNL     1      -8.584   4.407 126.991  0.00  0.00    +0.000 OA
ATOM      9  O   UNL     1      -6.174   4.708 127.726  0.00  0.00    +0.000 OA
BRANCH   7  10
ATOM     10  N   UNL     1      -6.883   2.566 126.531  0.00  0.00    +0.000 N 
ATOM     11  C   UNL     1      -7.872   1.644 126.193  0.00  0.00    +0.000 C 
ATOM     12  O   UNL     1      -9.018   1.846 126.575  0.00  0.00    +0.000 OA
ATOM     13  N   UNL     1      -7.506   0.538 125.451  0.00  0.00    +0.000 N 
ATOM     14  H   UNL     1      -5.927   2.450 126.251  0.00  0.00    +0.000 HD
ATOM     15  H   UNL     1      -6.557   0.451 125.118  0.00  0.00    +0.000 HD
BRANCH  13  16
ATOM     16  C   UNL     1      -8.464  -0.534 125.059  0.00  0.00    +0.000 C 
ATOM     17  C   UNL     1      -8.132  -1.129 123.680  0.00  0.00    +0.000 C 
ATOM     18  C   UNL     1      -8.985  -2.301 123.245  0.00  0.00    +0.000 C 
ATOM     19  C   UNL     1      -8.974  -3.385 124.315  0.00  0.00    +0.000 C 
ATOM     20  C   UNL     1      -9.457  -2.820 125.646  0.00  0.00    +0.000 C 
ATOM     21  C   UNL     1      -8.587  -1.644 126.120  0.00  0.00    +0.000 C 
ENDBRANCH  13  16
ENDBRANCH   7  10
ENDBRANCH   4   7
BRANCH   1  22
ATOM     22  C   UNL     1      -8.548   2.549 133.282  0.00  0.00    +0.000 C 
BRANCH  22  23
ATOM     23  C   UNL     1      -9.112   3.859 133.880  0.00  0.00    +0.000 C 
BRANCH  23  35
ATOM     24  C   UNL     1      -5.163   7.115 130.778  0.00  0.00    +0.000 A 
ATOM     25  C   UNL     1      -6.481   6.808 131.128  0.00  0.00    +0.000 A 
ATOM     26  C   UNL     1      -6.750   6.229 132.374  0.00  0.00    +0.000 A 
ATOM     27  C   UNL     1      -5.697   5.936 133.262  0.00  0.00    +0.000 A 
ATOM     28  C   UNL     1      -4.380   6.207 132.867  0.00  0.00    +0.000 A 
ATOM     29  C   UNL     1      -4.116   6.793 131.638  0.00  0.00    +0.000 A 
ATOM     30  C   UNL     1      -5.981   5.309 134.618  0.00  0.00    +0.000 C 
ATOM     31  C   UNL     1      -5.175   6.001 135.724  0.00  0.00    +0.000 C 
ATOM     32  C   UNL     1      -5.609   3.812 134.568  0.00  0.00    +0.000 C 
ATOM     33  C   UNL     1      -7.478   5.397 134.930  0.00  0.00    +0.000 C 
ATOM     34  O   UNL     1      -7.949   5.706 136.018  0.00  0.00    +0.000 OA
ATOM     35  N   UNL     1      -8.224   5.011 133.843  0.00  0.00    +0.000 N 
ATOM     36  C   UNL     1      -8.145   5.811 132.722  0.00  0.00    +0.000 C 
ATOM     37  O   UNL     1      -9.101   6.151 132.036  0.00  0.00    +0.000 OA
BRANCH  24  39
ATOM     38  C   UNL     1      -3.879   8.734 129.684  0.00  0.00    +0.000 C 
ATOM     39  O   UNL     1      -4.795   7.649 129.576  0.00  0.00    +0.000 OA
ENDBRANCH  24  39
ENDBRANCH  23  35
ENDBRANCH  22  23
ENDBRANCH   1  22
TORSDOF 7
ENDMDL
MODEL 6
REMARK VINA RESULT:      -8.6      4.270      8.897
REMARK  Name = Gliquidone
REMARK  10 active torsions:
REMARK  status: ('A' for Active; 'I' for Inactive)
REMARK    1  A    between atoms: C_1  and  O_2
REMARK    2  A    between atoms: O_2  and  C_3
REMARK    3  A    between atoms: C_9  and  C_10
REMARK    4  A    between atoms: C_9  and  C_11
REMARK    5  A    between atoms: N_14  and  C_15
REMARK    6  A    between atoms: C_15  and  C_16
REMARK    7  A    between atoms: C_16  and  C_17
REMARK    8  A    between atoms: C_20  and  S_23
REMARK    9  A    between atoms: S_23  and  N_26
REMARK   10  A    between atoms: N_29  and  C_30
REMARK                            x       y       z     vdW  Elec       q    Type
REMARK                         _______ _______ _______ _____ _____    ______ ____
ROOT
ATOM      1  C   UNL     1      -8.300   2.745 131.659  0.00  0.00    +0.000 A 
ATOM      2  C   UNL     1      -7.005   2.838 131.139  0.00  0.00    +0.000 A 
ATOM      3  C   UNL     1      -6.809   3.285 129.835  0.00  0.00    +0.000 A 
ATOM      4  C   UNL     1      -7.906   3.452 128.980  0.00  0.00    +0.000 A 
ATOM      5  C   UNL     1      -9.181   3.112 129.418  0.00  0.00    +0.000 A 
ATOM      6  C   UNL     1      -9.382   2.814 130.769  0.00  0.00    +0.000 A 
ENDROOT
BRANCH   4   7
ATOM      7  S   UNL     1      -7.586   4.151 127.377  0.00  0.00    +0.000 S 
ATOM      8  O   UNL     1      -8.657   5.105 127.172  0.00  0.00    +0.000 OA
ATOM      9  O   UNL     1      -6.193   4.544 127.417  0.00  0.00    +0.000 OA
BRANCH   7  10
ATOM     10  N   UNL     1      -7.760   2.917 126.226  0.00  0.00    +0.000 N 
ATOM     11  C   UNL     1      -7.467   3.230 124.899  0.00  0.00    +0.000 C 
ATOM     12  O   UNL     1      -7.060   4.354 124.638  0.00  0.00    +0.000 OA
ATOM     13  N   UNL     1      -7.663   2.254 123.941  0.00  0.00    +0.000 N 
ATOM     14  H   UNL     1      -8.102   2.014 126.499  0.00  0.00    +0.000 HD
ATOM     15  H   UNL     1      -7.950   1.328 124.222  0.00  0.00    +0.000 HD
BRANCH  13  16
ATOM     16  C   UNL     1      -7.420   2.478 122.488  0.00  0.00    +0.000 C 
ATOM     17  C   UNL     1      -8.478   3.403 121.863  0.00  0.00    +0.000 C 
ATOM     18  C   UNL     1      -8.253   3.778 120.414  0.00  0.00    +0.000 C 
ATOM     19  C   UNL     1      -6.856   4.357 120.232  0.00  0.00    +0.000 C 
ATOM     20  C   UNL     1      -5.804   3.365 120.711  0.00  0.00    +0.000 C 
ATOM     21  C   UNL     1      -5.998   2.991 122.190  0.00  0.00    +0.000 C 
ENDBRANCH  13  16
ENDBRANCH   7  10
ENDBRANCH   4   7
BRANCH   1  22
ATOM     22  C   UNL     1      -8.556   2.614 133.144  0.00  0.00    +0.000 C 
BRANCH  22  23
ATOM     23  C   UNL     1      -9.102   3.902 133.803  0.00  0.00    +0.000 C 
BRANCH  23  35
ATOM     24  C   UNL     1      -5.121   7.198 130.785  0.00  0.00    +0.000 A 
ATOM     25  C   UNL     1      -6.442   6.890 131.121  0.00  0.00    +0.000 A 
ATOM     26  C   UNL     1      -6.722   6.290 132.354  0.00  0.00    +0.000 A 
ATOM     27  C   UNL     1      -5.676   5.978 133.244  0.00  0.00    +0.000 A 
ATOM     28  C   UNL     1      -4.356   6.250 132.863  0.00  0.00    +0.000 A 
ATOM     29  C   UNL     1      -4.081   6.857 131.646  0.00  0.00    +0.000 A 
ATOM     30  C   UNL     1      -5.971   5.327 134.587  0.00  0.00    +0.000 C 
ATOM     31  C   UNL     1      -5.170   5.997 135.710  0.00  0.00    +0.000 C 
ATOM     32  C   UNL     1      -5.604   3.831 134.514  0.00  0.00    +0.000 C 
ATOM     33  C   UNL     1      -7.470   5.416 134.891  0.00  0.00    +0.000 C 
ATOM     34  O   UNL     1      -7.947   5.707 135.981  0.00  0.00    +0.000 OA
ATOM     35  N   UNL     1      -8.210   5.052 133.792  0.00  0.00    +0.000 N 
ATOM     36  C   UNL     1      -8.121   5.871 132.686  0.00  0.00    +0.000 C 
ATOM     37  O   UNL     1      -9.070   6.227 132.000  0.00  0.00    +0.000 OA
BRANCH  24  39
ATOM     38  C   UNL     1      -3.706   7.037 128.931  0.00  0.00    +0.000 C 
ATOM     39  O   UNL     1      -4.743   7.752 129.595  0.00  0.00    +0.000 OA
ENDBRANCH  24  39
ENDBRANCH  23  35
ENDBRANCH  22  23
ENDBRANCH   1  22
TORSDOF 7
ENDMDL
MODEL 7
REMARK VINA RESULT:      -8.6      4.001      7.319
REMARK  Name = Gliquidone
REMARK  10 active torsions:
REMARK  status: ('A' for Active; 'I' for Inactive)
REMARK    1  A    between atoms: C_1  and  O_2
REMARK    2  A    between atoms: O_2  and  C_3
REMARK    3  A    between atoms: C_9  and  C_10
REMARK    4  A    between atoms: C_9  and  C_11
REMARK    5  A    between atoms: N_14  and  C_15
REMARK    6  A    between atoms: C_15  and  C_16
REMARK    7  A    between atoms: C_16  and  C_17
REMARK    8  A    between atoms: C_20  and  S_23
REMARK    9  A    between atoms: S_23  and  N_26
REMARK   10  A    between atoms: N_29  and  C_30
REMARK                            x       y       z     vdW  Elec       q    Type
REMARK                         _______ _______ _______ _____ _____    ______ ____
ROOT
ATOM      1  C   UNL     1      -6.126   3.672 134.148  0.00  0.00    +0.000 A 
ATOM      2  C   UNL     1      -5.820   2.727 133.165  0.00  0.00    +0.000 A 
ATOM      3  C   UNL     1      -6.829   2.215 132.354  0.00  0.00    +0.000 A 
ATOM      4  C   UNL     1      -8.171   2.492 132.646  0.00  0.00    +0.000 A 
ATOM      5  C   UNL     1      -8.492   3.228 133.781  0.00  0.00    +0.000 A 
ATOM      6  C   UNL     1      -7.472   3.861 134.496  0.00  0.00    +0.000 A 
ENDROOT
BRANCH   4   7
ATOM      7  S   UNL     1      -9.390   1.913 131.488  0.00  0.00    +0.000 S 
ATOM      8  O   UNL     1      -8.711   1.920 130.208  0.00  0.00    +0.000 OA
ATOM      9  O   UNL     1      -9.916   0.703 132.081  0.00  0.00    +0.000 OA
BRANCH   7  10
ATOM     10  N   UNL     1     -10.635   3.063 131.424  0.00  0.00    +0.000 N 
ATOM     11  C   UNL     1     -10.581   4.013 130.406  0.00  0.00    +0.000 C 
ATOM     12  O   UNL     1      -9.672   3.946 129.589  0.00  0.00    +0.000 OA
ATOM     13  N   UNL     1     -11.554   4.994 130.377  0.00  0.00    +0.000 N 
ATOM     14  H   UNL     1     -11.353   3.072 132.126  0.00  0.00    +0.000 HD
ATOM     15  H   UNL     1     -12.310   4.969 131.045  0.00  0.00    +0.000 HD
BRANCH  13  16
ATOM     16  C   UNL     1     -11.582   6.084 129.360  0.00  0.00    +0.000 C 
ATOM     17  C   UNL     1     -13.011   6.585 129.091  0.00  0.00    +0.000 C 
ATOM     18  C   UNL     1     -13.129   7.767 128.153  0.00  0.00    +0.000 C 
ATOM     19  C   UNL     1     -12.241   8.908 128.631  0.00  0.00    +0.000 C 
ATOM     20  C   UNL     1     -10.794   8.442 128.745  0.00  0.00    +0.000 C 
ATOM     21  C   UNL     1     -10.647   7.257 129.714  0.00  0.00    +0.000 C 
ENDBRANCH  13  16
ENDBRANCH   7  10
ENDBRANCH   4   7
BRANCH   1  22
ATOM     22  C   UNL     1      -5.055   4.515 134.806  0.00  0.00    +0.000 C 
BRANCH  22  23
ATOM     23  C   UNL     1      -5.072   6.000 134.377  0.00  0.00    +0.000 C 
BRANCH  23  35
ATOM     24  C   UNL     1      -5.240   4.353 128.626  0.00  0.00    +0.000 A 
ATOM     25  C   UNL     1      -5.797   5.026 129.717  0.00  0.00    +0.000 A 
ATOM     26  C   UNL     1      -4.967   5.486 130.746  0.00  0.00    +0.000 A 
ATOM     27  C   UNL     1      -3.579   5.253 130.694  0.00  0.00    +0.000 A 
ATOM     28  C   UNL     1      -3.051   4.532 129.615  0.00  0.00    +0.000 A 
ATOM     29  C   UNL     1      -3.873   4.088 128.590  0.00  0.00    +0.000 A 
ATOM     30  C   UNL     1      -2.669   5.750 131.807  0.00  0.00    +0.000 C 
ATOM     31  C   UNL     1      -1.407   6.407 131.233  0.00  0.00    +0.000 C 
ATOM     32  C   UNL     1      -2.269   4.559 132.701  0.00  0.00    +0.000 C 
ATOM     33  C   UNL     1      -3.423   6.751 132.688  0.00  0.00    +0.000 C 
ATOM     34  O   UNL     1      -2.956   7.803 133.109  0.00  0.00    +0.000 OA
ATOM     35  N   UNL     1      -4.671   6.273 133.006  0.00  0.00    +0.000 N 
ATOM     36  C   UNL     1      -5.562   6.125 131.963  0.00  0.00    +0.000 C 
ATOM     37  O   UNL     1      -6.741   6.452 131.997  0.00  0.00    +0.000 OA
BRANCH  24  39
ATOM     38  C   UNL     1      -6.278   2.456 127.738  0.00  0.00    +0.000 C 
ATOM     39  O   UNL     1      -5.968   3.838 127.591  0.00  0.00    +0.000 OA
ENDBRANCH  24  39
ENDBRANCH  23  35
ENDBRANCH  22  23
ENDBRANCH   1  22
TORSDOF 7
ENDMDL
MODEL 8
REMARK VINA RESULT:      -8.4      3.057      4.812
REMARK  Name = Gliquidone
REMARK  10 active torsions:
REMARK  status: ('A' for Active; 'I' for Inactive)
REMARK    1  A    between atoms: C_1  and  O_2
REMARK    2  A    between atoms: O_2  and  C_3
REMARK    3  A    between atoms: C_9  and  C_10
REMARK    4  A    between atoms: C_9  and  C_11
REMARK    5  A    between atoms: N_14  and  C_15
REMARK    6  A    between atoms: C_15  and  C_16
REMARK    7  A    between atoms: C_16  and  C_17
REMARK    8  A    between atoms: C_20  and  S_23
REMARK    9  A    between atoms: S_23  and  N_26
REMARK   10  A    between atoms: N_29  and  C_30
REMARK                            x       y       z     vdW  Elec       q    Type
REMARK                         _______ _______ _______ _____ _____    ______ ____
ROOT
ATOM      1  C   UNL     1      -7.062   1.441 132.576  0.00  0.00    +0.000 A 
ATOM      2  C   UNL     1      -6.222   2.533 132.342  0.00  0.00    +0.000 A 
ATOM      3  C   UNL     1      -6.702   3.830 132.510  0.00  0.00    +0.000 A 
ATOM      4  C   UNL     1      -8.070   4.048 132.717  0.00  0.00    +0.000 A 
ATOM      5  C   UNL     1      -8.952   2.973 132.694  0.00  0.00    +0.000 A 
ATOM      6  C   UNL     1      -8.442   1.672 132.680  0.00  0.00    +0.000 A 
ENDROOT
BRANCH   4   7
ATOM      7  S   UNL     1      -8.583   5.717 133.053  0.00  0.00    +0.000 S 
ATOM      8  O   UNL     1      -8.232   5.935 134.442  0.00  0.00    +0.000 OA
ATOM      9  O   UNL     1      -8.017   6.501 131.977  0.00  0.00    +0.000 OA
BRANCH   7  10
ATOM     10  N   UNL     1     -10.274   5.777 132.927  0.00  0.00    +0.000 N 
ATOM     11  C   UNL     1     -10.812   6.340 131.771  0.00  0.00    +0.000 C 
ATOM     12  O   UNL     1     -10.047   6.719 130.893  0.00  0.00    +0.000 OA
ATOM     13  N   UNL     1     -12.185   6.453 131.679  0.00  0.00    +0.000 N 
ATOM     14  H   UNL     1     -10.851   5.454 133.682  0.00  0.00    +0.000 HD
ATOM     15  H   UNL     1     -12.769   6.075 132.411  0.00  0.00    +0.000 HD
BRANCH  13  16
ATOM     16  C   UNL     1     -12.877   7.070 130.511  0.00  0.00    +0.000 C 
ATOM     17  C   UNL     1     -12.497   8.549 130.331  0.00  0.00    +0.000 C 
ATOM     18  C   UNL     1     -13.064   9.231 129.105  0.00  0.00    +0.000 C 
ATOM     19  C   UNL     1     -12.724   8.433 127.854  0.00  0.00    +0.000 C 
ATOM     20  C   UNL     1     -13.245   7.006 127.978  0.00  0.00    +0.000 C 
ATOM     21  C   UNL     1     -12.659   6.285 129.203  0.00  0.00    +0.000 C 
ENDBRANCH  13  16
ENDBRANCH   7  10
ENDBRANCH   4   7
BRANCH   1  22
ATOM     22  C   UNL     1      -6.519   0.040 132.757  0.00  0.00    +0.000 C 
BRANCH  22  23
ATOM     23  C   UNL     1      -5.210  -0.230 131.980  0.00  0.00    +0.000 C 
BRANCH  23  35
ATOM     24  C   UNL     1      -8.254  -2.163 127.204  0.00  0.00    +0.000 A 
ATOM     25  C   UNL     1      -7.312  -1.309 127.784  0.00  0.00    +0.000 A 
ATOM     26  C   UNL     1      -6.630  -1.711 128.939  0.00  0.00    +0.000 A 
ATOM     27  C   UNL     1      -6.906  -2.960 129.526  0.00  0.00    +0.000 A 
ATOM     28  C   UNL     1      -7.891  -3.777 128.955  0.00  0.00    +0.000 A 
ATOM     29  C   UNL     1      -8.557  -3.383 127.804  0.00  0.00    +0.000 A 
ATOM     30  C   UNL     1      -6.169  -3.407 130.780  0.00  0.00    +0.000 C 
ATOM     31  C   UNL     1      -5.714  -4.866 130.661  0.00  0.00    +0.000 C 
ATOM     32  C   UNL     1      -7.105  -3.256 131.996  0.00  0.00    +0.000 C 
ATOM     33  C   UNL     1      -4.957  -2.501 131.021  0.00  0.00    +0.000 C 
ATOM     34  O   UNL     1      -3.846  -2.893 131.357  0.00  0.00    +0.000 OA
ATOM     35  N   UNL     1      -5.304  -1.179 130.881  0.00  0.00    +0.000 N 
ATOM     36  C   UNL     1      -5.687  -0.768 129.621  0.00  0.00    +0.000 C 
ATOM     37  O   UNL     1      -5.330   0.272 129.084  0.00  0.00    +0.000 OA
BRANCH  24  39
ATOM     38  C   UNL     1      -9.313  -2.971 125.282  0.00  0.00    +0.000 C 
ATOM     39  O   UNL     1      -8.994  -1.849 126.100  0.00  0.00    +0.000 OA
ENDBRANCH  24  39
ENDBRANCH  23  35
ENDBRANCH  22  23
ENDBRANCH   1  22
TORSDOF 7
ENDMDL
MODEL 9
REMARK VINA RESULT:      -8.4      2.971      8.379
REMARK  Name = Gliquidone
REMARK  10 active torsions:
REMARK  status: ('A' for Active; 'I' for Inactive)
REMARK    1  A    between atoms: C_1  and  O_2
REMARK    2  A    between atoms: O_2  and  C_3
REMARK    3  A    between atoms: C_9  and  C_10
REMARK    4  A    between atoms: C_9  and  C_11
REMARK    5  A    between atoms: N_14  and  C_15
REMARK    6  A    between atoms: C_15  and  C_16
REMARK    7  A    between atoms: C_16  and  C_17
REMARK    8  A    between atoms: C_20  and  S_23
REMARK    9  A    between atoms: S_23  and  N_26
REMARK   10  A    between atoms: N_29  and  C_30
REMARK                            x       y       z     vdW  Elec       q    Type
REMARK                         _______ _______ _______ _____ _____    ______ ____
ROOT
ATOM      1  C   UNL     1      -8.642   2.311 132.983  0.00  0.00    +0.000 A 
ATOM      2  C   UNL     1      -7.312   1.884 133.024  0.00  0.00    +0.000 A 
ATOM      3  C   UNL     1      -6.886   0.850 132.194  0.00  0.00    +0.000 A 
ATOM      4  C   UNL     1      -7.824   0.107 131.466  0.00  0.00    +0.000 A 
ATOM      5  C   UNL     1      -9.182   0.366 131.621  0.00  0.00    +0.000 A 
ATOM      6  C   UNL     1      -9.584   1.499 132.333  0.00  0.00    +0.000 A 
ENDROOT
BRANCH   4   7
ATOM      7  S   UNL     1      -7.192  -1.107 130.330  0.00  0.00    +0.000 S 
ATOM      8  O   UNL     1      -5.755  -1.059 130.505  0.00  0.00    +0.000 OA
ATOM      9  O   UNL     1      -7.968  -2.300 130.595  0.00  0.00    +0.000 OA
BRANCH   7  10
ATOM     10  N   UNL     1      -7.543  -0.580 128.756  0.00  0.00    +0.000 N 
ATOM     11  C   UNL     1      -7.254  -1.452 127.707  0.00  0.00    +0.000 C 
ATOM     12  O   UNL     1      -6.807  -2.560 127.973  0.00  0.00    +0.000 OA
ATOM     13  N   UNL     1      -7.476  -1.015 126.416  0.00  0.00    +0.000 N 
ATOM     14  H   UNL     1      -7.906   0.342 128.599  0.00  0.00    +0.000 HD
ATOM     15  H   UNL     1      -7.896  -0.110 126.259  0.00  0.00    +0.000 HD
BRANCH  13  16
ATOM     16  C   UNL     1      -7.172  -1.840 125.212  0.00  0.00    +0.000 C 
ATOM     17  C   UNL     1      -7.975  -1.384 123.982  0.00  0.00    +0.000 C 
ATOM     18  C   UNL     1      -7.652  -2.092 122.685  0.00  0.00    +0.000 C 
ATOM     19  C   UNL     1      -6.156  -2.024 122.407  0.00  0.00    +0.000 C 
ATOM     20  C   UNL     1      -5.373  -2.625 123.568  0.00  0.00    +0.000 C 
ATOM     21  C   UNL     1      -5.666  -1.901 124.893  0.00  0.00    +0.000 C 
ENDBRANCH  13  16
ENDBRANCH   7  10
ENDBRANCH   4   7
BRANCH   1  22
ATOM     22  C   UNL     1      -9.075   3.632 133.581  0.00  0.00    +0.000 C 
BRANCH  22  23
ATOM     23  C   UNL     1      -9.775   4.576 132.576  0.00  0.00    +0.000 C 
BRANCH  23  35
ATOM     24  C   UNL     1      -6.410   2.704 127.994  0.00  0.00    +0.000 A 
ATOM     25  C   UNL     1      -7.662   2.965 128.559  0.00  0.00    +0.000 A 
ATOM     26  C   UNL     1      -7.780   3.932 129.565  0.00  0.00    +0.000 A 
ATOM     27  C   UNL     1      -6.641   4.623 130.021  0.00  0.00    +0.000 A 
ATOM     28  C   UNL     1      -5.390   4.306 129.475  0.00  0.00    +0.000 A 
ATOM     29  C   UNL     1      -5.276   3.357 128.469  0.00  0.00    +0.000 A 
ATOM     30  C   UNL     1      -6.759   5.676 131.112  0.00  0.00    +0.000 C 
ATOM     31  C   UNL     1      -5.948   6.928 130.758  0.00  0.00    +0.000 C 
ATOM     32  C   UNL     1      -6.244   5.086 132.441  0.00  0.00    +0.000 C 
ATOM     33  C   UNL     1      -8.231   6.049 131.317  0.00  0.00    +0.000 C 
ATOM     34  O   UNL     1      -8.649   7.191 131.467  0.00  0.00    +0.000 OA
ATOM     35  N   UNL     1      -9.013   4.921 131.386  0.00  0.00    +0.000 N 
ATOM     36  C   UNL     1      -9.097   4.155 130.242  0.00  0.00    +0.000 C 
ATOM     37  O   UNL     1     -10.129   3.667 129.800  0.00  0.00    +0.000 OA
BRANCH  24  39
ATOM     38  C   UNL     1      -4.813   1.589 126.701  0.00  0.00    +0.000 C 
ATOM     39  O   UNL     1      -6.187   1.758 127.034  0.00  0.00    +0.000 OA
ENDBRANCH  24  39
ENDBRANCH  23  35
ENDBRANCH  22  23
ENDBRANCH   1  22
TORSDOF 7
ENDMDL
