MODEL 1
REMARK VINA RESULT:      -5.4      0.000      0.000
REMARK  Name = Glucosamine
REMARK  6 active torsions:
REMARK  status: ('A' for Active; 'I' for Inactive)
REMARK    1  A    between atoms: N_1  and  C_2
REMARK    2  A    between atoms: C_3  and  O_4
REMARK    3  A    between atoms: C_6  and  C_7
REMARK    4  A    between atoms: C_7  and  O_8
REMARK    5  A    between atoms: C_9  and  O_10
REMARK    6  A    between atoms: C_11  and  O_12
REMARK                            x       y       z     vdW  Elec       q    Type
REMARK                         _______ _______ _______ _____ _____    ______ ____
ROOT
ATOM      1  C   UNL     1     -10.359   6.247 130.683  0.00  0.00    +0.000 C 
ATOM      2  C   UNL     1     -11.874   5.899 130.624  0.00  0.00    +0.000 C 
ATOM      3  O   UNL     1     -12.358   5.849 129.276  0.00  0.00    +0.000 OA
ATOM      4  C   UNL     1     -12.189   7.087 128.569  0.00  0.00    +0.000 C 
ATOM      5  C   UNL     1     -10.707   7.476 128.501  0.00  0.00    +0.000 C 
ATOM      6  C   UNL     1     -10.112   7.564 129.916  0.00  0.00    +0.000 C 
ENDROOT
BRANCH   1   7
ATOM      7  N   UNL     1      -9.809   6.328 132.051  0.00  0.00    +0.000 NA
ATOM      8  H   UNL     1      -9.191   5.539 132.233  0.00  0.00    +0.000 HD
ATOM      9  H   UNL     1     -10.563   6.256 132.734  0.00  0.00    +0.000 HD
ENDBRANCH   1   7
BRANCH   2  10
ATOM     10  O   UNL     1     -12.677   6.765 131.423  0.00  0.00    +0.000 OA
ATOM     11  H   UNL     1     -12.105   7.298 131.987  0.00  0.00    +0.000 HD
ENDBRANCH   2  10
BRANCH   5  12
ATOM     12  O   UNL     1     -10.536   8.720 127.820  0.00  0.00    +0.000 OA
ATOM     13  H   UNL     1     -11.238   9.328 128.091  0.00  0.00    +0.000 HD
ENDBRANCH   5  12
BRANCH   6  14
ATOM     14  O   UNL     1      -8.717   7.879 129.841  0.00  0.00    +0.000 OA
ATOM     15  H   UNL     1      -8.226   7.048 129.721  0.00  0.00    +0.000 HD
ENDBRANCH   6  14
BRANCH   4  16
ATOM     16  C   UNL     1     -12.829   7.017 127.167  0.00  0.00    +0.000 C 
BRANCH  16  17
ATOM     17  O   UNL     1     -11.914   6.673 126.132  0.00  0.00    +0.000 OA
ATOM     18  H   UNL     1     -12.420   6.304 125.387  0.00  0.00    +0.000 HD
ENDBRANCH  16  17
ENDBRANCH   4  16
TORSDOF 6
ENDMDL
MODEL 2
REMARK VINA RESULT:      -5.1      1.403      2.510
REMARK  Name = Glucosamine
REMARK  6 active torsions:
REMARK  status: ('A' for Active; 'I' for Inactive)
REMARK    1  A    between atoms: N_1  and  C_2
REMARK    2  A    between atoms: C_3  and  O_4
REMARK    3  A    between atoms: C_6  and  C_7
REMARK    4  A    between atoms: C_7  and  O_8
REMARK    5  A    between atoms: C_9  and  O_10
REMARK    6  A    between atoms: C_11  and  O_12
REMARK                            x       y       z     vdW  Elec       q    Type
REMARK                         _______ _______ _______ _____ _____    ______ ____
ROOT
ATOM      1  C   UNL     1     -10.788   6.520 131.280  0.00  0.00    +0.000 C 
ATOM      2  C   UNL     1      -9.803   5.963 130.213  0.00  0.00    +0.000 C 
ATOM      3  O   UNL     1      -9.841   6.728 129.002  0.00  0.00    +0.000 OA
ATOM      4  C   UNL     1     -11.140   6.756 128.392  0.00  0.00    +0.000 C 
ATOM      5  C   UNL     1     -12.175   7.369 129.344  0.00  0.00    +0.000 C 
ATOM      6  C   UNL     1     -12.205   6.594 130.671  0.00  0.00    +0.000 C 
ENDROOT
BRANCH   1   7
ATOM      7  N   UNL     1     -10.804   5.760 132.546  0.00  0.00    +0.000 NA
ATOM      8  H   UNL     1     -11.712   5.842 132.999  0.00  0.00    +0.000 HD
ATOM      9  H   UNL     1     -10.129   6.157 133.199  0.00  0.00    +0.000 HD
ENDBRANCH   1   7
BRANCH   2  10
ATOM     10  O   UNL     1      -9.994   4.576 129.947  0.00  0.00    +0.000 OA
ATOM     11  H   UNL     1     -10.693   4.471 129.291  0.00  0.00    +0.000 HD
ENDBRANCH   2  10
BRANCH   5  12
ATOM     12  O   UNL     1     -13.474   7.376 128.751  0.00  0.00    +0.000 OA
ATOM     13  H   UNL     1     -13.567   8.167 128.200  0.00  0.00    +0.000 HD
ENDBRANCH   5  12
BRANCH   6  14
ATOM     14  O   UNL     1     -13.137   7.204 131.572  0.00  0.00    +0.000 OA
ATOM     15  H   UNL     1     -12.964   8.161 131.582  0.00  0.00    +0.000 HD
ENDBRANCH   6  14
BRANCH   4  16
ATOM     16  C   UNL     1     -11.101   7.491 127.036  0.00  0.00    +0.000 C 
BRANCH  16  17
ATOM     17  O   UNL     1     -11.901   6.885 126.027  0.00  0.00    +0.000 OA
ATOM     18  H   UNL     1     -11.408   6.131 125.657  0.00  0.00    +0.000 HD
ENDBRANCH  16  17
ENDBRANCH   4  16
TORSDOF 6
ENDMDL
MODEL 3
REMARK VINA RESULT:      -4.9      2.047      2.502
REMARK  Name = Glucosamine
REMARK  6 active torsions:
REMARK  status: ('A' for Active; 'I' for Inactive)
REMARK    1  A    between atoms: N_1  and  C_2
REMARK    2  A    between atoms: C_3  and  O_4
REMARK    3  A    between atoms: C_6  and  C_7
REMARK    4  A    between atoms: C_7  and  O_8
REMARK    5  A    between atoms: C_9  and  O_10
REMARK    6  A    between atoms: C_11  and  O_12
REMARK                            x       y       z     vdW  Elec       q    Type
REMARK                         _______ _______ _______ _____ _____    ______ ____
ROOT
ATOM      1  C   UNL     1     -12.764   7.204 130.295  0.00  0.00    +0.000 C 
ATOM      2  C   UNL     1     -13.171   8.305 129.274  0.00  0.00    +0.000 C 
ATOM      3  O   UNL     1     -12.692   8.013 127.956  0.00  0.00    +0.000 OA
ATOM      4  C   UNL     1     -11.263   7.892 127.888  0.00  0.00    +0.000 C 
ATOM      5  C   UNL     1     -10.769   6.766 128.805  0.00  0.00    +0.000 C 
ATOM      6  C   UNL     1     -11.233   7.013 130.250  0.00  0.00    +0.000 C 
ENDROOT
BRANCH   1   7
ATOM      7  N   UNL     1     -13.217   7.462 131.677  0.00  0.00    +0.000 NA
ATOM      8  H   UNL     1     -12.697   6.884 132.335  0.00  0.00    +0.000 HD
ATOM      9  H   UNL     1     -14.195   7.190 131.778  0.00  0.00    +0.000 HD
ENDBRANCH   1   7
BRANCH   2  10
ATOM     10  O   UNL     1     -12.780   9.614 129.681  0.00  0.00    +0.000 OA
ATOM     11  H   UNL     1     -13.468   9.993 130.241  0.00  0.00    +0.000 HD
ENDBRANCH   2  10
BRANCH   5  12
ATOM     12  O   UNL     1      -9.345   6.658 128.760  0.00  0.00    +0.000 OA
ATOM     13  H   UNL     1      -9.066   6.537 127.841  0.00  0.00    +0.000 HD
ENDBRANCH   5  12
BRANCH   6  14
ATOM     14  O   UNL     1     -10.809   5.933 131.090  0.00  0.00    +0.000 OA
ATOM     15  H   UNL     1     -11.473   5.819 131.792  0.00  0.00    +0.000 HD
ENDBRANCH   6  14
BRANCH   4  16
ATOM     16  C   UNL     1     -10.792   7.694 126.431  0.00  0.00    +0.000 C 
BRANCH  16  17
ATOM     17  O   UNL     1     -10.343   6.374 126.145  0.00  0.00    +0.000 OA
ATOM     18  H   UNL     1      -9.512   6.222 126.628  0.00  0.00    +0.000 HD
ENDBRANCH  16  17
ENDBRANCH   4  16
TORSDOF 6
ENDMDL
MODEL 4
REMARK VINA RESULT:      -4.9      2.125      3.998
REMARK  Name = Glucosamine
REMARK  6 active torsions:
REMARK  status: ('A' for Active; 'I' for Inactive)
REMARK    1  A    between atoms: N_1  and  C_2
REMARK    2  A    between atoms: C_3  and  O_4
REMARK    3  A    between atoms: C_6  and  C_7
REMARK    4  A    between atoms: C_7  and  O_8
REMARK    5  A    between atoms: C_9  and  O_10
REMARK    6  A    between atoms: C_11  and  O_12
REMARK                            x       y       z     vdW  Elec       q    Type
REMARK                         _______ _______ _______ _____ _____    ______ ____
ROOT
ATOM      1  C   UNL     1     -12.206   7.970 129.125  0.00  0.00    +0.000 C 
ATOM      2  C   UNL     1     -10.915   7.444 128.433  0.00  0.00    +0.000 C 
ATOM      3  O   UNL     1     -10.694   6.055 128.703  0.00  0.00    +0.000 OA
ATOM      4  C   UNL     1     -10.561   5.765 130.102  0.00  0.00    +0.000 C 
ATOM      5  C   UNL     1     -11.828   6.175 130.865  0.00  0.00    +0.000 C 
ATOM      6  C   UNL     1     -12.130   7.665 130.637  0.00  0.00    +0.000 C 
ENDROOT
BRANCH   1   7
ATOM      7  N   UNL     1     -12.476   9.403 128.896  0.00  0.00    +0.000 NA
ATOM      8  H   UNL     1     -13.037   9.786 129.655  0.00  0.00    +0.000 HD
ATOM      9  H   UNL     1     -13.034   9.521 128.050  0.00  0.00    +0.000 HD
ENDBRANCH   1   7
BRANCH   2  10
ATOM     10  O   UNL     1      -9.759   8.216 128.749  0.00  0.00    +0.000 OA
ATOM     11  H   UNL     1      -9.046   7.985 128.142  0.00  0.00    +0.000 HD
ENDBRANCH   2  10
BRANCH   5  12
ATOM     12  O   UNL     1     -11.691   5.911 132.262  0.00  0.00    +0.000 OA
ATOM     13  H   UNL     1     -12.362   5.267 132.530  0.00  0.00    +0.000 HD
ENDBRANCH   5  12
BRANCH   6  14
ATOM     14  O   UNL     1     -13.340   8.027 131.312  0.00  0.00    +0.000 OA
ATOM     15  H   UNL     1     -14.057   7.469 130.964  0.00  0.00    +0.000 HD
ENDBRANCH   6  14
BRANCH   4  16
ATOM     16  C   UNL     1     -10.210   4.280 130.331  0.00  0.00    +0.000 C 
BRANCH  16  17
ATOM     17  O   UNL     1     -11.337   3.455 130.606  0.00  0.00    +0.000 OA
ATOM     18  H   UNL     1     -11.129   2.902 131.379  0.00  0.00    +0.000 HD
ENDBRANCH  16  17
ENDBRANCH   4  16
TORSDOF 6
ENDMDL
MODEL 5
REMARK VINA RESULT:      -4.7      1.875      2.372
REMARK  Name = Glucosamine
REMARK  6 active torsions:
REMARK  status: ('A' for Active; 'I' for Inactive)
REMARK    1  A    between atoms: N_1  and  C_2
REMARK    2  A    between atoms: C_3  and  O_4
REMARK    3  A    between atoms: C_6  and  C_7
REMARK    4  A    between atoms: C_7  and  O_8
REMARK    5  A    between atoms: C_9  and  O_10
REMARK    6  A    between atoms: C_11  and  O_12
REMARK                            x       y       z     vdW  Elec       q    Type
REMARK                         _______ _______ _______ _____ _____    ______ ____
ROOT
ATOM      1  C   UNL     1     -11.153   5.708 129.666  0.00  0.00    +0.000 C 
ATOM      2  C   UNL     1     -11.958   6.326 130.845  0.00  0.00    +0.000 C 
ATOM      3  O   UNL     1     -12.902   7.304 130.391  0.00  0.00    +0.000 OA
ATOM      4  C   UNL     1     -12.291   8.397 129.690  0.00  0.00    +0.000 C 
ATOM      5  C   UNL     1     -11.535   7.893 128.453  0.00  0.00    +0.000 C 
ATOM      6  C   UNL     1     -10.488   6.843 128.857  0.00  0.00    +0.000 C 
ENDROOT
BRANCH   1   7
ATOM      7  N   UNL     1     -10.151   4.704 130.076  0.00  0.00    +0.000 NA
ATOM      8  H   UNL     1      -9.558   4.450 129.288  0.00  0.00    +0.000 HD
ATOM      9  H   UNL     1     -10.618   3.844 130.363  0.00  0.00    +0.000 HD
ENDBRANCH   1   7
BRANCH   2  10
ATOM     10  O   UNL     1     -11.124   6.859 131.871  0.00  0.00    +0.000 OA
ATOM     11  H   UNL     1     -11.636   6.949 132.683  0.00  0.00    +0.000 HD
ENDBRANCH   2  10
BRANCH   5  12
ATOM     12  O   UNL     1     -10.904   8.975 127.765  0.00  0.00    +0.000 OA
ATOM     13  H   UNL     1     -10.055   8.673 127.412  0.00  0.00    +0.000 HD
ENDBRANCH   5  12
BRANCH   6  14
ATOM     14  O   UNL     1      -9.822   6.343 127.692  0.00  0.00    +0.000 OA
ATOM     15  H   UNL     1      -9.545   5.429 127.873  0.00  0.00    +0.000 HD
ENDBRANCH   6  14
BRANCH   4  16
ATOM     16  C   UNL     1     -13.333   9.475 129.326  0.00  0.00    +0.000 C 
BRANCH  16  17
ATOM     17  O   UNL     1     -12.797  10.791 129.245  0.00  0.00    +0.000 OA
ATOM     18  H   UNL     1     -12.152  10.815 128.517  0.00  0.00    +0.000 HD
ENDBRANCH  16  17
ENDBRANCH   4  16
TORSDOF 6
ENDMDL
MODEL 6
REMARK VINA RESULT:      -4.7      2.272      3.219
REMARK  Name = Glucosamine
REMARK  6 active torsions:
REMARK  status: ('A' for Active; 'I' for Inactive)
REMARK    1  A    between atoms: N_1  and  C_2
REMARK    2  A    between atoms: C_3  and  O_4
REMARK    3  A    between atoms: C_6  and  C_7
REMARK    4  A    between atoms: C_7  and  O_8
REMARK    5  A    between atoms: C_9  and  O_10
REMARK    6  A    between atoms: C_11  and  O_12
REMARK                            x       y       z     vdW  Elec       q    Type
REMARK                         _______ _______ _______ _____ _____    ______ ____
ROOT
ATOM      1  C   UNL     1     -11.993   8.420 129.490  0.00  0.00    +0.000 C 
ATOM      2  C   UNL     1     -12.982   7.337 130.010  0.00  0.00    +0.000 C 
ATOM      3  O   UNL     1     -12.301   6.276 130.691  0.00  0.00    +0.000 OA
ATOM      4  C   UNL     1     -11.341   5.599 129.867  0.00  0.00    +0.000 C 
ATOM      5  C   UNL     1     -10.268   6.575 129.369  0.00  0.00    +0.000 C 
ATOM      6  C   UNL     1     -10.919   7.744 128.611  0.00  0.00    +0.000 C 
ENDROOT
BRANCH   1   7
ATOM      7  N   UNL     1     -12.639   9.531 128.764  0.00  0.00    +0.000 NA
ATOM      8  H   UNL     1     -13.542   9.237 128.394  0.00  0.00    +0.000 HD
ATOM      9  H   UNL     1     -12.077   9.790 127.953  0.00  0.00    +0.000 HD
ENDBRANCH   1   7
BRANCH   2  10
ATOM     10  O   UNL     1     -13.834   6.823 128.989  0.00  0.00    +0.000 OA
ATOM     11  H   UNL     1     -13.457   7.031 128.125  0.00  0.00    +0.000 HD
ENDBRANCH   2  10
BRANCH   5  12
ATOM     12  O   UNL     1      -9.324   5.911 128.527  0.00  0.00    +0.000 OA
ATOM     13  H   UNL     1      -9.224   6.412 127.705  0.00  0.00    +0.000 HD
ENDBRANCH   5  12
BRANCH   6  14
ATOM     14  O   UNL     1      -9.915   8.675 128.193  0.00  0.00    +0.000 OA
ATOM     15  H   UNL     1      -9.250   8.189 127.675  0.00  0.00    +0.000 HD
ENDBRANCH   6  14
BRANCH   4  16
ATOM     16  C   UNL     1     -10.722   4.396 130.609  0.00  0.00    +0.000 C 
BRANCH  16  17
ATOM     17  O   UNL     1     -10.233   3.375 129.746  0.00  0.00    +0.000 OA
ATOM     18  H   UNL     1     -10.336   3.676 128.826  0.00  0.00    +0.000 HD
ENDBRANCH  16  17
ENDBRANCH   4  16
TORSDOF 6
ENDMDL
MODEL 7
REMARK VINA RESULT:      -4.3     10.907     11.868
REMARK  Name = Glucosamine
REMARK  6 active torsions:
REMARK  status: ('A' for Active; 'I' for Inactive)
REMARK    1  A    between atoms: N_1  and  C_2
REMARK    2  A    between atoms: C_3  and  O_4
REMARK    3  A    between atoms: C_6  and  C_7
REMARK    4  A    between atoms: C_7  and  O_8
REMARK    5  A    between atoms: C_9  and  O_10
REMARK    6  A    between atoms: C_11  and  O_12
REMARK                            x       y       z     vdW  Elec       q    Type
REMARK                         _______ _______ _______ _____ _____    ______ ____
ROOT
ATOM      1  C   UNL     1      -8.977  -1.268 122.835  0.00  0.00    +0.000 C 
ATOM      2  C   UNL     1      -7.796  -0.393 123.346  0.00  0.00    +0.000 C 
ATOM      3  O   UNL     1      -6.595  -1.158 123.504  0.00  0.00    +0.000 OA
ATOM      4  C   UNL     1      -6.735  -2.247 124.429  0.00  0.00    +0.000 C 
ATOM      5  C   UNL     1      -7.829  -3.217 123.964  0.00  0.00    +0.000 C 
ATOM      6  C   UNL     1      -9.162  -2.472 123.783  0.00  0.00    +0.000 C 
ENDROOT
BRANCH   1   7
ATOM      7  N   UNL     1     -10.247  -0.534 122.670  0.00  0.00    +0.000 NA
ATOM      8  H   UNL     1     -10.342   0.179 123.392  0.00  0.00    +0.000 HD
ATOM      9  H   UNL     1     -11.035  -1.169 122.800  0.00  0.00    +0.000 HD
ENDBRANCH   1   7
BRANCH   2  10
ATOM     10  O   UNL     1      -8.107   0.320 124.541  0.00  0.00    +0.000 OA
ATOM     11  H   UNL     1      -7.718  -0.137 125.296  0.00  0.00    +0.000 HD
ENDBRANCH   2  10
BRANCH   5  12
ATOM     12  O   UNL     1      -7.990  -4.289 124.895  0.00  0.00    +0.000 OA
ATOM     13  H   UNL     1      -7.657  -5.106 124.497  0.00  0.00    +0.000 HD
ENDBRANCH   5  12
BRANCH   6  14
ATOM     14  O   UNL     1     -10.164  -3.375 123.302  0.00  0.00    +0.000 OA
ATOM     15  H   UNL     1     -11.031  -3.050 123.600  0.00  0.00    +0.000 HD
ENDBRANCH   6  14
BRANCH   4  16
ATOM     16  C   UNL     1      -5.387  -2.965 124.650  0.00  0.00    +0.000 C 
BRANCH  16  17
ATOM     17  O   UNL     1      -5.234  -4.153 123.882  0.00  0.00    +0.000 OA
ATOM     18  H   UNL     1      -6.110  -4.562 123.773  0.00  0.00    +0.000 HD
ENDBRANCH  16  17
ENDBRANCH   4  16
TORSDOF 6
ENDMDL
MODEL 8
REMARK VINA RESULT:      -4.3      2.730      4.335
REMARK  Name = Glucosamine
REMARK  6 active torsions:
REMARK  status: ('A' for Active; 'I' for Inactive)
REMARK    1  A    between atoms: N_1  and  C_2
REMARK    2  A    between atoms: C_3  and  O_4
REMARK    3  A    between atoms: C_6  and  C_7
REMARK    4  A    between atoms: C_7  and  O_8
REMARK    5  A    between atoms: C_9  and  O_10
REMARK    6  A    between atoms: C_11  and  O_12
REMARK                            x       y       z     vdW  Elec       q    Type
REMARK                         _______ _______ _______ _____ _____    ______ ____
ROOT
ATOM      1  C   UNL     1     -10.823   6.282 131.455  0.00  0.00    +0.000 C 
ATOM      2  C   UNL     1      -9.792   5.974 132.579  0.00  0.00    +0.000 C 
ATOM      3  O   UNL     1      -8.454   5.912 132.073  0.00  0.00    +0.000 OA
ATOM      4  C   UNL     1      -8.277   4.907 131.062  0.00  0.00    +0.000 C 
ATOM      5  C   UNL     1      -9.200   5.174 129.865  0.00  0.00    +0.000 C 
ATOM      6  C   UNL     1     -10.665   5.242 130.325  0.00  0.00    +0.000 C 
ENDROOT
BRANCH   1   7
ATOM      7  N   UNL     1     -12.224   6.341 131.918  0.00  0.00    +0.000 NA
ATOM      8  H   UNL     1     -12.621   5.404 131.971  0.00  0.00    +0.000 HD
ATOM      9  H   UNL     1     -12.793   6.847 131.239  0.00  0.00    +0.000 HD
ENDBRANCH   1   7
BRANCH   2  10
ATOM     10  O   UNL     1     -10.112   4.800 133.322  0.00  0.00    +0.000 OA
ATOM     11  H   UNL     1      -9.784   4.895 134.225  0.00  0.00    +0.000 HD
ENDBRANCH   2  10
BRANCH   5  12
ATOM     12  O   UNL     1      -9.046   4.162 128.868  0.00  0.00    +0.000 OA
ATOM     13  H   UNL     1      -9.043   3.294 129.295  0.00  0.00    +0.000 HD
ENDBRANCH   5  12
BRANCH   6  14
ATOM     14  O   UNL     1     -11.513   5.540 129.210  0.00  0.00    +0.000 OA
ATOM     15  H   UNL     1     -11.568   6.507 129.123  0.00  0.00    +0.000 HD
ENDBRANCH   6  14
BRANCH   4  16
ATOM     16  C   UNL     1      -6.798   4.803 130.635  0.00  0.00    +0.000 C 
BRANCH  16  17
ATOM     17  O   UNL     1      -6.543   5.280 129.318  0.00  0.00    +0.000 OA
ATOM     18  H   UNL     1      -5.776   4.798 128.962  0.00  0.00    +0.000 HD
ENDBRANCH  16  17
ENDBRANCH   4  16
TORSDOF 6
ENDMDL
MODEL 9
REMARK VINA RESULT:      -4.2      8.112      8.990
REMARK  Name = Glucosamine
REMARK  6 active torsions:
REMARK  status: ('A' for Active; 'I' for Inactive)
REMARK    1  A    between atoms: N_1  and  C_2
REMARK    2  A    between atoms: C_3  and  O_4
REMARK    3  A    between atoms: C_6  and  C_7
REMARK    4  A    between atoms: C_7  and  O_8
REMARK    5  A    between atoms: C_9  and  O_10
REMARK    6  A    between atoms: C_11  and  O_12
REMARK                            x       y       z     vdW  Elec       q    Type
REMARK                         _______ _______ _______ _____ _____    ______ ____
ROOT
ATOM      1  C   UNL     1      -8.471   2.134 124.550  0.00  0.00    +0.000 C 
ATOM      2  C   UNL     1      -8.319   1.267 125.833  0.00  0.00    +0.000 C 
ATOM      3  O   UNL     1      -8.008  -0.096 125.521  0.00  0.00    +0.000 OA
ATOM      4  C   UNL     1      -9.005  -0.731 124.707  0.00  0.00    +0.000 C 
ATOM      5  C   UNL     1      -9.169   0.008 123.374  0.00  0.00    +0.000 C 
ATOM      6  C   UNL     1      -9.519   1.485 123.622  0.00  0.00    +0.000 C 
ENDROOT
BRANCH   1   7
ATOM      7  N   UNL     1      -8.809   3.548 124.811  0.00  0.00    +0.000 NA
ATOM      8  H   UNL     1      -8.730   3.755 125.805  0.00  0.00    +0.000 HD
ATOM      9  H   UNL     1      -9.783   3.723 124.566  0.00  0.00    +0.000 HD
ENDBRANCH   1   7
BRANCH   2  10
ATOM     10  O   UNL     1      -9.449   1.348 126.698  0.00  0.00    +0.000 OA
ATOM     11  H   UNL     1      -9.402   2.165 127.209  0.00  0.00    +0.000 HD
ENDBRANCH   2  10
BRANCH   5  12
ATOM     12  O   UNL     1     -10.179  -0.606 122.570  0.00  0.00    +0.000 OA
ATOM     13  H   UNL     1     -10.391  -1.475 122.938  0.00  0.00    +0.000 HD
ENDBRANCH   5  12
BRANCH   6  14
ATOM     14  O   UNL     1      -9.622   2.179 122.373  0.00  0.00    +0.000 OA
ATOM     15  H   UNL     1      -9.553   1.523 121.658  0.00  0.00    +0.000 HD
ENDBRANCH   6  14
BRANCH   4  16
ATOM     16  C   UNL     1      -8.681  -2.226 124.498  0.00  0.00    +0.000 C 
BRANCH  16  17
ATOM     17  O   UNL     1      -9.828  -3.039 124.277  0.00  0.00    +0.000 OA
ATOM     18  H   UNL     1     -10.161  -2.860 123.380  0.00  0.00    +0.000 HD
ENDBRANCH  16  17
ENDBRANCH   4  16
TORSDOF 6
ENDMDL
