MODEL 1
REMARK VINA RESULT:      -5.5      0.000      0.000
REMARK  Name = Gluconolactone
REMARK  5 active torsions:
REMARK  status: ('A' for Active; 'I' for Inactive)
REMARK    1  A    between atoms: O_1  and  C_2
REMARK    2  A    between atoms: C_2  and  C_3
REMARK    3  A    between atoms: C_7  and  O_8
REMARK    4  A    between atoms: C_9  and  O_10
REMARK    5  A    between atoms: C_11  and  O_12
REMARK                            x       y       z     vdW  Elec       q    Type
REMARK                         _______ _______ _______ _____ _____    ______ ____
ROOT
ATOM      1  C   UNL     1     -11.126   8.065 128.230  0.00  0.00    +0.000 C 
ATOM      2  O   UNL     1     -12.391   8.716 128.456  0.00  0.00    +0.000 OA
ATOM      3  C   UNL     1     -12.763   8.812 129.767  0.00  0.00    +0.000 C 
ATOM      4  O   UNL     1     -13.064   9.877 130.299  0.00  0.00    +0.000 OA
ATOM      5  C   UNL     1     -12.831   7.457 130.477  0.00  0.00    +0.000 C 
ATOM      6  C   UNL     1     -11.473   6.778 130.336  0.00  0.00    +0.000 C 
ATOM      7  C   UNL     1     -11.101   6.677 128.866  0.00  0.00    +0.000 C 
ENDROOT
BRANCH   5   8
ATOM      8  O   UNL     1     -13.182   7.526 131.856  0.00  0.00    +0.000 OA
ATOM      9  H   UNL     1     -13.856   8.221 131.958  0.00  0.00    +0.000 HD
ENDBRANCH   5   8
BRANCH   6  10
ATOM     10  O   UNL     1     -11.479   5.471 130.916  0.00  0.00    +0.000 OA
ATOM     11  H   UNL     1     -12.404   5.199 131.049  0.00  0.00    +0.000 HD
ENDBRANCH   6  10
BRANCH   7  12
ATOM     12  O   UNL     1      -9.822   6.071 128.688  0.00  0.00    +0.000 OA
ATOM     13  H   UNL     1      -9.641   6.001 127.734  0.00  0.00    +0.000 HD
ENDBRANCH   7  12
BRANCH   1  14
ATOM     14  C   UNL     1     -10.769   7.867 126.746  0.00  0.00    +0.000 C 
BRANCH  14  15
ATOM     15  O   UNL     1     -11.235   6.644 126.214  0.00  0.00    +0.000 OA
ATOM     16  H   UNL     1     -11.829   6.265 126.887  0.00  0.00    +0.000 HD
ENDBRANCH  14  15
ENDBRANCH   1  14
TORSDOF 5
ENDMDL
MODEL 2
REMARK VINA RESULT:      -5.4      1.641      2.175
REMARK  Name = Gluconolactone
REMARK  5 active torsions:
REMARK  status: ('A' for Active; 'I' for Inactive)
REMARK    1  A    between atoms: O_1  and  C_2
REMARK    2  A    between atoms: C_2  and  C_3
REMARK    3  A    between atoms: C_7  and  O_8
REMARK    4  A    between atoms: C_9  and  O_10
REMARK    5  A    between atoms: C_11  and  O_12
REMARK                            x       y       z     vdW  Elec       q    Type
REMARK                         _______ _______ _______ _____ _____    ______ ____
ROOT
ATOM      1  C   UNL     1     -12.346   7.520 128.494  0.00  0.00    +0.000 C 
ATOM      2  O   UNL     1     -13.036   6.728 129.480  0.00  0.00    +0.000 OA
ATOM      3  C   UNL     1     -12.561   6.853 130.754  0.00  0.00    +0.000 C 
ATOM      4  O   UNL     1     -13.275   7.154 131.707  0.00  0.00    +0.000 OA
ATOM      5  C   UNL     1     -11.072   6.517 130.880  0.00  0.00    +0.000 C 
ATOM      6  C   UNL     1     -10.300   7.406 129.912  0.00  0.00    +0.000 C 
ATOM      7  C   UNL     1     -10.848   7.229 128.506  0.00  0.00    +0.000 C 
ENDROOT
BRANCH   5   8
ATOM      8  O   UNL     1     -10.537   6.671 132.192  0.00  0.00    +0.000 OA
ATOM      9  H   UNL     1      -9.838   6.004 132.310  0.00  0.00    +0.000 HD
ENDBRANCH   5   8
BRANCH   6  10
ATOM     10  O   UNL     1      -8.903   7.100 129.921  0.00  0.00    +0.000 OA
ATOM     11  H   UNL     1      -8.406   7.934 129.850  0.00  0.00    +0.000 HD
ENDBRANCH   6  10
BRANCH   7  12
ATOM     12  O   UNL     1     -10.171   8.065 127.570  0.00  0.00    +0.000 OA
ATOM     13  H   UNL     1     -10.570   7.936 126.691  0.00  0.00    +0.000 HD
ENDBRANCH   7  12
BRANCH   1  14
ATOM     14  C   UNL     1     -12.820   7.290 127.048  0.00  0.00    +0.000 C 
BRANCH  14  15
ATOM     15  O   UNL     1     -11.948   6.474 126.294  0.00  0.00    +0.000 OA
ATOM     16  H   UNL     1     -11.630   7.027 125.557  0.00  0.00    +0.000 HD
ENDBRANCH  14  15
ENDBRANCH   1  14
TORSDOF 5
ENDMDL
MODEL 3
REMARK VINA RESULT:      -5.1      1.371      3.187
REMARK  Name = Gluconolactone
REMARK  5 active torsions:
REMARK  status: ('A' for Active; 'I' for Inactive)
REMARK    1  A    between atoms: O_1  and  C_2
REMARK    2  A    between atoms: C_2  and  C_3
REMARK    3  A    between atoms: C_7  and  O_8
REMARK    4  A    between atoms: C_9  and  O_10
REMARK    5  A    between atoms: C_11  and  O_12
REMARK                            x       y       z     vdW  Elec       q    Type
REMARK                         _______ _______ _______ _____ _____    ______ ____
ROOT
ATOM      1  C   UNL     1     -12.362   8.514 129.478  0.00  0.00    +0.000 C 
ATOM      2  O   UNL     1     -12.986   7.508 130.299  0.00  0.00    +0.000 OA
ATOM      3  C   UNL     1     -12.123   6.620 130.877  0.00  0.00    +0.000 C 
ATOM      4  O   UNL     1     -12.097   6.405 132.085  0.00  0.00    +0.000 OA
ATOM      5  C   UNL     1     -11.247   5.881 129.861  0.00  0.00    +0.000 C 
ATOM      6  C   UNL     1     -10.499   6.920 129.033  0.00  0.00    +0.000 C 
ATOM      7  C   UNL     1     -11.492   7.879 128.397  0.00  0.00    +0.000 C 
ENDROOT
BRANCH   5   8
ATOM      8  O   UNL     1     -10.310   4.973 130.434  0.00  0.00    +0.000 OA
ATOM      9  H   UNL     1      -9.967   4.407 129.720  0.00  0.00    +0.000 HD
ENDBRANCH   5   8
BRANCH   6  10
ATOM     10  O   UNL     1      -9.710   6.305 128.011  0.00  0.00    +0.000 OA
ATOM     11  H   UNL     1     -10.301   6.044 127.283  0.00  0.00    +0.000 HD
ENDBRANCH   6  10
BRANCH   7  12
ATOM     12  O   UNL     1     -10.832   8.887 127.633  0.00  0.00    +0.000 OA
ATOM     13  H   UNL     1     -10.946   8.684 126.687  0.00  0.00    +0.000 HD
ENDBRANCH   7  12
BRANCH   1  14
ATOM     14  C   UNL     1     -13.350   9.441 128.749  0.00  0.00    +0.000 C 
BRANCH  14  15
ATOM     15  O   UNL     1     -13.113  10.814 128.986  0.00  0.00    +0.000 OA
ATOM     16  H   UNL     1     -13.339  11.274 128.157  0.00  0.00    +0.000 HD
ENDBRANCH  14  15
ENDBRANCH   1  14
TORSDOF 5
ENDMDL
MODEL 4
REMARK VINA RESULT:      -5.1      1.945      2.957
REMARK  Name = Gluconolactone
REMARK  5 active torsions:
REMARK  status: ('A' for Active; 'I' for Inactive)
REMARK    1  A    between atoms: O_1  and  C_2
REMARK    2  A    between atoms: C_2  and  C_3
REMARK    3  A    between atoms: C_7  and  O_8
REMARK    4  A    between atoms: C_9  and  O_10
REMARK    5  A    between atoms: C_11  and  O_12
REMARK                            x       y       z     vdW  Elec       q    Type
REMARK                         _______ _______ _______ _____ _____    ______ ____
ROOT
ATOM      1  C   UNL     1     -10.439   6.910 128.562  0.00  0.00    +0.000 C 
ATOM      2  O   UNL     1      -9.368   7.640 129.190  0.00  0.00    +0.000 OA
ATOM      3  C   UNL     1      -8.900   7.091 130.351  0.00  0.00    +0.000 C 
ATOM      4  O   UNL     1      -7.715   6.828 130.534  0.00  0.00    +0.000 OA
ATOM      5  C   UNL     1      -9.988   6.901 131.411  0.00  0.00    +0.000 C 
ATOM      6  C   UNL     1     -11.100   6.050 130.806  0.00  0.00    +0.000 C 
ATOM      7  C   UNL     1     -11.603   6.701 129.527  0.00  0.00    +0.000 C 
ENDROOT
BRANCH   5   8
ATOM      8  O   UNL     1      -9.539   6.297 132.621  0.00  0.00    +0.000 OA
ATOM      9  H   UNL     1      -8.582   6.461 132.699  0.00  0.00    +0.000 HD
ENDBRANCH   5   8
BRANCH   6  10
ATOM     10  O   UNL     1     -12.190   5.888 131.717  0.00  0.00    +0.000 OA
ATOM     11  H   UNL     1     -11.890   6.156 132.604  0.00  0.00    +0.000 HD
ENDBRANCH   6  10
BRANCH   7  12
ATOM     12  O   UNL     1     -12.627   5.923 128.911  0.00  0.00    +0.000 OA
ATOM     13  H   UNL     1     -13.081   5.406 129.600  0.00  0.00    +0.000 HD
ENDBRANCH   7  12
BRANCH   1  14
ATOM     14  C   UNL     1     -11.028   7.594 127.316  0.00  0.00    +0.000 C 
BRANCH  14  15
ATOM     15  O   UNL     1     -11.388   6.687 126.294  0.00  0.00    +0.000 OA
ATOM     16  H   UNL     1     -11.891   5.975 126.729  0.00  0.00    +0.000 HD
ENDBRANCH  14  15
ENDBRANCH   1  14
TORSDOF 5
ENDMDL
MODEL 5
REMARK VINA RESULT:      -5.1      1.069      2.894
REMARK  Name = Gluconolactone
REMARK  5 active torsions:
REMARK  status: ('A' for Active; 'I' for Inactive)
REMARK    1  A    between atoms: O_1  and  C_2
REMARK    2  A    between atoms: C_2  and  C_3
REMARK    3  A    between atoms: C_7  and  O_8
REMARK    4  A    between atoms: C_9  and  O_10
REMARK    5  A    between atoms: C_11  and  O_12
REMARK                            x       y       z     vdW  Elec       q    Type
REMARK                         _______ _______ _______ _____ _____    ______ ____
ROOT
ATOM      1  C   UNL     1     -11.817   7.024 128.116  0.00  0.00    +0.000 C 
ATOM      2  O   UNL     1     -10.923   6.091 128.750  0.00  0.00    +0.000 OA
ATOM      3  C   UNL     1     -11.370   5.580 129.936  0.00  0.00    +0.000 C 
ATOM      4  O   UNL     1     -11.450   4.374 130.156  0.00  0.00    +0.000 OA
ATOM      5  C   UNL     1     -11.694   6.658 130.974  0.00  0.00    +0.000 C 
ATOM      6  C   UNL     1     -12.713   7.615 130.365  0.00  0.00    +0.000 C 
ATOM      7  C   UNL     1     -12.174   8.171 129.057  0.00  0.00    +0.000 C 
ENDROOT
BRANCH   5   8
ATOM      8  O   UNL     1     -12.198   6.159 132.211  0.00  0.00    +0.000 OA
ATOM      9  H   UNL     1     -12.603   5.290 132.039  0.00  0.00    +0.000 HD
ENDBRANCH   5   8
BRANCH   6  10
ATOM     10  O   UNL     1     -13.014   8.694 131.253  0.00  0.00    +0.000 OA
ATOM     11  H   UNL     1     -12.201   8.931 131.734  0.00  0.00    +0.000 HD
ENDBRANCH   6  10
BRANCH   7  12
ATOM     12  O   UNL     1     -13.109   9.052 128.437  0.00  0.00    +0.000 OA
ATOM     13  H   UNL     1     -13.107   8.882 127.478  0.00  0.00    +0.000 HD
ENDBRANCH   7  12
BRANCH   1  14
ATOM     14  C   UNL     1     -11.257   7.672 126.837  0.00  0.00    +0.000 C 
BRANCH  14  15
ATOM     15  O   UNL     1     -10.372   6.834 126.123  0.00  0.00    +0.000 OA
ATOM     16  H   UNL     1      -9.944   7.400 125.454  0.00  0.00    +0.000 HD
ENDBRANCH  14  15
ENDBRANCH   1  14
TORSDOF 5
ENDMDL
MODEL 6
REMARK VINA RESULT:      -5.0      1.200      3.494
REMARK  Name = Gluconolactone
REMARK  5 active torsions:
REMARK  status: ('A' for Active; 'I' for Inactive)
REMARK    1  A    between atoms: O_1  and  C_2
REMARK    2  A    between atoms: C_2  and  C_3
REMARK    3  A    between atoms: C_7  and  O_8
REMARK    4  A    between atoms: C_9  and  O_10
REMARK    5  A    between atoms: C_11  and  O_12
REMARK                            x       y       z     vdW  Elec       q    Type
REMARK                         _______ _______ _______ _____ _____    ______ ____
ROOT
ATOM      1  C   UNL     1     -12.269   8.104 129.411  0.00  0.00    +0.000 C 
ATOM      2  O   UNL     1     -11.030   8.226 128.688  0.00  0.00    +0.000 OA
ATOM      3  C   UNL     1     -10.430   7.041 128.370  0.00  0.00    +0.000 C 
ATOM      4  O   UNL     1     -10.107   6.743 127.223  0.00  0.00    +0.000 OA
ATOM      5  C   UNL     1     -10.145   6.161 129.590  0.00  0.00    +0.000 C 
ATOM      6  C   UNL     1     -11.458   5.935 130.331  0.00  0.00    +0.000 C 
ATOM      7  C   UNL     1     -12.087   7.275 130.679  0.00  0.00    +0.000 C 
ENDROOT
BRANCH   5   8
ATOM      8  O   UNL     1      -9.551   4.901 129.289  0.00  0.00    +0.000 OA
ATOM      9  H   UNL     1      -9.322   4.470 130.131  0.00  0.00    +0.000 HD
ENDBRANCH   5   8
BRANCH   6  10
ATOM     10  O   UNL     1     -11.261   5.177 131.527  0.00  0.00    +0.000 OA
ATOM     11  H   UNL     1     -10.582   5.623 132.064  0.00  0.00    +0.000 HD
ENDBRANCH   6  10
BRANCH   7  12
ATOM     12  O   UNL     1     -13.334   7.110 131.351  0.00  0.00    +0.000 OA
ATOM     13  H   UNL     1     -13.725   7.989 131.501  0.00  0.00    +0.000 HD
ENDBRANCH   7  12
BRANCH   1  14
ATOM     14  C   UNL     1     -12.880   9.445 129.857  0.00  0.00    +0.000 C 
BRANCH  14  15
ATOM     15  O   UNL     1     -13.173  10.314 128.782  0.00  0.00    +0.000 OA
ATOM     16  H   UNL     1     -12.341  10.421 128.286  0.00  0.00    +0.000 HD
ENDBRANCH  14  15
ENDBRANCH   1  14
TORSDOF 5
ENDMDL
MODEL 7
REMARK VINA RESULT:      -5.0      1.481      3.383
REMARK  Name = Gluconolactone
REMARK  5 active torsions:
REMARK  status: ('A' for Active; 'I' for Inactive)
REMARK    1  A    between atoms: O_1  and  C_2
REMARK    2  A    between atoms: C_2  and  C_3
REMARK    3  A    between atoms: C_7  and  O_8
REMARK    4  A    between atoms: C_9  and  O_10
REMARK    5  A    between atoms: C_11  and  O_12
REMARK                            x       y       z     vdW  Elec       q    Type
REMARK                         _______ _______ _______ _____ _____    ______ ____
ROOT
ATOM      1  C   UNL     1     -10.418   5.761 130.098  0.00  0.00    +0.000 C 
ATOM      2  O   UNL     1     -10.716   6.104 128.732  0.00  0.00    +0.000 OA
ATOM      3  C   UNL     1     -11.189   7.372 128.546  0.00  0.00    +0.000 C 
ATOM      4  O   UNL     1     -10.679   8.167 127.762  0.00  0.00    +0.000 OA
ATOM      5  C   UNL     1     -12.451   7.671 129.362  0.00  0.00    +0.000 C 
ATOM      6  C   UNL     1     -12.142   7.405 130.831  0.00  0.00    +0.000 C 
ATOM      7  C   UNL     1     -11.631   5.983 130.998  0.00  0.00    +0.000 C 
ENDROOT
BRANCH   5   8
ATOM      8  O   UNL     1     -12.950   8.998 129.218  0.00  0.00    +0.000 OA
ATOM      9  H   UNL     1     -12.211   9.566 128.937  0.00  0.00    +0.000 HD
ENDBRANCH   5   8
BRANCH   6  10
ATOM     10  O   UNL     1     -13.297   7.596 131.652  0.00  0.00    +0.000 OA
ATOM     11  H   UNL     1     -13.079   8.246 132.343  0.00  0.00    +0.000 HD
ENDBRANCH   6  10
BRANCH   7  12
ATOM     12  O   UNL     1     -11.303   5.700 132.356  0.00  0.00    +0.000 OA
ATOM     13  H   UNL     1     -10.751   4.898 132.382  0.00  0.00    +0.000 HD
ENDBRANCH   7  12
BRANCH   1  14
ATOM     14  C   UNL     1      -9.988   4.298 130.307  0.00  0.00    +0.000 C 
BRANCH  14  15
ATOM     15  O   UNL     1     -11.056   3.442 130.657  0.00  0.00    +0.000 OA
ATOM     16  H   UNL     1     -11.385   3.065 129.820  0.00  0.00    +0.000 HD
ENDBRANCH  14  15
ENDBRANCH   1  14
TORSDOF 5
ENDMDL
MODEL 8
REMARK VINA RESULT:      -4.9      1.337      3.555
REMARK  Name = Gluconolactone
REMARK  5 active torsions:
REMARK  status: ('A' for Active; 'I' for Inactive)
REMARK    1  A    between atoms: O_1  and  C_2
REMARK    2  A    between atoms: C_2  and  C_3
REMARK    3  A    between atoms: C_7  and  O_8
REMARK    4  A    between atoms: C_9  and  O_10
REMARK    5  A    between atoms: C_11  and  O_12
REMARK                            x       y       z     vdW  Elec       q    Type
REMARK                         _______ _______ _______ _____ _____    ______ ____
ROOT
ATOM      1  C   UNL     1     -11.875   6.844 130.424  0.00  0.00    +0.000 C 
ATOM      2  O   UNL     1     -12.051   8.249 130.165  0.00  0.00    +0.000 OA
ATOM      3  C   UNL     1     -12.105   8.588 128.842  0.00  0.00    +0.000 C 
ATOM      4  O   UNL     1     -13.031   9.231 128.355  0.00  0.00    +0.000 OA
ATOM      5  C   UNL     1     -10.869   8.145 128.054  0.00  0.00    +0.000 C 
ATOM      6  C   UNL     1     -10.705   6.639 128.233  0.00  0.00    +0.000 C 
ATOM      7  C   UNL     1     -10.636   6.305 129.714  0.00  0.00    +0.000 C 
ENDROOT
BRANCH   5   8
ATOM      8  O   UNL     1     -10.910   8.452 126.663  0.00  0.00    +0.000 OA
ATOM      9  H   UNL     1     -10.039   8.807 126.411  0.00  0.00    +0.000 HD
ENDBRANCH   5   8
BRANCH   6  10
ATOM     10  O   UNL     1      -9.526   6.160 127.581  0.00  0.00    +0.000 OA
ATOM     11  H   UNL     1      -9.089   5.520 128.170  0.00  0.00    +0.000 HD
ENDBRANCH   6  10
BRANCH   7  12
ATOM     12  O   UNL     1     -10.510   4.900 129.929  0.00  0.00    +0.000 OA
ATOM     13  H   UNL     1      -9.863   4.545 129.293  0.00  0.00    +0.000 HD
ENDBRANCH   7  12
BRANCH   1  14
ATOM     14  C   UNL     1     -11.709   6.488 131.913  0.00  0.00    +0.000 C 
BRANCH  14  15
ATOM     15  O   UNL     1     -10.367   6.528 132.354  0.00  0.00    +0.000 OA
ATOM     16  H   UNL     1     -10.300   5.873 133.073  0.00  0.00    +0.000 HD
ENDBRANCH  14  15
ENDBRANCH   1  14
TORSDOF 5
ENDMDL
MODEL 9
REMARK VINA RESULT:      -4.9      1.405      3.103
REMARK  Name = Gluconolactone
REMARK  5 active torsions:
REMARK  status: ('A' for Active; 'I' for Inactive)
REMARK    1  A    between atoms: O_1  and  C_2
REMARK    2  A    between atoms: C_2  and  C_3
REMARK    3  A    between atoms: C_7  and  O_8
REMARK    4  A    between atoms: C_9  and  O_10
REMARK    5  A    between atoms: C_11  and  O_12
REMARK                            x       y       z     vdW  Elec       q    Type
REMARK                         _______ _______ _______ _____ _____    ______ ____
ROOT
ATOM      1  C   UNL     1     -10.682   5.800 129.833  0.00  0.00    +0.000 C 
ATOM      2  O   UNL     1     -11.256   6.425 130.997  0.00  0.00    +0.000 OA
ATOM      3  C   UNL     1     -12.298   7.270 130.741  0.00  0.00    +0.000 C 
ATOM      4  O   UNL     1     -13.394   7.162 131.284  0.00  0.00    +0.000 OA
ATOM      5  C   UNL     1     -11.939   8.395 129.766  0.00  0.00    +0.000 C 
ATOM      6  C   UNL     1     -11.412   7.763 128.482  0.00  0.00    +0.000 C 
ATOM      7  C   UNL     1     -10.246   6.842 128.807  0.00  0.00    +0.000 C 
ENDROOT
BRANCH   5   8
ATOM      8  O   UNL     1     -13.015   9.274 129.450  0.00  0.00    +0.000 OA
ATOM      9  H   UNL     1     -13.845   8.769 129.526  0.00  0.00    +0.000 HD
ENDBRANCH   5   8
BRANCH   6  10
ATOM     10  O   UNL     1     -10.987   8.756 127.546  0.00  0.00    +0.000 OA
ATOM     11  H   UNL     1     -10.125   8.486 127.183  0.00  0.00    +0.000 HD
ENDBRANCH   6  10
BRANCH   7  12
ATOM     12  O   UNL     1      -9.739   6.206 127.636  0.00  0.00    +0.000 OA
ATOM     13  H   UNL     1     -10.414   5.590 127.299  0.00  0.00    +0.000 HD
ENDBRANCH   7  12
BRANCH   1  14
ATOM     14  C   UNL     1      -9.442   4.935 130.123  0.00  0.00    +0.000 C 
BRANCH  14  15
ATOM     15  O   UNL     1      -9.339   3.801 129.286  0.00  0.00    +0.000 OA
ATOM     16  H   UNL     1      -9.241   4.144 128.379  0.00  0.00    +0.000 HD
ENDBRANCH  14  15
ENDBRANCH   1  14
TORSDOF 5
ENDMDL
