MODEL 1
REMARK VINA RESULT:      -6.7      0.000      0.000
REMARK  Name = Glutethimide
REMARK  3 active torsions:
REMARK  status: ('A' for Active; 'I' for Inactive)
REMARK    1  A    between atoms: C_1  and  C_2
REMARK    2  A    between atoms: C_2  and  C_3
REMARK    3  A    between atoms: C_3  and  C_11
REMARK                            x       y       z     vdW  Elec       q    Type
REMARK                         _______ _______ _______ _____ _____    ______ ____
ROOT
ATOM      1  C   UNL     1      -8.176  -2.008 125.122  0.00  0.00    +0.000 C 
ATOM      2  C   UNL     1      -8.623  -0.568 125.563  0.00  0.00    +0.000 C 
ATOM      3  C   UNL     1      -9.082   0.368 124.515  0.00  0.00    +0.000 C 
ATOM      4  C   UNL     1      -7.901   0.644 123.675  0.00  0.00    +0.000 C 
ATOM      5  O   UNL     1      -7.689   1.761 123.187  0.00  0.00    +0.000 OA
ATOM      6  N   UNL     1      -7.056  -0.428 123.495  0.00  0.00    +0.000 N 
ATOM      7  C   UNL     1      -6.986  -1.652 124.186  0.00  0.00    +0.000 C 
ATOM      8  O   UNL     1      -6.099  -2.430 123.830  0.00  0.00    +0.000 OA
ATOM      9  H   UNL     1      -6.308  -0.255 122.836  0.00  0.00    +0.000 HD
ENDROOT
BRANCH   1  10
ATOM     10  C   UNL     1      -8.379  -2.485 126.574  0.00  0.00    +0.000 A 
ATOM     11  C   UNL     1      -8.949  -3.664 126.983  0.00  0.00    +0.000 A 
ATOM     12  C   UNL     1      -8.925  -3.945 128.353  0.00  0.00    +0.000 A 
ATOM     13  C   UNL     1      -8.212  -3.152 129.276  0.00  0.00    +0.000 A 
ATOM     14  C   UNL     1      -7.615  -1.975 128.883  0.00  0.00    +0.000 A 
ATOM     15  C   UNL     1      -7.806  -1.598 127.577  0.00  0.00    +0.000 A 
ENDBRANCH   1  10
BRANCH   1  17
ATOM     16  C   UNL     1      -9.603  -3.377 123.361  0.00  0.00    +0.000 C 
ATOM     17  C   UNL     1      -8.609  -3.382 124.479  0.00  0.00    +0.000 C 
ENDBRANCH   1  17
TORSDOF 2
ENDMDL
MODEL 2
REMARK VINA RESULT:      -6.6      1.524      2.567
REMARK  Name = Glutethimide
REMARK  3 active torsions:
REMARK  status: ('A' for Active; 'I' for Inactive)
REMARK    1  A    between atoms: C_1  and  C_2
REMARK    2  A    between atoms: C_2  and  C_3
REMARK    3  A    between atoms: C_3  and  C_11
REMARK                            x       y       z     vdW  Elec       q    Type
REMARK                         _______ _______ _______ _____ _____    ______ ____
ROOT
ATOM      1  C   UNL     1      -8.272  -1.705 125.261  0.00  0.00    +0.000 C 
ATOM      2  C   UNL     1      -6.804  -2.262 125.210  0.00  0.00    +0.000 C 
ATOM      3  C   UNL     1      -5.854  -1.632 124.268  0.00  0.00    +0.000 C 
ATOM      4  C   UNL     1      -6.360  -1.943 122.918  0.00  0.00    +0.000 C 
ATOM      5  O   UNL     1      -5.601  -2.185 121.972  0.00  0.00    +0.000 OA
ATOM      6  N   UNL     1      -7.733  -1.955 122.803  0.00  0.00    +0.000 N 
ATOM      7  C   UNL     1      -8.725  -1.988 123.801  0.00  0.00    +0.000 C 
ATOM      8  O   UNL     1      -9.892  -2.024 123.409  0.00  0.00    +0.000 OA
ATOM      9  H   UNL     1      -8.064  -2.066 121.854  0.00  0.00    +0.000 HD
ENDROOT
BRANCH   1  10
ATOM     10  C   UNL     1      -8.439  -2.353 126.651  0.00  0.00    +0.000 A 
ATOM     11  C   UNL     1      -9.028  -3.559 126.933  0.00  0.00    +0.000 A 
ATOM     12  C   UNL     1      -8.965  -4.008 128.257  0.00  0.00    +0.000 A 
ATOM     13  C   UNL     1      -8.199  -3.351 129.243  0.00  0.00    +0.000 A 
ATOM     14  C   UNL     1      -7.583  -2.149 128.975  0.00  0.00    +0.000 A 
ATOM     15  C   UNL     1      -7.807  -1.610 127.733  0.00  0.00    +0.000 A 
ENDBRANCH   1  10
BRANCH   1  17
ATOM     16  C   UNL     1      -8.790   0.888 125.122  0.00  0.00    +0.000 C 
ATOM     17  C   UNL     1      -9.201  -0.473 125.587  0.00  0.00    +0.000 C 
ENDBRANCH   1  17
TORSDOF 2
ENDMDL
MODEL 3
REMARK VINA RESULT:      -6.6      1.557      2.421
REMARK  Name = Glutethimide
REMARK  3 active torsions:
REMARK  status: ('A' for Active; 'I' for Inactive)
REMARK    1  A    between atoms: C_1  and  C_2
REMARK    2  A    between atoms: C_2  and  C_3
REMARK    3  A    between atoms: C_3  and  C_11
REMARK                            x       y       z     vdW  Elec       q    Type
REMARK                         _______ _______ _______ _____ _____    ______ ____
ROOT
ATOM      1  C   UNL     1      -7.355  -1.961 125.175  0.00  0.00    +0.000 C 
ATOM      2  C   UNL     1      -8.861  -2.338 124.939  0.00  0.00    +0.000 C 
ATOM      3  C   UNL     1      -9.345  -2.424 123.545  0.00  0.00    +0.000 C 
ATOM      4  C   UNL     1      -9.272  -1.053 123.008  0.00  0.00    +0.000 C 
ATOM      5  O   UNL     1     -10.123  -0.606 122.229  0.00  0.00    +0.000 OA
ATOM      6  N   UNL     1      -8.198  -0.314 123.451  0.00  0.00    +0.000 N 
ATOM      7  C   UNL     1      -7.319  -0.549 124.525  0.00  0.00    +0.000 C 
ATOM      8  O   UNL     1      -6.453   0.306 124.718  0.00  0.00    +0.000 OA
ATOM      9  H   UNL     1      -8.103   0.585 122.998  0.00  0.00    +0.000 HD
ENDROOT
BRANCH   1  10
ATOM     10  C   UNL     1      -7.456  -2.560 126.592  0.00  0.00    +0.000 A 
ATOM     11  C   UNL     1      -6.700  -2.222 127.687  0.00  0.00    +0.000 A 
ATOM     12  C   UNL     1      -7.043  -2.813 128.908  0.00  0.00    +0.000 A 
ATOM     13  C   UNL     1      -8.205  -3.595 129.070  0.00  0.00    +0.000 A 
ATOM     14  C   UNL     1      -8.989  -3.930 127.988  0.00  0.00    +0.000 A 
ATOM     15  C   UNL     1      -8.544  -3.514 126.758  0.00  0.00    +0.000 A 
ENDBRANCH   1  10
BRANCH   1  17
ATOM     16  C   UNL     1      -5.418  -2.932 123.652  0.00  0.00    +0.000 C 
ATOM     17  C   UNL     1      -5.846  -2.377 124.973  0.00  0.00    +0.000 C 
ENDBRANCH   1  17
TORSDOF 2
ENDMDL
MODEL 4
REMARK VINA RESULT:      -6.5      4.801      7.586
REMARK  Name = Glutethimide
REMARK  3 active torsions:
REMARK  status: ('A' for Active; 'I' for Inactive)
REMARK    1  A    between atoms: C_1  and  C_2
REMARK    2  A    between atoms: C_2  and  C_3
REMARK    3  A    between atoms: C_3  and  C_11
REMARK                            x       y       z     vdW  Elec       q    Type
REMARK                         _______ _______ _______ _____ _____    ______ ____
ROOT
ATOM      1  C   UNL     1      -7.128   3.344 123.843  0.00  0.00    +0.000 C 
ATOM      2  C   UNL     1      -5.776   4.144 123.871  0.00  0.00    +0.000 C 
ATOM      3  C   UNL     1      -4.898   3.984 125.050  0.00  0.00    +0.000 C 
ATOM      4  C   UNL     1      -5.638   4.569 126.184  0.00  0.00    +0.000 C 
ATOM      5  O   UNL     1      -5.069   5.200 127.084  0.00  0.00    +0.000 OA
ATOM      6  N   UNL     1      -7.000   4.370 126.151  0.00  0.00    +0.000 N 
ATOM      7  C   UNL     1      -7.828   3.944 125.096  0.00  0.00    +0.000 C 
ATOM      8  O   UNL     1      -9.034   3.883 125.339  0.00  0.00    +0.000 OA
ATOM      9  H   UNL     1      -7.481   4.685 126.983  0.00  0.00    +0.000 HD
ENDROOT
BRANCH   1  10
ATOM     10  C   UNL     1      -7.175   3.532 122.313  0.00  0.00    +0.000 A 
ATOM     11  C   UNL     1      -8.296   3.599 121.525  0.00  0.00    +0.000 A 
ATOM     12  C   UNL     1      -8.109   3.892 120.170  0.00  0.00    +0.000 A 
ATOM     13  C   UNL     1      -6.855   4.266 119.643  0.00  0.00    +0.000 A 
ATOM     14  C   UNL     1      -5.720   4.224 120.422  0.00  0.00    +0.000 A 
ATOM     15  C   UNL     1      -5.872   3.748 121.700  0.00  0.00    +0.000 A 
ENDBRANCH   1  10
BRANCH   1  17
ATOM     16  C   UNL     1      -6.960   0.705 123.719  0.00  0.00    +0.000 C 
ATOM     17  C   UNL     1      -7.818   1.926 123.815  0.00  0.00    +0.000 C 
ENDBRANCH   1  17
TORSDOF 2
ENDMDL
MODEL 5
REMARK VINA RESULT:      -6.4      3.130      4.146
REMARK  Name = Glutethimide
REMARK  3 active torsions:
REMARK  status: ('A' for Active; 'I' for Inactive)
REMARK    1  A    between atoms: C_1  and  C_2
REMARK    2  A    between atoms: C_2  and  C_3
REMARK    3  A    between atoms: C_3  and  C_11
REMARK                            x       y       z     vdW  Elec       q    Type
REMARK                         _______ _______ _______ _____ _____    ______ ____
ROOT
ATOM      1  C   UNL     1      -8.142   0.150 123.925  0.00  0.00    +0.000 C 
ATOM      2  C   UNL     1      -7.117   1.149 123.278  0.00  0.00    +0.000 C 
ATOM      3  C   UNL     1      -7.455   2.588 123.276  0.00  0.00    +0.000 C 
ATOM      4  C   UNL     1      -8.631   2.724 122.396  0.00  0.00    +0.000 C 
ATOM      5  O   UNL     1      -8.786   3.701 121.653  0.00  0.00    +0.000 OA
ATOM      6  N   UNL     1      -9.525   1.678 122.459  0.00  0.00    +0.000 N 
ATOM      7  C   UNL     1      -9.377   0.392 123.010  0.00  0.00    +0.000 C 
ATOM      8  O   UNL     1     -10.342  -0.365 122.898  0.00  0.00    +0.000 OA
ATOM      9  H   UNL     1     -10.374   1.832 121.931  0.00  0.00    +0.000 HD
ENDROOT
BRANCH   1  10
ATOM     10  C   UNL     1      -7.008  -0.886 124.056  0.00  0.00    +0.000 A 
ATOM     11  C   UNL     1      -6.512  -1.424 125.217  0.00  0.00    +0.000 A 
ATOM     12  C   UNL     1      -5.558  -2.439 125.095  0.00  0.00    +0.000 A 
ATOM     13  C   UNL     1      -5.220  -3.016 123.852  0.00  0.00    +0.000 A 
ATOM     14  C   UNL     1      -5.721  -2.503 122.676  0.00  0.00    +0.000 A 
ATOM     15  C   UNL     1      -6.505  -1.382 122.782  0.00  0.00    +0.000 A 
ENDBRANCH   1  10
BRANCH   1  17
ATOM     16  C   UNL     1      -9.402   0.732 126.180  0.00  0.00    +0.000 C 
ATOM     17  C   UNL     1      -8.881  -0.309 125.241  0.00  0.00    +0.000 C 
ENDBRANCH   1  17
TORSDOF 2
ENDMDL
MODEL 6
REMARK VINA RESULT:      -6.1      2.804      4.767
REMARK  Name = Glutethimide
REMARK  3 active torsions:
REMARK  status: ('A' for Active; 'I' for Inactive)
REMARK    1  A    between atoms: C_1  and  C_2
REMARK    2  A    between atoms: C_2  and  C_3
REMARK    3  A    between atoms: C_3  and  C_11
REMARK                            x       y       z     vdW  Elec       q    Type
REMARK                         _______ _______ _______ _____ _____    ______ ____
ROOT
ATOM      1  C   UNL     1      -7.647  -1.456 123.957  0.00  0.00    +0.000 C 
ATOM      2  C   UNL     1      -6.480  -1.256 122.924  0.00  0.00    +0.000 C 
ATOM      3  C   UNL     1      -5.804  -2.461 122.398  0.00  0.00    +0.000 C 
ATOM      4  C   UNL     1      -5.111  -3.069 123.549  0.00  0.00    +0.000 C 
ATOM      5  O   UNL     1      -4.004  -3.611 123.438  0.00  0.00    +0.000 OA
ATOM      6  N   UNL     1      -5.783  -2.971 124.747  0.00  0.00    +0.000 N 
ATOM      7  C   UNL     1      -6.878  -2.164 125.108  0.00  0.00    +0.000 C 
ATOM      8  O   UNL     1      -7.264  -2.258 126.274  0.00  0.00    +0.000 OA
ATOM      9  H   UNL     1      -5.348  -3.481 125.505  0.00  0.00    +0.000 HD
ENDROOT
BRANCH   1  10
ATOM     10  C   UNL     1      -8.145  -0.035 123.626  0.00  0.00    +0.000 A 
ATOM     11  C   UNL     1      -9.449   0.388 123.560  0.00  0.00    +0.000 A 
ATOM     12  C   UNL     1      -9.669   1.755 123.358  0.00  0.00    +0.000 A 
ATOM     13  C   UNL     1      -8.623   2.701 123.379  0.00  0.00    +0.000 A 
ATOM     14  C   UNL     1      -7.309   2.300 123.464  0.00  0.00    +0.000 A 
ATOM     15  C   UNL     1      -7.080   0.947 123.465  0.00  0.00    +0.000 A 
ENDBRANCH   1  10
BRANCH   1  17
ATOM     16  C   UNL     1      -9.497  -3.302 123.530  0.00  0.00    +0.000 C 
ATOM     17  C   UNL     1      -9.091  -2.036 124.214  0.00  0.00    +0.000 C 
ENDBRANCH   1  17
TORSDOF 2
ENDMDL
MODEL 7
REMARK VINA RESULT:      -6.1      1.624      2.364
REMARK  Name = Glutethimide
REMARK  3 active torsions:
REMARK  status: ('A' for Active; 'I' for Inactive)
REMARK    1  A    between atoms: C_1  and  C_2
REMARK    2  A    between atoms: C_2  and  C_3
REMARK    3  A    between atoms: C_3  and  C_11
REMARK                            x       y       z     vdW  Elec       q    Type
REMARK                         _______ _______ _______ _____ _____    ______ ____
ROOT
ATOM      1  C   UNL     1      -7.874  -1.294 125.599  0.00  0.00    +0.000 C 
ATOM      2  C   UNL     1      -9.083  -2.054 124.944  0.00  0.00    +0.000 C 
ATOM      3  C   UNL     1      -9.188  -2.051 123.469  0.00  0.00    +0.000 C 
ATOM      4  C   UNL     1      -9.448  -0.650 123.087  0.00  0.00    +0.000 C 
ATOM      5  O   UNL     1     -10.201  -0.354 122.152  0.00  0.00    +0.000 OA
ATOM      6  N   UNL     1      -8.800   0.289 123.858  0.00  0.00    +0.000 N 
ATOM      7  C   UNL     1      -8.156   0.152 125.102  0.00  0.00    +0.000 C 
ATOM      8  O   UNL     1      -7.680   1.181 125.586  0.00  0.00    +0.000 OA
ATOM      9  H   UNL     1      -8.904   1.238 123.522  0.00  0.00    +0.000 HD
ENDROOT
BRANCH   1  10
ATOM     10  C   UNL     1      -8.088  -2.118 126.884  0.00  0.00    +0.000 A 
ATOM     11  C   UNL     1      -8.770  -3.303 127.001  0.00  0.00    +0.000 A 
ATOM     12  C   UNL     1      -8.740  -3.939 128.246  0.00  0.00    +0.000 A 
ATOM     13  C   UNL     1      -7.921  -3.492 129.304  0.00  0.00    +0.000 A 
ATOM     14  C   UNL     1      -7.213  -2.316 129.202  0.00  0.00    +0.000 A 
ATOM     15  C   UNL     1      -7.396  -1.589 128.052  0.00  0.00    +0.000 A 
ENDBRANCH   1  10
BRANCH   1  17
ATOM     16  C   UNL     1      -5.433  -1.861 124.743  0.00  0.00    +0.000 C 
ATOM     17  C   UNL     1      -6.307  -1.210 125.767  0.00  0.00    +0.000 C 
ENDBRANCH   1  17
TORSDOF 2
ENDMDL
MODEL 8
REMARK VINA RESULT:      -6.1      8.263     10.024
REMARK  Name = Glutethimide
REMARK  3 active torsions:
REMARK  status: ('A' for Active; 'I' for Inactive)
REMARK    1  A    between atoms: C_1  and  C_2
REMARK    2  A    between atoms: C_2  and  C_3
REMARK    3  A    between atoms: C_3  and  C_11
REMARK                            x       y       z     vdW  Elec       q    Type
REMARK                         _______ _______ _______ _____ _____    ______ ____
ROOT
ATOM      1  C   UNL     1      -9.302   5.596 130.723  0.00  0.00    +0.000 C 
ATOM      2  C   UNL     1     -10.346   4.475 130.373  0.00  0.00    +0.000 C 
ATOM      3  C   UNL     1     -10.078   3.102 130.853  0.00  0.00    +0.000 C 
ATOM      4  C   UNL     1      -8.873   2.652 130.131  0.00  0.00    +0.000 C 
ATOM      5  O   UNL     1      -8.734   1.483 129.751  0.00  0.00    +0.000 OA
ATOM      6  N   UNL     1      -7.933   3.633 129.906  0.00  0.00    +0.000 N 
ATOM      7  C   UNL     1      -8.043   5.032 130.006  0.00  0.00    +0.000 C 
ATOM      8  O   UNL     1      -7.037   5.681 129.711  0.00  0.00    +0.000 OA
ATOM      9  H   UNL     1      -7.071   3.290 129.504  0.00  0.00    +0.000 HD
ENDROOT
BRANCH   1  10
ATOM     10  C   UNL     1     -10.389   6.654 130.450  0.00  0.00    +0.000 A 
ATOM     11  C   UNL     1     -10.450   7.520 129.386  0.00  0.00    +0.000 A 
ATOM     12  C   UNL     1     -11.593   8.319 129.276  0.00  0.00    +0.000 A 
ATOM     13  C   UNL     1     -12.718   8.150 130.111  0.00  0.00    +0.000 A 
ATOM     14  C   UNL     1     -12.685   7.273 131.172  0.00  0.00    +0.000 A 
ATOM     15  C   UNL     1     -11.494   6.631 131.399  0.00  0.00    +0.000 A 
ENDBRANCH   1  10
BRANCH   1  17
ATOM     16  C   UNL     1      -8.250   5.753 133.148  0.00  0.00    +0.000 C 
ATOM     17  C   UNL     1      -8.600   6.432 131.861  0.00  0.00    +0.000 C 
ENDBRANCH   1  17
TORSDOF 2
ENDMDL
MODEL 9
REMARK VINA RESULT:      -6.1      2.349      3.815
REMARK  Name = Glutethimide
REMARK  3 active torsions:
REMARK  status: ('A' for Active; 'I' for Inactive)
REMARK    1  A    between atoms: C_1  and  C_2
REMARK    2  A    between atoms: C_2  and  C_3
REMARK    3  A    between atoms: C_3  and  C_11
REMARK                            x       y       z     vdW  Elec       q    Type
REMARK                         _______ _______ _______ _____ _____    ______ ____
ROOT
ATOM      1  C   UNL     1      -8.174  -1.131 124.408  0.00  0.00    +0.000 C 
ATOM      2  C   UNL     1      -7.367   0.043 125.071  0.00  0.00    +0.000 C 
ATOM      3  C   UNL     1      -8.102   0.985 125.942  0.00  0.00    +0.000 C 
ATOM      4  C   UNL     1      -9.040   1.702 125.057  0.00  0.00    +0.000 C 
ATOM      5  O   UNL     1      -9.304   2.901 125.213  0.00  0.00    +0.000 OA
ATOM      6  N   UNL     1      -9.580   0.939 124.046  0.00  0.00    +0.000 N 
ATOM      7  C   UNL     1      -9.189  -0.320 123.554  0.00  0.00    +0.000 C 
ATOM      8  O   UNL     1      -9.841  -0.762 122.607  0.00  0.00    +0.000 OA
ATOM      9  H   UNL     1     -10.297   1.413 123.512  0.00  0.00    +0.000 HD
ENDROOT
BRANCH   1  10
ATOM     10  C   UNL     1      -6.845  -1.882 124.188  0.00  0.00    +0.000 A 
ATOM     11  C   UNL     1      -6.157  -2.628 125.112  0.00  0.00    +0.000 A 
ATOM     12  C   UNL     1      -5.028  -3.322 124.661  0.00  0.00    +0.000 A 
ATOM     13  C   UNL     1      -4.684  -3.401 123.296  0.00  0.00    +0.000 A 
ATOM     14  C   UNL     1      -5.374  -2.676 122.350  0.00  0.00    +0.000 A 
ATOM     15  C   UNL     1      -6.358  -1.841 122.816  0.00  0.00    +0.000 A 
ENDBRANCH   1  10
BRANCH   1  17
ATOM     16  C   UNL     1      -9.508  -2.755 126.018  0.00  0.00    +0.000 C 
ATOM     17  C   UNL     1      -9.019  -2.442 124.640  0.00  0.00    +0.000 C 
ENDBRANCH   1  17
TORSDOF 2
ENDMDL
