MODEL 1
REMARK VINA RESULT:      -6.3      0.000      0.000
REMARK  Name = Glutathione disulfide
REMARK  27 active torsions:
REMARK  status: ('A' for Active; 'I' for Inactive)
REMARK    1  A    between atoms: N_1  and  C_2
REMARK    2  A    between atoms: C_2  and  C_3
REMARK    3  A    between atoms: C_2  and  C_38
REMARK    4  A    between atoms: C_3  and  C_4
REMARK    5  A    between atoms: C_4  and  C_5
REMARK    6  A    between atoms: N_7  and  C_8
REMARK    7  A    between atoms: C_8  and  C_9
REMARK    8  A    between atoms: C_8  and  C_31
REMARK    9  A    between atoms: C_9  and  S_10
REMARK   10  A    between atoms: S_10  and  S_11
REMARK   11  A    between atoms: S_11  and  C_12
REMARK   12  A    between atoms: C_12  and  C_13
REMARK   13  A    between atoms: C_13  and  N_14
REMARK   14  A    between atoms: C_13  and  C_24
REMARK   15  A    between atoms: C_15  and  C_17
REMARK   16  A    between atoms: C_17  and  C_18
REMARK   17  A    between atoms: C_18  and  C_19
REMARK   18  A    between atoms: C_19  and  N_20
REMARK   19  A    between atoms: C_19  and  C_21
REMARK   20  A    between atoms: C_21  and  O_22
REMARK   21  A    between atoms: N_26  and  CA_27
REMARK   22  A    between atoms: CA_27  and  C_28
REMARK   23  A    between atoms: C_28  and  O_29
REMARK   24  A    between atoms: N_33  and  CA_34
REMARK   25  A    between atoms: CA_34  and  C_35
REMARK   26  A    between atoms: C_35  and  O_36
REMARK   27  A    between atoms: C_38  and  O_39
REMARK                            x       y       z     vdW  Elec       q    Type
REMARK                         _______ _______ _______ _____ _____    ______ ____
ROOT
ATOM      1  S   UNK A   1      -9.638   1.769 131.956  0.00  0.00    +0.000 S 
ENDROOT
BRANCH   1   2
ATOM      2  S   UNK A   1      -7.806   1.067 131.404  0.00  0.00    +0.000 S 
BRANCH   2   3
ATOM      3  C   UNK A   1      -7.926   1.035 129.543  0.00  0.00    +0.000 C 
BRANCH   3   4
ATOM      4  C   UNK A   1      -6.596   0.739 128.803  0.00  0.00    +0.000 C 
BRANCH   4   5
ATOM      5  C   UNK A   1      -6.648  -0.619 128.023  0.00  0.00    +0.000 C 
ATOM      6  O   UNK A   1      -5.751  -1.011 127.281  0.00  0.00    +0.000 OA
ATOM      7  N   GLY A   2      -7.818  -1.344 128.216  0.00  0.00    +0.000 N 
ATOM      8  H   GLY A   2      -8.560  -0.820 128.649  0.00  0.00    +0.000 HD
BRANCH   7   9
ATOM      9  CA  GLY A   2      -8.126  -2.546 127.449  0.00  0.00    +0.000 C 
BRANCH   9  10
ATOM     10  C   GLY A   2      -8.590  -2.385 125.992  0.00  0.00    +0.000 C 
ATOM     11  OXT GLY A   2      -9.774  -2.344 125.679  0.00  0.00    +0.000 OA
BRANCH  10  12
ATOM     12  O   GLY A   2      -7.634  -2.336 125.040  0.00  0.00    +0.000 OA
ATOM     13  H   GLY A   2      -6.929  -3.001 125.075  0.00  0.00    +0.000 HD
ENDBRANCH  10  12
ENDBRANCH   9  10
ENDBRANCH   7   9
ENDBRANCH   4   5
BRANCH   4  14
ATOM     14  N   UNK A   1      -6.231   1.857 127.896  0.00  0.00    +0.000 N 
ATOM     15  C   UNK A   1      -4.926   2.317 127.850  0.00  0.00    +0.000 C 
ATOM     16  O   UNK A   1      -4.074   1.903 128.633  0.00  0.00    +0.000 OA
ATOM     17  H   UNK A   1      -6.837   2.063 127.110  0.00  0.00    +0.000 HD
BRANCH  15  18
ATOM     18  C   UNK A   1      -4.622   3.376 126.785  0.00  0.00    +0.000 C 
BRANCH  18  19
ATOM     19  C   UNK A   1      -5.621   4.550 126.880  0.00  0.00    +0.000 C 
BRANCH  19  20
ATOM     20  C   UNK A   1      -6.623   4.616 125.712  0.00  0.00    +0.000 C 
BRANCH  20  21
ATOM     21  N   UNK A   1      -6.347   5.808 124.883  0.00  0.00    +0.000 NA
ATOM     22  H   UNK A   1      -5.366   5.909 124.643  0.00  0.00    +0.000 HD
ATOM     23  H   UNK A   1      -6.769   6.655 125.255  0.00  0.00    +0.000 HD
ENDBRANCH  20  21
BRANCH  20  24
ATOM     24  C   UNK A   1      -8.066   4.631 126.255  0.00  0.00    +0.000 C 
ATOM     25  O   UNK A   1      -8.879   5.511 125.985  0.00  0.00    +0.000 OA
BRANCH  24  26
ATOM     26  O   UNK A   1      -8.393   3.594 127.062  0.00  0.00    +0.000 OA
ATOM     27  H   UNK A   1      -9.021   3.848 127.762  0.00  0.00    +0.000 HD
ENDBRANCH  24  26
ENDBRANCH  20  24
ENDBRANCH  19  20
ENDBRANCH  18  19
ENDBRANCH  15  18
ENDBRANCH   4  14
ENDBRANCH   3   4
ENDBRANCH   2   3
ENDBRANCH   1   2
BRANCH   1  28
ATOM     28  C   UNK A   1     -10.121   3.039 130.710  0.00  0.00    +0.000 C 
BRANCH  28  29
ATOM     29  C   UNK A   1      -9.849   4.504 131.153  0.00  0.00    +0.000 C 
BRANCH  29  32
ATOM     30  C   UNK A   1     -11.391   6.404 131.680  0.00  0.00    +0.000 C 
ATOM     31  O   UNK A   1     -10.752   6.723 132.678  0.00  0.00    +0.000 OA
ATOM     32  N   UNK A   1     -10.987   5.398 130.830  0.00  0.00    +0.000 N 
ATOM     33  H   UNK A   1     -11.321   5.384 129.868  0.00  0.00    +0.000 HD
BRANCH  30  34
ATOM     34  C   UNK A   1     -12.650   7.159 131.307  0.00  0.00    +0.000 C 
BRANCH  34  35
ATOM     35  C   UNK A   1     -12.764   7.253 129.769  0.00  0.00    +0.000 C 
BRANCH  35  36
ATOM     36  C   UNK A   1     -11.898   8.343 129.132  0.00  0.00    +0.000 C 
BRANCH  36  37
ATOM     37  N   UNK A   1     -12.743   9.485 128.684  0.00  0.00    +0.000 NA
ATOM     38  H   UNK A   1     -13.710   9.266 128.944  0.00  0.00    +0.000 HD
ATOM     39  H   UNK A   1     -12.769   9.491 127.660  0.00  0.00    +0.000 HD
ENDBRANCH  36  37
BRANCH  36  40
ATOM     40  C   UNK A   1     -11.120   7.767 127.931  0.00  0.00    +0.000 C 
ATOM     41  O   UNK A   1     -10.744   8.431 126.972  0.00  0.00    +0.000 OA
BRANCH  40  42
ATOM     42  O   UNK A   1     -10.873   6.437 128.037  0.00  0.00    +0.000 OA
ATOM     43  H   UNK A   1      -9.904   6.311 128.151  0.00  0.00    +0.000 HD
ENDBRANCH  40  42
ENDBRANCH  36  40
ENDBRANCH  35  36
ENDBRANCH  34  35
ENDBRANCH  30  34
ENDBRANCH  29  32
BRANCH  29  44
ATOM     44  C   UNK A   1      -8.544   5.023 130.452  0.00  0.00    +0.000 C 
ATOM     45  O   UNK A   1      -8.577   5.610 129.372  0.00  0.00    +0.000 OA
ATOM     46  N   GLY A   2      -7.356   4.796 131.135  0.00  0.00    +0.000 N 
ATOM     47  H   GLY A   2      -7.417   4.401 132.056  0.00  0.00    +0.000 HD
BRANCH  46  48
ATOM     48  CA  GLY A   2      -6.052   5.216 130.590  0.00  0.00    +0.000 C 
BRANCH  48  49
ATOM     49  C   GLY A   2      -5.432   6.537 131.071  0.00  0.00    +0.000 C 
ATOM     50  OXT GLY A   2      -4.836   6.638 132.137  0.00  0.00    +0.000 OA
BRANCH  49  51
ATOM     51  O   GLY A   2      -5.564   7.606 130.259  0.00  0.00    +0.000 OA
ATOM     52  H   GLY A   2      -5.537   8.488 130.654  0.00  0.00    +0.000 HD
ENDBRANCH  49  51
ENDBRANCH  48  49
ENDBRANCH  46  48
ENDBRANCH  29  44
ENDBRANCH  28  29
ENDBRANCH   1  28
TORSDOF 27
ENDMDL
MODEL 2
REMARK VINA RESULT:      -6.2      2.770      4.896
REMARK  Name = Glutathione disulfide
REMARK  27 active torsions:
REMARK  status: ('A' for Active; 'I' for Inactive)
REMARK    1  A    between atoms: N_1  and  C_2
REMARK    2  A    between atoms: C_2  and  C_3
REMARK    3  A    between atoms: C_2  and  C_38
REMARK    4  A    between atoms: C_3  and  C_4
REMARK    5  A    between atoms: C_4  and  C_5
REMARK    6  A    between atoms: N_7  and  C_8
REMARK    7  A    between atoms: C_8  and  C_9
REMARK    8  A    between atoms: C_8  and  C_31
REMARK    9  A    between atoms: C_9  and  S_10
REMARK   10  A    between atoms: S_10  and  S_11
REMARK   11  A    between atoms: S_11  and  C_12
REMARK   12  A    between atoms: C_12  and  C_13
REMARK   13  A    between atoms: C_13  and  N_14
REMARK   14  A    between atoms: C_13  and  C_24
REMARK   15  A    between atoms: C_15  and  C_17
REMARK   16  A    between atoms: C_17  and  C_18
REMARK   17  A    between atoms: C_18  and  C_19
REMARK   18  A    between atoms: C_19  and  N_20
REMARK   19  A    between atoms: C_19  and  C_21
REMARK   20  A    between atoms: C_21  and  O_22
REMARK   21  A    between atoms: N_26  and  CA_27
REMARK   22  A    between atoms: CA_27  and  C_28
REMARK   23  A    between atoms: C_28  and  O_29
REMARK   24  A    between atoms: N_33  and  CA_34
REMARK   25  A    between atoms: CA_34  and  C_35
REMARK   26  A    between atoms: C_35  and  O_36
REMARK   27  A    between atoms: C_38  and  O_39
REMARK                            x       y       z     vdW  Elec       q    Type
REMARK                         _______ _______ _______ _____ _____    ______ ____
ROOT
ATOM      1  S   UNK A   1      -8.620   3.965 129.612  0.00  0.00    +0.000 S 
ENDROOT
BRANCH   1   2
ATOM      2  S   UNK A   1      -7.515   2.261 129.780  0.00  0.00    +0.000 S 
BRANCH   2   3
ATOM      3  C   UNK A   1      -6.000   2.657 128.768  0.00  0.00    +0.000 C 
BRANCH   3   4
ATOM      4  C   UNK A   1      -6.125   3.905 127.857  0.00  0.00    +0.000 C 
BRANCH   4   5
ATOM      5  C   UNK A   1      -5.026   4.976 128.174  0.00  0.00    +0.000 C 
ATOM      6  O   UNK A   1      -4.659   5.832 127.374  0.00  0.00    +0.000 OA
ATOM      7  N   GLY A   2      -4.469   4.863 129.443  0.00  0.00    +0.000 N 
ATOM      8  H   GLY A   2      -4.678   3.997 129.909  0.00  0.00    +0.000 HD
BRANCH   7   9
ATOM      9  CA  GLY A   2      -3.318   5.656 129.863  0.00  0.00    +0.000 C 
BRANCH   9  10
ATOM     10  C   GLY A   2      -3.548   7.119 130.274  0.00  0.00    +0.000 C 
ATOM     11  OXT GLY A   2      -3.735   7.455 131.438  0.00  0.00    +0.000 OA
BRANCH  10  12
ATOM     12  O   GLY A   2      -3.588   8.041 129.287  0.00  0.00    +0.000 OA
ATOM     13  H   GLY A   2      -4.423   8.152 128.807  0.00  0.00    +0.000 HD
ENDBRANCH  10  12
ENDBRANCH   9  10
ENDBRANCH   7   9
ENDBRANCH   4   5
BRANCH   4  14
ATOM     14  N   UNK A   1      -6.093   3.523 126.423  0.00  0.00    +0.000 N 
ATOM     15  C   UNK A   1      -6.886   4.193 125.507  0.00  0.00    +0.000 C 
ATOM     16  O   UNK A   1      -7.715   5.026 125.867  0.00  0.00    +0.000 OA
ATOM     17  H   UNK A   1      -5.291   3.011 126.073  0.00  0.00    +0.000 HD
BRANCH  15  18
ATOM     18  C   UNK A   1      -6.679   3.820 124.035  0.00  0.00    +0.000 C 
BRANCH  18  19
ATOM     19  C   UNK A   1      -7.137   2.369 123.769  0.00  0.00    +0.000 C 
BRANCH  19  20
ATOM     20  C   UNK A   1      -8.347   2.257 122.823  0.00  0.00    +0.000 C 
BRANCH  20  21
ATOM     21  N   UNK A   1      -8.586   3.556 122.160  0.00  0.00    +0.000 NA
ATOM     22  H   UNK A   1      -9.008   4.246 122.774  0.00  0.00    +0.000 HD
ATOM     23  H   UNK A   1      -9.055   3.462 121.264  0.00  0.00    +0.000 HD
ENDBRANCH  20  21
BRANCH  20  24
ATOM     24  C   UNK A   1      -9.590   1.792 123.609  0.00  0.00    +0.000 C 
ATOM     25  O   UNK A   1     -10.340   0.902 123.219  0.00  0.00    +0.000 OA
BRANCH  24  26
ATOM     26  O   UNK A   1      -9.809   2.435 124.781  0.00  0.00    +0.000 OA
ATOM     27  H   UNK A   1      -9.299   3.261 124.856  0.00  0.00    +0.000 HD
ENDBRANCH  24  26
ENDBRANCH  20  24
ENDBRANCH  19  20
ENDBRANCH  18  19
ENDBRANCH  15  18
ENDBRANCH   4  14
ENDBRANCH   3   4
ENDBRANCH   2   3
ENDBRANCH   1   2
BRANCH   1  28
ATOM     28  C   UNK A   1     -10.083   3.765 130.717  0.00  0.00    +0.000 C 
BRANCH  28  29
ATOM     29  C   UNK A   1     -10.546   5.079 131.406  0.00  0.00    +0.000 C 
BRANCH  29  32
ATOM     30  C   UNK A   1     -12.289   6.765 130.783  0.00  0.00    +0.000 C 
ATOM     31  O   UNK A   1     -12.715   6.837 131.933  0.00  0.00    +0.000 OA
ATOM     32  N   UNK A   1     -11.190   6.008 130.444  0.00  0.00    +0.000 N 
ATOM     33  H   UNK A   1     -10.666   6.227 129.600  0.00  0.00    +0.000 HD
BRANCH  30  34
ATOM     34  C   UNK A   1     -12.942   7.569 129.677  0.00  0.00    +0.000 C 
BRANCH  34  35
ATOM     35  C   UNK A   1     -12.871   6.779 128.351  0.00  0.00    +0.000 C 
BRANCH  35  36
ATOM     36  C   UNK A   1     -12.124   7.495 127.223  0.00  0.00    +0.000 C 
BRANCH  36  37
ATOM     37  N   UNK A   1     -12.290   6.761 125.938  0.00  0.00    +0.000 NA
ATOM     38  H   UNK A   1     -11.545   7.078 125.310  0.00  0.00    +0.000 HD
ATOM     39  H   UNK A   1     -13.143   7.095 125.478  0.00  0.00    +0.000 HD
ENDBRANCH  36  37
BRANCH  36  40
ATOM     40  C   UNK A   1     -10.624   7.606 127.570  0.00  0.00    +0.000 C 
ATOM     41  O   UNK A   1     -10.123   8.557 128.159  0.00  0.00    +0.000 OA
BRANCH  40  42
ATOM     42  O   UNK A   1      -9.897   6.535 127.167  0.00  0.00    +0.000 OA
ATOM     43  H   UNK A   1     -10.505   5.766 127.073  0.00  0.00    +0.000 HD
ENDBRANCH  40  42
ENDBRANCH  36  40
ENDBRANCH  35  36
ENDBRANCH  34  35
ENDBRANCH  30  34
ENDBRANCH  29  32
BRANCH  29  44
ATOM     44  C   UNK A   1      -9.312   5.776 132.078  0.00  0.00    +0.000 C 
ATOM     45  O   UNK A   1      -8.894   6.868 131.695  0.00  0.00    +0.000 OA
ATOM     46  N   GLY A   2      -8.733   5.095 133.141  0.00  0.00    +0.000 N 
ATOM     47  H   GLY A   2      -9.189   4.258 133.460  0.00  0.00    +0.000 HD
BRANCH  46  48
ATOM     48  CA  GLY A   2      -7.558   5.622 133.858  0.00  0.00    +0.000 C 
BRANCH  48  49
ATOM     49  C   GLY A   2      -6.167   5.476 133.221  0.00  0.00    +0.000 C 
ATOM     50  OXT GLY A   2      -5.142   5.379 133.886  0.00  0.00    +0.000 OA
BRANCH  49  51
ATOM     51  O   GLY A   2      -6.111   5.450 131.873  0.00  0.00    +0.000 OA
ATOM     52  H   GLY A   2      -6.504   4.697 131.412  0.00  0.00    +0.000 HD
ENDBRANCH  49  51
ENDBRANCH  48  49
ENDBRANCH  46  48
ENDBRANCH  29  44
ENDBRANCH  28  29
ENDBRANCH   1  28
TORSDOF 27
ENDMDL
MODEL 3
REMARK VINA RESULT:      -6.2      2.129      4.611
REMARK  Name = Glutathione disulfide
REMARK  27 active torsions:
REMARK  status: ('A' for Active; 'I' for Inactive)
REMARK    1  A    between atoms: N_1  and  C_2
REMARK    2  A    between atoms: C_2  and  C_3
REMARK    3  A    between atoms: C_2  and  C_38
REMARK    4  A    between atoms: C_3  and  C_4
REMARK    5  A    between atoms: C_4  and  C_5
REMARK    6  A    between atoms: N_7  and  C_8
REMARK    7  A    between atoms: C_8  and  C_9
REMARK    8  A    between atoms: C_8  and  C_31
REMARK    9  A    between atoms: C_9  and  S_10
REMARK   10  A    between atoms: S_10  and  S_11
REMARK   11  A    between atoms: S_11  and  C_12
REMARK   12  A    between atoms: C_12  and  C_13
REMARK   13  A    between atoms: C_13  and  N_14
REMARK   14  A    between atoms: C_13  and  C_24
REMARK   15  A    between atoms: C_15  and  C_17
REMARK   16  A    between atoms: C_17  and  C_18
REMARK   17  A    between atoms: C_18  and  C_19
REMARK   18  A    between atoms: C_19  and  N_20
REMARK   19  A    between atoms: C_19  and  C_21
REMARK   20  A    between atoms: C_21  and  O_22
REMARK   21  A    between atoms: N_26  and  CA_27
REMARK   22  A    between atoms: CA_27  and  C_28
REMARK   23  A    between atoms: C_28  and  O_29
REMARK   24  A    between atoms: N_33  and  CA_34
REMARK   25  A    between atoms: CA_34  and  C_35
REMARK   26  A    between atoms: C_35  and  O_36
REMARK   27  A    between atoms: C_38  and  O_39
REMARK                            x       y       z     vdW  Elec       q    Type
REMARK                         _______ _______ _______ _____ _____    ______ ____
ROOT
ATOM      1  S   UNK A   1      -8.580   1.978 130.543  0.00  0.00    +0.000 S 
ENDROOT
BRANCH   1   2
ATOM      2  S   UNK A   1      -8.318   1.422 128.600  0.00  0.00    +0.000 S 
BRANCH   2   3
ATOM      3  C   UNK A   1      -6.743   2.304 128.133  0.00  0.00    +0.000 C 
BRANCH   3   4
ATOM      4  C   UNK A   1      -6.905   3.426 127.076  0.00  0.00    +0.000 C 
BRANCH   4   5
ATOM      5  C   UNK A   1      -5.622   4.319 126.965  0.00  0.00    +0.000 C 
ATOM      6  O   UNK A   1      -5.566   5.349 126.299  0.00  0.00    +0.000 OA
ATOM      7  N   GLY A   2      -4.526   3.833 127.668  0.00  0.00    +0.000 N 
ATOM      8  H   GLY A   2      -4.624   2.880 127.975  0.00  0.00    +0.000 HD
BRANCH   7   9
ATOM      9  CA  GLY A   2      -3.199   4.429 127.553  0.00  0.00    +0.000 C 
BRANCH   9  10
ATOM     10  C   GLY A   2      -2.890   5.691 128.373  0.00  0.00    +0.000 C 
ATOM     11  OXT GLY A   2      -2.383   5.645 129.488  0.00  0.00    +0.000 OA
BRANCH  10  12
ATOM     12  O   GLY A   2      -3.247   6.880 127.838  0.00  0.00    +0.000 OA
ATOM     13  H   GLY A   2      -2.601   7.601 127.871  0.00  0.00    +0.000 HD
ENDBRANCH  10  12
ENDBRANCH   9  10
ENDBRANCH   7   9
ENDBRANCH   4   5
BRANCH   4  14
ATOM     14  N   UNK A   1      -7.272   2.861 125.753  0.00  0.00    +0.000 N 
ATOM     15  C   UNK A   1      -8.232   3.484 124.973  0.00  0.00    +0.000 C 
ATOM     16  O   UNK A   1      -8.884   4.435 125.399  0.00  0.00    +0.000 OA
ATOM     17  H   UNK A   1      -6.623   2.231 125.295  0.00  0.00    +0.000 HD
BRANCH  15  18
ATOM     18  C   UNK A   1      -8.440   2.905 123.569  0.00  0.00    +0.000 C 
BRANCH  18  19
ATOM     19  C   UNK A   1      -7.811   1.499 123.457  0.00  0.00    +0.000 C 
BRANCH  19  20
ATOM     20  C   UNK A   1      -8.819   0.347 123.619  0.00  0.00    +0.000 C 
BRANCH  20  21
ATOM     21  N   UNK A   1     -10.198   0.873 123.536  0.00  0.00    +0.000 NA
ATOM     22  H   UNK A   1     -10.316   1.571 122.808  0.00  0.00    +0.000 HD
ATOM     23  H   UNK A   1     -10.569   1.156 124.440  0.00  0.00    +0.000 HD
ENDBRANCH  20  21
BRANCH  20  24
ATOM     24  C   UNK A   1      -8.577  -0.382 124.956  0.00  0.00    +0.000 C 
ATOM     25  O   UNK A   1      -7.535  -0.287 125.598  0.00  0.00    +0.000 OA
BRANCH  24  26
ATOM     26  O   UNK A   1      -9.605  -1.150 125.392  0.00  0.00    +0.000 OA
ATOM     27  H   UNK A   1      -9.418  -1.575 126.248  0.00  0.00    +0.000 HD
ENDBRANCH  24  26
ENDBRANCH  20  24
ENDBRANCH  19  20
ENDBRANCH  18  19
ENDBRANCH  15  18
ENDBRANCH   4  14
ENDBRANCH   3   4
ENDBRANCH   2   3
ENDBRANCH   1   2
BRANCH   1  28
ATOM     28  C   UNK A   1     -10.082   3.047 130.595  0.00  0.00    +0.000 C 
BRANCH  28  29
ATOM     29  C   UNK A   1      -9.802   4.523 130.990  0.00  0.00    +0.000 C 
BRANCH  29  32
ATOM     30  C   UNK A   1     -11.430   6.373 131.435  0.00  0.00    +0.000 C 
ATOM     31  O   UNK A   1     -10.920   6.639 132.520  0.00  0.00    +0.000 OA
ATOM     32  N   UNK A   1     -10.909   5.423 130.584  0.00  0.00    +0.000 N 
ATOM     33  H   UNK A   1     -11.125   5.461 129.590  0.00  0.00    +0.000 HD
BRANCH  30  34
ATOM     34  C   UNK A   1     -12.649   7.134 130.957  0.00  0.00    +0.000 C 
BRANCH  34  35
ATOM     35  C   UNK A   1     -12.219   8.224 129.949  0.00  0.00    +0.000 C 
BRANCH  35  36
ATOM     36  C   UNK A   1     -12.624   7.946 128.500  0.00  0.00    +0.000 C 
BRANCH  36  37
ATOM     37  N   UNK A   1     -13.580   6.806 128.435  0.00  0.00    +0.000 NA
ATOM     38  H   UNK A   1     -14.522   7.193 128.551  0.00  0.00    +0.000 HD
ATOM     39  H   UNK A   1     -13.459   6.228 129.272  0.00  0.00    +0.000 HD
ENDBRANCH  36  37
BRANCH  36  40
ATOM     40  C   UNK A   1     -11.375   7.629 127.652  0.00  0.00    +0.000 C 
ATOM     41  O   UNK A   1     -10.875   8.406 126.846  0.00  0.00    +0.000 OA
BRANCH  40  42
ATOM     42  O   UNK A   1     -10.862   6.395 127.888  0.00  0.00    +0.000 OA
ATOM     43  H   UNK A   1     -10.968   5.856 127.072  0.00  0.00    +0.000 HD
ENDBRANCH  40  42
ENDBRANCH  36  40
ENDBRANCH  35  36
ENDBRANCH  34  35
ENDBRANCH  30  34
ENDBRANCH  29  32
BRANCH  29  44
ATOM     44  C   UNK A   1      -8.460   4.992 130.324  0.00  0.00    +0.000 C 
ATOM     45  O   UNK A   1      -8.420   5.410 129.168  0.00  0.00    +0.000 OA
ATOM     46  N   GLY A   2      -7.327   4.924 131.126  0.00  0.00    +0.000 N 
ATOM     47  H   GLY A   2      -7.454   4.667 132.089  0.00  0.00    +0.000 HD
BRANCH  46  48
ATOM     48  CA  GLY A   2      -5.997   5.318 130.628  0.00  0.00    +0.000 C 
BRANCH  48  49
ATOM     49  C   GLY A   2      -5.539   6.775 130.793  0.00  0.00    +0.000 C 
ATOM     50  OXT GLY A   2      -6.213   7.727 130.416  0.00  0.00    +0.000 OA
BRANCH  49  51
ATOM     51  O   GLY A   2      -4.344   6.978 131.386  0.00  0.00    +0.000 OA
ATOM     52  H   GLY A   2      -3.729   6.234 131.444  0.00  0.00    +0.000 HD
ENDBRANCH  49  51
ENDBRANCH  48  49
ENDBRANCH  46  48
ENDBRANCH  29  44
ENDBRANCH  28  29
ENDBRANCH   1  28
TORSDOF 27
ENDMDL
MODEL 4
REMARK VINA RESULT:      -6.2      2.308      8.010
REMARK  Name = Glutathione disulfide
REMARK  27 active torsions:
REMARK  status: ('A' for Active; 'I' for Inactive)
REMARK    1  A    between atoms: N_1  and  C_2
REMARK    2  A    between atoms: C_2  and  C_3
REMARK    3  A    between atoms: C_2  and  C_38
REMARK    4  A    between atoms: C_3  and  C_4
REMARK    5  A    between atoms: C_4  and  C_5
REMARK    6  A    between atoms: N_7  and  C_8
REMARK    7  A    between atoms: C_8  and  C_9
REMARK    8  A    between atoms: C_8  and  C_31
REMARK    9  A    between atoms: C_9  and  S_10
REMARK   10  A    between atoms: S_10  and  S_11
REMARK   11  A    between atoms: S_11  and  C_12
REMARK   12  A    between atoms: C_12  and  C_13
REMARK   13  A    between atoms: C_13  and  N_14
REMARK   14  A    between atoms: C_13  and  C_24
REMARK   15  A    between atoms: C_15  and  C_17
REMARK   16  A    between atoms: C_17  and  C_18
REMARK   17  A    between atoms: C_18  and  C_19
REMARK   18  A    between atoms: C_19  and  N_20
REMARK   19  A    between atoms: C_19  and  C_21
REMARK   20  A    between atoms: C_21  and  O_22
REMARK   21  A    between atoms: N_26  and  CA_27
REMARK   22  A    between atoms: CA_27  and  C_28
REMARK   23  A    between atoms: C_28  and  O_29
REMARK   24  A    between atoms: N_33  and  CA_34
REMARK   25  A    between atoms: CA_34  and  C_35
REMARK   26  A    between atoms: C_35  and  O_36
REMARK   27  A    between atoms: C_38  and  O_39
REMARK                            x       y       z     vdW  Elec       q    Type
REMARK                         _______ _______ _______ _____ _____    ______ ____
ROOT
ATOM      1  S   UNK A   1      -7.698   1.834 129.209  0.00  0.00    +0.000 S 
ENDROOT
BRANCH   1   2
ATOM      2  S   UNK A   1      -8.413   3.741 129.165  0.00  0.00    +0.000 S 
BRANCH   2   3
ATOM      3  C   UNK A   1      -8.845   4.056 130.951  0.00  0.00    +0.000 C 
BRANCH   3   4
ATOM      4  C   UNK A   1      -9.186   5.528 131.297  0.00  0.00    +0.000 C 
BRANCH   4   5
ATOM      5  C   UNK A   1      -7.989   6.495 130.994  0.00  0.00    +0.000 C 
ATOM      6  O   UNK A   1      -8.085   7.493 130.287  0.00  0.00    +0.000 OA
ATOM      7  N   GLY A   2      -6.786   6.112 131.576  0.00  0.00    +0.000 N 
ATOM      8  H   GLY A   2      -6.781   5.171 131.929  0.00  0.00    +0.000 HD
BRANCH   7   9
ATOM      9  CA  GLY A   2      -5.527   6.784 131.275  0.00  0.00    +0.000 C 
BRANCH   9  10
ATOM     10  C   GLY A   2      -4.780   6.397 129.989  0.00  0.00    +0.000 C 
ATOM     11  OXT GLY A   2      -4.448   7.223 129.146  0.00  0.00    +0.000 OA
BRANCH  10  12
ATOM     12  O   GLY A   2      -4.535   5.084 129.786  0.00  0.00    +0.000 OA
ATOM     13  H   GLY A   2      -4.543   4.760 128.873  0.00  0.00    +0.000 HD
ENDBRANCH  10  12
ENDBRANCH   9  10
ENDBRANCH   7   9
ENDBRANCH   4   5
BRANCH   4  14
ATOM     14  N   UNK A   1     -10.414   5.971 130.591  0.00  0.00    +0.000 N 
ATOM     15  C   UNK A   1     -11.414   6.632 131.284  0.00  0.00    +0.000 C 
ATOM     16  O   UNK A   1     -11.369   6.760 132.505  0.00  0.00    +0.000 OA
ATOM     17  H   UNK A   1     -10.387   6.072 129.583  0.00  0.00    +0.000 HD
BRANCH  15  18
ATOM     18  C   UNK A   1     -12.577   7.168 130.442  0.00  0.00    +0.000 C 
BRANCH  18  19
ATOM     19  C   UNK A   1     -12.100   8.303 129.509  0.00  0.00    +0.000 C 
BRANCH  19  20
ATOM     20  C   UNK A   1     -12.364   8.039 128.015  0.00  0.00    +0.000 C 
BRANCH  20  21
ATOM     21  N   UNK A   1     -13.547   7.166 127.863  0.00  0.00    +0.000 NA
ATOM     22  H   UNK A   1     -13.313   6.227 127.554  0.00  0.00    +0.000 HD
ATOM     23  H   UNK A   1     -14.294   7.601 127.329  0.00  0.00    +0.000 HD
ENDBRANCH  20  21
BRANCH  20  24
ATOM     24  C   UNK A   1     -11.117   7.412 127.361  0.00  0.00    +0.000 C 
ATOM     25  O   UNK A   1     -11.135   6.863 126.263  0.00  0.00    +0.000 OA
BRANCH  24  26
ATOM     26  O   UNK A   1      -9.974   7.507 128.082  0.00  0.00    +0.000 OA
ATOM     27  H   UNK A   1     -10.094   8.006 128.910  0.00  0.00    +0.000 HD
ENDBRANCH  24  26
ENDBRANCH  20  24
ENDBRANCH  19  20
ENDBRANCH  18  19
ENDBRANCH  15  18
ENDBRANCH   4  14
ENDBRANCH   3   4
ENDBRANCH   2   3
ENDBRANCH   1   2
BRANCH   1  28
ATOM     28  C   UNK A   1      -6.884   1.530 127.583  0.00  0.00    +0.000 C 
BRANCH  28  29
ATOM     29  C   UNK A   1      -7.034   2.695 126.566  0.00  0.00    +0.000 C 
BRANCH  29  32
ATOM     30  C   UNK A   1      -8.518   1.983 124.679  0.00  0.00    +0.000 C 
ATOM     31  O   UNK A   1      -9.536   2.327 125.273  0.00  0.00    +0.000 OA
ATOM     32  N   UNK A   1      -7.255   2.197 125.186  0.00  0.00    +0.000 N 
ATOM     33  H   UNK A   1      -6.456   2.226 124.557  0.00  0.00    +0.000 HD
BRANCH  30  34
ATOM     34  C   UNK A   1      -8.613   1.342 123.310  0.00  0.00    +0.000 C 
BRANCH  34  35
ATOM     35  C   UNK A   1      -7.839   0.004 123.308  0.00  0.00    +0.000 C 
BRANCH  35  36
ATOM     36  C   UNK A   1      -8.723  -1.242 123.222  0.00  0.00    +0.000 C 
BRANCH  36  37
ATOM     37  N   UNK A   1     -10.091  -0.880 122.758  0.00  0.00    +0.000 NA
ATOM     38  H   UNK A   1     -10.616  -0.564 123.579  0.00  0.00    +0.000 HD
ATOM     39  H   UNK A   1     -10.581  -1.737 122.482  0.00  0.00    +0.000 HD
ENDBRANCH  36  37
BRANCH  36  40
ATOM     40  C   UNK A   1      -8.805  -1.929 124.601  0.00  0.00    +0.000 C 
ATOM     41  O   UNK A   1      -9.680  -1.706 125.431  0.00  0.00    +0.000 OA
BRANCH  40  42
ATOM     42  O   UNK A   1      -7.811  -2.827 124.816  0.00  0.00    +0.000 OA
ATOM     43  H   UNK A   1      -6.950  -2.380 124.652  0.00  0.00    +0.000 HD
ENDBRANCH  40  42
ENDBRANCH  36  40
ENDBRANCH  35  36
ENDBRANCH  34  35
ENDBRANCH  30  34
ENDBRANCH  29  32
BRANCH  29  44
ATOM     44  C   UNK A   1      -5.748   3.592 126.612  0.00  0.00    +0.000 C 
ATOM     45  O   UNK A   1      -5.765   4.729 127.083  0.00  0.00    +0.000 OA
ATOM     46  N   GLY A   2      -4.587   3.018 126.109  0.00  0.00    +0.000 N 
ATOM     47  H   GLY A   2      -4.628   2.053 125.834  0.00  0.00    +0.000 HD
BRANCH  46  48
ATOM     48  CA  GLY A   2      -3.308   3.750 126.075  0.00  0.00    +0.000 C 
BRANCH  48  49
ATOM     49  C   GLY A   2      -2.267   3.485 127.174  0.00  0.00    +0.000 C 
ATOM     50  OXT GLY A   2      -2.286   4.062 128.255  0.00  0.00    +0.000 OA
BRANCH  49  51
ATOM     51  O   GLY A   2      -1.313   2.570 126.906  0.00  0.00    +0.000 OA
ATOM     52  H   GLY A   2      -1.343   2.112 126.055  0.00  0.00    +0.000 HD
ENDBRANCH  49  51
ENDBRANCH  48  49
ENDBRANCH  46  48
ENDBRANCH  29  44
ENDBRANCH  28  29
ENDBRANCH   1  28
TORSDOF 27
ENDMDL
MODEL 5
REMARK VINA RESULT:      -6.1      2.295      5.442
REMARK  Name = Glutathione disulfide
REMARK  27 active torsions:
REMARK  status: ('A' for Active; 'I' for Inactive)
REMARK    1  A    between atoms: N_1  and  C_2
REMARK    2  A    between atoms: C_2  and  C_3
REMARK    3  A    between atoms: C_2  and  C_38
REMARK    4  A    between atoms: C_3  and  C_4
REMARK    5  A    between atoms: C_4  and  C_5
REMARK    6  A    between atoms: N_7  and  C_8
REMARK    7  A    between atoms: C_8  and  C_9
REMARK    8  A    between atoms: C_8  and  C_31
REMARK    9  A    between atoms: C_9  and  S_10
REMARK   10  A    between atoms: S_10  and  S_11
REMARK   11  A    between atoms: S_11  and  C_12
REMARK   12  A    between atoms: C_12  and  C_13
REMARK   13  A    between atoms: C_13  and  N_14
REMARK   14  A    between atoms: C_13  and  C_24
REMARK   15  A    between atoms: C_15  and  C_17
REMARK   16  A    between atoms: C_17  and  C_18
REMARK   17  A    between atoms: C_18  and  C_19
REMARK   18  A    between atoms: C_19  and  N_20
REMARK   19  A    between atoms: C_19  and  C_21
REMARK   20  A    between atoms: C_21  and  O_22
REMARK   21  A    between atoms: N_26  and  CA_27
REMARK   22  A    between atoms: CA_27  and  C_28
REMARK   23  A    between atoms: C_28  and  O_29
REMARK   24  A    between atoms: N_33  and  CA_34
REMARK   25  A    between atoms: CA_34  and  C_35
REMARK   26  A    between atoms: C_35  and  O_36
REMARK   27  A    between atoms: C_38  and  O_39
REMARK                            x       y       z     vdW  Elec       q    Type
REMARK                         _______ _______ _______ _____ _____    ______ ____
ROOT
ATOM      1  S   UNK A   1      -7.568   1.324 130.923  0.00  0.00    +0.000 S 
ENDROOT
BRANCH   1   2
ATOM      2  S   UNK A   1      -7.133  -0.601 130.414  0.00  0.00    +0.000 S 
BRANCH   2   3
ATOM      3  C   UNK A   1      -5.541  -0.420 129.461  0.00  0.00    +0.000 C 
BRANCH   3   4
ATOM      4  C   UNK A   1      -5.685   0.207 128.050  0.00  0.00    +0.000 C 
BRANCH   4   5
ATOM      5  C   UNK A   1      -4.853   1.528 127.907  0.00  0.00    +0.000 C 
ATOM      6  O   UNK A   1      -4.809   2.400 128.769  0.00  0.00    +0.000 OA
ATOM      7  N   GLY A   2      -4.181   1.649 126.696  0.00  0.00    +0.000 N 
ATOM      8  H   GLY A   2      -4.479   0.995 125.993  0.00  0.00    +0.000 HD
BRANCH   7   9
ATOM      9  CA  GLY A   2      -3.495   2.876 126.306  0.00  0.00    +0.000 C 
BRANCH   9  10
ATOM     10  C   GLY A   2      -2.186   3.242 127.024  0.00  0.00    +0.000 C 
ATOM     11  OXT GLY A   2      -2.090   4.216 127.762  0.00  0.00    +0.000 OA
BRANCH  10  12
ATOM     12  O   GLY A   2      -1.106   2.470 126.774  0.00  0.00    +0.000 OA
ATOM     13  H   GLY A   2      -1.200   1.512 126.889  0.00  0.00    +0.000 HD
ENDBRANCH  10  12
ENDBRANCH   9  10
ENDBRANCH   7   9
ENDBRANCH   4   5
BRANCH   4  14
ATOM     14  N   UNK A   1      -5.316  -0.768 126.993  0.00  0.00    +0.000 N 
ATOM     15  C   UNK A   1      -6.298  -1.505 126.353  0.00  0.00    +0.000 C 
ATOM     16  O   UNK A   1      -7.470  -1.464 126.721  0.00  0.00    +0.000 OA
ATOM     17  H   UNK A   1      -4.419  -0.670 126.532  0.00  0.00    +0.000 HD
BRANCH  15  18
ATOM     18  C   UNK A   1      -5.832  -2.380 125.185  0.00  0.00    +0.000 C 
BRANCH  18  19
ATOM     19  C   UNK A   1      -6.999  -3.229 124.636  0.00  0.00    +0.000 C 
BRANCH  19  20
ATOM     20  C   UNK A   1      -7.633  -2.666 123.351  0.00  0.00    +0.000 C 
BRANCH  20  21
ATOM     21  N   UNK A   1      -6.807  -1.556 122.831  0.00  0.00    +0.000 NA
ATOM     22  H   UNK A   1      -6.623  -0.836 123.524  0.00  0.00    +0.000 HD
ATOM     23  H   UNK A   1      -7.145  -1.193 121.943  0.00  0.00    +0.000 HD
ENDBRANCH  20  21
BRANCH  20  24
ATOM     24  C   UNK A   1      -9.078  -2.207 123.631  0.00  0.00    +0.000 C 
ATOM     25  O   UNK A   1      -9.373  -1.052 123.926  0.00  0.00    +0.000 OA
BRANCH  24  26
ATOM     26  O   UNK A   1     -10.023  -3.172 123.529  0.00  0.00    +0.000 OA
ATOM     27  H   UNK A   1     -10.015  -3.613 122.660  0.00  0.00    +0.000 HD
ENDBRANCH  24  26
ENDBRANCH  20  24
ENDBRANCH  19  20
ENDBRANCH  18  19
ENDBRANCH  15  18
ENDBRANCH   4  14
ENDBRANCH   3   4
ENDBRANCH   2   3
ENDBRANCH   1   2
BRANCH   1  28
ATOM     28  C   UNK A   1      -8.557   2.033 129.538  0.00  0.00    +0.000 C 
BRANCH  28  29
ATOM     29  C   UNK A   1      -8.074   3.429 129.058  0.00  0.00    +0.000 C 
BRANCH  29  32
ATOM     30  C   UNK A   1      -8.729   5.286 130.603  0.00  0.00    +0.000 C 
ATOM     31  O   UNK A   1      -7.663   5.237 131.210  0.00  0.00    +0.000 OA
ATOM     32  N   UNK A   1      -8.989   4.511 129.495  0.00  0.00    +0.000 N 
ATOM     33  H   UNK A   1      -9.702   4.803 128.829  0.00  0.00    +0.000 HD
BRANCH  30  34
ATOM     34  C   UNK A   1      -9.805   6.264 131.030  0.00  0.00    +0.000 C 
BRANCH  34  35
ATOM     35  C   UNK A   1      -9.889   7.422 130.011  0.00  0.00    +0.000 C 
BRANCH  35  36
ATOM     36  C   UNK A   1     -11.081   7.343 129.054  0.00  0.00    +0.000 C 
BRANCH  36  37
ATOM     37  N   UNK A   1     -11.836   6.077 129.265  0.00  0.00    +0.000 NA
ATOM     38  H   UNK A   1     -11.705   5.503 128.426  0.00  0.00    +0.000 HD
ATOM     39  H   UNK A   1     -12.839   6.287 129.253  0.00  0.00    +0.000 HD
ENDBRANCH  36  37
BRANCH  36  40
ATOM     40  C   UNK A   1     -10.593   7.422 127.593  0.00  0.00    +0.000 C 
ATOM     41  O   UNK A   1     -10.909   8.309 126.808  0.00  0.00    +0.000 OA
BRANCH  40  42
ATOM     42  O   UNK A   1      -9.758   6.410 127.247  0.00  0.00    +0.000 OA
ATOM     43  H   UNK A   1     -10.281   5.730 126.765  0.00  0.00    +0.000 HD
ENDBRANCH  40  42
ENDBRANCH  36  40
ENDBRANCH  35  36
ENDBRANCH  34  35
ENDBRANCH  30  34
ENDBRANCH  29  32
BRANCH  29  44
ATOM     44  C   UNK A   1      -7.956   3.427 127.493  0.00  0.00    +0.000 C 
ATOM     45  O   UNK A   1      -7.597   4.422 126.867  0.00  0.00    +0.000 OA
ATOM     46  N   GLY A   2      -8.264   2.228 126.862  0.00  0.00    +0.000 N 
ATOM     47  H   GLY A   2      -8.453   1.431 127.444  0.00  0.00    +0.000 HD
BRANCH  46  48
ATOM     48  CA  GLY A   2      -8.211   2.084 125.396  0.00  0.00    +0.000 C 
BRANCH  48  49
ATOM     49  C   GLY A   2      -6.843   1.987 124.703  0.00  0.00    +0.000 C 
ATOM     50  OXT GLY A   2      -6.339   0.918 124.381  0.00  0.00    +0.000 OA
BRANCH  49  51
ATOM     51  O   GLY A   2      -6.202   3.147 124.450  0.00  0.00    +0.000 OA
ATOM     52  H   GLY A   2      -5.280   3.108 124.163  0.00  0.00    +0.000 HD
ENDBRANCH  49  51
ENDBRANCH  48  49
ENDBRANCH  46  48
ENDBRANCH  29  44
ENDBRANCH  28  29
ENDBRANCH   1  28
TORSDOF 27
ENDMDL
MODEL 6
REMARK VINA RESULT:      -6.1      2.534      5.977
REMARK  Name = Glutathione disulfide
REMARK  27 active torsions:
REMARK  status: ('A' for Active; 'I' for Inactive)
REMARK    1  A    between atoms: N_1  and  C_2
REMARK    2  A    between atoms: C_2  and  C_3
REMARK    3  A    between atoms: C_2  and  C_38
REMARK    4  A    between atoms: C_3  and  C_4
REMARK    5  A    between atoms: C_4  and  C_5
REMARK    6  A    between atoms: N_7  and  C_8
REMARK    7  A    between atoms: C_8  and  C_9
REMARK    8  A    between atoms: C_8  and  C_31
REMARK    9  A    between atoms: C_9  and  S_10
REMARK   10  A    between atoms: S_10  and  S_11
REMARK   11  A    between atoms: S_11  and  C_12
REMARK   12  A    between atoms: C_12  and  C_13
REMARK   13  A    between atoms: C_13  and  N_14
REMARK   14  A    between atoms: C_13  and  C_24
REMARK   15  A    between atoms: C_15  and  C_17
REMARK   16  A    between atoms: C_17  and  C_18
REMARK   17  A    between atoms: C_18  and  C_19
REMARK   18  A    between atoms: C_19  and  N_20
REMARK   19  A    between atoms: C_19  and  C_21
REMARK   20  A    between atoms: C_21  and  O_22
REMARK   21  A    between atoms: N_26  and  CA_27
REMARK   22  A    between atoms: CA_27  and  C_28
REMARK   23  A    between atoms: C_28  and  O_29
REMARK   24  A    between atoms: N_33  and  CA_34
REMARK   25  A    between atoms: CA_34  and  C_35
REMARK   26  A    between atoms: C_35  and  O_36
REMARK   27  A    between atoms: C_38  and  O_39
REMARK                            x       y       z     vdW  Elec       q    Type
REMARK                         _______ _______ _______ _____ _____    ______ ____
ROOT
ATOM      1  S   UNK A   1      -7.606   0.873 129.673  0.00  0.00    +0.000 S 
ENDROOT
BRANCH   1   2
ATOM      2  S   UNK A   1      -5.892   1.759 130.331  0.00  0.00    +0.000 S 
BRANCH   2   3
ATOM      3  C   UNK A   1      -4.648   1.246 129.040  0.00  0.00    +0.000 C 
BRANCH   3   4
ATOM      4  C   UNK A   1      -5.064   1.532 127.574  0.00  0.00    +0.000 C 
BRANCH   4   5
ATOM      5  C   UNK A   1      -4.347   2.801 126.997  0.00  0.00    +0.000 C 
ATOM      6  O   UNK A   1      -4.480   3.188 125.840  0.00  0.00    +0.000 OA
ATOM      7  N   GLY A   2      -3.515   3.447 127.903  0.00  0.00    +0.000 N 
ATOM      8  H   GLY A   2      -3.311   2.911 128.729  0.00  0.00    +0.000 HD
BRANCH   7   9
ATOM      9  CA  GLY A   2      -2.634   4.542 127.509  0.00  0.00    +0.000 C 
BRANCH   9  10
ATOM     10  C   GLY A   2      -2.996   5.968 127.953  0.00  0.00    +0.000 C 
ATOM     11  OXT GLY A   2      -4.068   6.492 127.675  0.00  0.00    +0.000 OA
BRANCH  10  12
ATOM     12  O   GLY A   2      -2.058   6.661 128.635  0.00  0.00    +0.000 OA
ATOM     13  H   GLY A   2      -1.525   6.178 129.284  0.00  0.00    +0.000 HD
ENDBRANCH  10  12
ENDBRANCH   9  10
ENDBRANCH   7   9
ENDBRANCH   4   5
BRANCH   4  14
ATOM     14  N   UNK A   1      -4.822   0.349 126.711  0.00  0.00    +0.000 N 
ATOM     15  C   UNK A   1      -5.878  -0.264 126.057  0.00  0.00    +0.000 C 
ATOM     16  O   UNK A   1      -7.041   0.073 126.267  0.00  0.00    +0.000 OA
ATOM     17  H   UNK A   1      -3.886   0.188 126.356  0.00  0.00    +0.000 HD
BRANCH  15  18
ATOM     18  C   UNK A   1      -5.508  -1.388 125.083  0.00  0.00    +0.000 C 
BRANCH  18  19
ATOM     19  C   UNK A   1      -6.619  -2.460 125.038  0.00  0.00    +0.000 C 
BRANCH  19  20
ATOM     20  C   UNK A   1      -7.482  -2.414 123.764  0.00  0.00    +0.000 C 
BRANCH  20  21
ATOM     21  N   UNK A   1      -6.904  -1.452 122.802  0.00  0.00    +0.000 NA
ATOM     22  H   UNK A   1      -7.062  -1.711 121.833  0.00  0.00    +0.000 HD
ATOM     23  H   UNK A   1      -5.937  -1.215 123.011  0.00  0.00    +0.000 HD
ENDBRANCH  20  21
BRANCH  20  24
ATOM     24  C   UNK A   1      -8.935  -2.044 124.123  0.00  0.00    +0.000 C 
ATOM     25  O   UNK A   1      -9.712  -2.819 124.672  0.00  0.00    +0.000 OA
BRANCH  24  26
ATOM     26  O   UNK A   1      -9.311  -0.786 123.791  0.00  0.00    +0.000 OA
ATOM     27  H   UNK A   1     -10.171  -0.760 123.335  0.00  0.00    +0.000 HD
ENDBRANCH  24  26
ENDBRANCH  20  24
ENDBRANCH  19  20
ENDBRANCH  18  19
ENDBRANCH  15  18
ENDBRANCH   4  14
ENDBRANCH   3   4
ENDBRANCH   2   3
ENDBRANCH   1   2
BRANCH   1  28
ATOM     28  C   UNK A   1      -8.569   2.168 128.782  0.00  0.00    +0.000 C 
BRANCH  28  29
ATOM     29  C   UNK A   1      -7.817   3.516 128.607  0.00  0.00    +0.000 C 
BRANCH  29  32
ATOM     30  C   UNK A   1      -7.638   5.480 130.149  0.00  0.00    +0.000 C 
ATOM     31  O   UNK A   1      -6.417   5.536 130.031  0.00  0.00    +0.000 OA
ATOM     32  N   UNK A   1      -8.412   4.592 129.436  0.00  0.00    +0.000 N 
ATOM     33  H   UNK A   1      -9.401   4.788 129.290  0.00  0.00    +0.000 HD
BRANCH  30  34
ATOM     34  C   UNK A   1      -8.360   6.444 131.068  0.00  0.00    +0.000 C 
BRANCH  34  35
ATOM     35  C   UNK A   1      -9.615   6.998 130.356  0.00  0.00    +0.000 C 
BRANCH  35  36
ATOM     36  C   UNK A   1     -10.944   6.542 130.962  0.00  0.00    +0.000 C 
BRANCH  36  37
ATOM     37  N   UNK A   1     -10.724   5.929 132.302  0.00  0.00    +0.000 NA
ATOM     38  H   UNK A   1      -9.735   5.668 132.356  0.00  0.00    +0.000 HD
ATOM     39  H   UNK A   1     -11.208   5.027 132.333  0.00  0.00    +0.000 HD
ENDBRANCH  36  37
BRANCH  36  40
ATOM     40  C   UNK A   1     -11.630   5.524 130.028  0.00  0.00    +0.000 C 
ATOM     41  O   UNK A   1     -12.353   5.831 129.087  0.00  0.00    +0.000 OA
BRANCH  40  42
ATOM     42  O   UNK A   1     -11.350   4.234 130.339  0.00  0.00    +0.000 OA
ATOM     43  H   UNK A   1     -11.984   3.938 131.031  0.00  0.00    +0.000 HD
ENDBRANCH  40  42
ENDBRANCH  36  40
ENDBRANCH  35  36
ENDBRANCH  34  35
ENDBRANCH  30  34
ENDBRANCH  29  32
BRANCH  29  44
ATOM     44  C   UNK A   1      -7.841   3.930 127.093  0.00  0.00    +0.000 C 
ATOM     45  O   UNK A   1      -7.541   5.065 126.726  0.00  0.00    +0.000 OA
ATOM     46  N   GLY A   2      -8.203   2.934 126.195  0.00  0.00    +0.000 N 
ATOM     47  H   GLY A   2      -8.337   2.007 126.559  0.00  0.00    +0.000 HD
BRANCH  46  48
ATOM     48  CA  GLY A   2      -8.283   3.184 124.745  0.00  0.00    +0.000 C 
BRANCH  48  49
ATOM     49  C   GLY A   2      -7.252   2.526 123.816  0.00  0.00    +0.000 C 
ATOM     50  OXT GLY A   2      -7.439   1.438 123.285  0.00  0.00    +0.000 OA
BRANCH  49  51
ATOM     51  O   GLY A   2      -6.107   3.206 123.594  0.00  0.00    +0.000 OA
ATOM     52  H   GLY A   2      -5.718   3.171 122.710  0.00  0.00    +0.000 HD
ENDBRANCH  49  51
ENDBRANCH  48  49
ENDBRANCH  46  48
ENDBRANCH  29  44
ENDBRANCH  28  29
ENDBRANCH   1  28
TORSDOF 27
ENDMDL
MODEL 7
REMARK VINA RESULT:      -6.1      2.181      4.591
REMARK  Name = Glutathione disulfide
REMARK  27 active torsions:
REMARK  status: ('A' for Active; 'I' for Inactive)
REMARK    1  A    between atoms: N_1  and  C_2
REMARK    2  A    between atoms: C_2  and  C_3
REMARK    3  A    between atoms: C_2  and  C_38
REMARK    4  A    between atoms: C_3  and  C_4
REMARK    5  A    between atoms: C_4  and  C_5
REMARK    6  A    between atoms: N_7  and  C_8
REMARK    7  A    between atoms: C_8  and  C_9
REMARK    8  A    between atoms: C_8  and  C_31
REMARK    9  A    between atoms: C_9  and  S_10
REMARK   10  A    between atoms: S_10  and  S_11
REMARK   11  A    between atoms: S_11  and  C_12
REMARK   12  A    between atoms: C_12  and  C_13
REMARK   13  A    between atoms: C_13  and  N_14
REMARK   14  A    between atoms: C_13  and  C_24
REMARK   15  A    between atoms: C_15  and  C_17
REMARK   16  A    between atoms: C_17  and  C_18
REMARK   17  A    between atoms: C_18  and  C_19
REMARK   18  A    between atoms: C_19  and  N_20
REMARK   19  A    between atoms: C_19  and  C_21
REMARK   20  A    between atoms: C_21  and  O_22
REMARK   21  A    between atoms: N_26  and  CA_27
REMARK   22  A    between atoms: CA_27  and  C_28
REMARK   23  A    between atoms: C_28  and  O_29
REMARK   24  A    between atoms: N_33  and  CA_34
REMARK   25  A    between atoms: CA_34  and  C_35
REMARK   26  A    between atoms: C_35  and  O_36
REMARK   27  A    between atoms: C_38  and  O_39
REMARK                            x       y       z     vdW  Elec       q    Type
REMARK                         _______ _______ _______ _____ _____    ______ ____
ROOT
ATOM      1  S   UNK A   1      -7.716   2.469 129.724  0.00  0.00    +0.000 S 
ENDROOT
BRANCH   1   2
ATOM      2  S   UNK A   1      -7.265   0.481 129.721  0.00  0.00    +0.000 S 
BRANCH   2   3
ATOM      3  C   UNK A   1      -6.825   0.167 127.937  0.00  0.00    +0.000 C 
BRANCH   3   4
ATOM      4  C   UNK A   1      -8.016  -0.220 127.023  0.00  0.00    +0.000 C 
BRANCH   4   5
ATOM      5  C   UNK A   1      -8.664   1.034 126.341  0.00  0.00    +0.000 C 
ATOM      6  O   UNK A   1      -9.848   1.100 126.026  0.00  0.00    +0.000 OA
ATOM      7  N   GLY A   2      -7.773   2.071 126.090  0.00  0.00    +0.000 N 
ATOM      8  H   GLY A   2      -6.805   1.812 126.176  0.00  0.00    +0.000 HD
BRANCH   7   9
ATOM      9  CA  GLY A   2      -8.145   3.248 125.313  0.00  0.00    +0.000 C 
BRANCH   9  10
ATOM     10  C   GLY A   2      -7.777   4.635 125.864  0.00  0.00    +0.000 C 
ATOM     11  OXT GLY A   2      -6.854   4.808 126.651  0.00  0.00    +0.000 OA
BRANCH  10  12
ATOM     12  O   GLY A   2      -8.550   5.677 125.484  0.00  0.00    +0.000 OA
ATOM     13  H   GLY A   2      -8.107   6.513 125.276  0.00  0.00    +0.000 HD
ENDBRANCH  10  12
ENDBRANCH   9  10
ENDBRANCH   7   9
ENDBRANCH   4   5
BRANCH   4  14
ATOM     14  N   UNK A   1      -7.606  -1.222 126.008  0.00  0.00    +0.000 N 
ATOM     15  C   UNK A   1      -8.191  -2.476 125.993  0.00  0.00    +0.000 C 
ATOM     16  O   UNK A   1      -8.964  -2.832 126.880  0.00  0.00    +0.000 OA
ATOM     17  H   UNK A   1      -7.151  -0.899 125.162  0.00  0.00    +0.000 HD
BRANCH  15  18
ATOM     18  C   UNK A   1      -7.802  -3.388 124.824  0.00  0.00    +0.000 C 
BRANCH  18  19
ATOM     19  C   UNK A   1      -8.759  -3.185 123.629  0.00  0.00    +0.000 C 
BRANCH  19  20
ATOM     20  C   UNK A   1      -8.303  -2.098 122.639  0.00  0.00    +0.000 C 
BRANCH  20  21
ATOM     21  N   UNK A   1      -6.856  -1.843 122.807  0.00  0.00    +0.000 NA
ATOM     22  H   UNK A   1      -6.418  -2.459 123.486  0.00  0.00    +0.000 HD
ATOM     23  H   UNK A   1      -6.641  -0.860 122.946  0.00  0.00    +0.000 HD
ENDBRANCH  20  21
BRANCH  20  24
ATOM     24  C   UNK A   1      -9.126  -0.812 122.851  0.00  0.00    +0.000 C 
ATOM     25  O   UNK A   1     -10.325  -0.729 122.597  0.00  0.00    +0.000 OA
BRANCH  24  26
ATOM     26  O   UNK A   1      -8.436   0.243 123.346  0.00  0.00    +0.000 OA
ATOM     27  H   UNK A   1      -7.677  -0.028 123.892  0.00  0.00    +0.000 HD
ENDBRANCH  24  26
ENDBRANCH  20  24
ENDBRANCH  19  20
ENDBRANCH  18  19
ENDBRANCH  15  18
ENDBRANCH   4  14
ENDBRANCH   3   4
ENDBRANCH   2   3
ENDBRANCH   1   2
BRANCH   1  28
ATOM     28  C   UNK A   1      -7.778   3.001 131.489  0.00  0.00    +0.000 C 
BRANCH  28  29
ATOM     29  C   UNK A   1      -8.049   4.518 131.689  0.00  0.00    +0.000 C 
BRANCH  29  32
ATOM     30  C   UNK A   1     -10.174   5.810 131.978  0.00  0.00    +0.000 C 
ATOM     31  O   UNK A   1      -9.708   6.485 132.892  0.00  0.00    +0.000 OA
ATOM     32  N   UNK A   1      -9.424   4.892 131.277  0.00  0.00    +0.000 N 
ATOM     33  H   UNK A   1      -9.712   4.611 130.341  0.00  0.00    +0.000 HD
BRANCH  30  34
ATOM     34  C   UNK A   1     -11.612   6.004 131.542  0.00  0.00    +0.000 C 
BRANCH  34  35
ATOM     35  C   UNK A   1     -11.660   6.289 130.024  0.00  0.00    +0.000 C 
BRANCH  35  36
ATOM     36  C   UNK A   1     -11.146   7.672 129.619  0.00  0.00    +0.000 C 
BRANCH  36  37
ATOM     37  N   UNK A   1     -12.248   8.673 129.664  0.00  0.00    +0.000 NA
ATOM     38  H   UNK A   1     -13.083   8.187 130.004  0.00  0.00    +0.000 HD
ATOM     39  H   UNK A   1     -12.498   8.928 128.703  0.00  0.00    +0.000 HD
ENDBRANCH  36  37
BRANCH  36  40
ATOM     40  C   UNK A   1     -10.546   7.619 128.198  0.00  0.00    +0.000 C 
ATOM     41  O   UNK A   1      -9.961   6.647 127.734  0.00  0.00    +0.000 OA
BRANCH  40  42
ATOM     42  O   UNK A   1     -10.735   8.761 127.491  0.00  0.00    +0.000 OA
ATOM     43  H   UNK A   1     -10.163   8.726 126.691  0.00  0.00    +0.000 HD
ENDBRANCH  40  42
ENDBRANCH  36  40
ENDBRANCH  35  36
ENDBRANCH  34  35
ENDBRANCH  30  34
ENDBRANCH  29  32
BRANCH  29  44
ATOM     44  C   UNK A   1      -6.999   5.344 130.865  0.00  0.00    +0.000 C 
ATOM     45  O   UNK A   1      -7.333   6.069 129.929  0.00  0.00    +0.000 OA
ATOM     46  N   GLY A   2      -5.676   5.223 131.271  0.00  0.00    +0.000 N 
ATOM     47  H   GLY A   2      -5.492   4.693 132.104  0.00  0.00    +0.000 HD
BRANCH  46  48
ATOM     48  CA  GLY A   2      -4.582   5.930 130.581  0.00  0.00    +0.000 C 
BRANCH  48  49
ATOM     49  C   GLY A   2      -4.064   5.379 129.243  0.00  0.00    +0.000 C 
ATOM     50  OXT GLY A   2      -3.046   4.702 129.157  0.00  0.00    +0.000 OA
BRANCH  49  51
ATOM     51  O   GLY A   2      -4.787   5.667 128.141  0.00  0.00    +0.000 OA
ATOM     52  H   GLY A   2      -4.358   5.592 127.278  0.00  0.00    +0.000 HD
ENDBRANCH  49  51
ENDBRANCH  48  49
ENDBRANCH  46  48
ENDBRANCH  29  44
ENDBRANCH  28  29
ENDBRANCH   1  28
TORSDOF 27
ENDMDL
MODEL 8
REMARK VINA RESULT:      -6.0      2.509      4.973
REMARK  Name = Glutathione disulfide
REMARK  27 active torsions:
REMARK  status: ('A' for Active; 'I' for Inactive)
REMARK    1  A    between atoms: N_1  and  C_2
REMARK    2  A    between atoms: C_2  and  C_3
REMARK    3  A    between atoms: C_2  and  C_38
REMARK    4  A    between atoms: C_3  and  C_4
REMARK    5  A    between atoms: C_4  and  C_5
REMARK    6  A    between atoms: N_7  and  C_8
REMARK    7  A    between atoms: C_8  and  C_9
REMARK    8  A    between atoms: C_8  and  C_31
REMARK    9  A    between atoms: C_9  and  S_10
REMARK   10  A    between atoms: S_10  and  S_11
REMARK   11  A    between atoms: S_11  and  C_12
REMARK   12  A    between atoms: C_12  and  C_13
REMARK   13  A    between atoms: C_13  and  N_14
REMARK   14  A    between atoms: C_13  and  C_24
REMARK   15  A    between atoms: C_15  and  C_17
REMARK   16  A    between atoms: C_17  and  C_18
REMARK   17  A    between atoms: C_18  and  C_19
REMARK   18  A    between atoms: C_19  and  N_20
REMARK   19  A    between atoms: C_19  and  C_21
REMARK   20  A    between atoms: C_21  and  O_22
REMARK   21  A    between atoms: N_26  and  CA_27
REMARK   22  A    between atoms: CA_27  and  C_28
REMARK   23  A    between atoms: C_28  and  O_29
REMARK   24  A    between atoms: N_33  and  CA_34
REMARK   25  A    between atoms: CA_34  and  C_35
REMARK   26  A    between atoms: C_35  and  O_36
REMARK   27  A    between atoms: C_38  and  O_39
REMARK                            x       y       z     vdW  Elec       q    Type
REMARK                         _______ _______ _______ _____ _____    ______ ____
ROOT
ATOM      1  S   UNK A   1      -9.533   2.368 132.222  0.00  0.00    +0.000 S 
ENDROOT
BRANCH   1   2
ATOM      2  S   UNK A   1      -9.067   0.454 131.701  0.00  0.00    +0.000 S 
BRANCH   2   3
ATOM      3  C   UNK A   1      -7.971   0.692 130.212  0.00  0.00    +0.000 C 
BRANCH   3   4
ATOM      4  C   UNK A   1      -7.864  -0.534 129.270  0.00  0.00    +0.000 C 
BRANCH   4   5
ATOM      5  C   UNK A   1      -7.337  -0.138 127.847  0.00  0.00    +0.000 C 
ATOM      6  O   UNK A   1      -8.054  -0.063 126.854  0.00  0.00    +0.000 OA
ATOM      7  N   GLY A   2      -5.969   0.098 127.791  0.00  0.00    +0.000 N 
ATOM      8  H   GLY A   2      -5.463  -0.219 128.601  0.00  0.00    +0.000 HD
BRANCH   7   9
ATOM      9  CA  GLY A   2      -5.265   0.311 126.531  0.00  0.00    +0.000 C 
BRANCH   9  10
ATOM     10  C   GLY A   2      -4.752   1.724 126.209  0.00  0.00    +0.000 C 
ATOM     11  OXT GLY A   2      -5.382   2.511 125.513  0.00  0.00    +0.000 OA
BRANCH  10  12
ATOM     12  O   GLY A   2      -3.536   2.065 126.688  0.00  0.00    +0.000 OA
ATOM     13  H   GLY A   2      -3.116   1.463 127.321  0.00  0.00    +0.000 HD
ENDBRANCH  10  12
ENDBRANCH   9  10
ENDBRANCH   7   9
ENDBRANCH   4   5
BRANCH   4  14
ATOM     14  N   UNK A   1      -7.018  -1.595 129.870  0.00  0.00    +0.000 N 
ATOM     15  C   UNK A   1      -7.398  -2.923 129.778  0.00  0.00    +0.000 C 
ATOM     16  O   UNK A   1      -8.489  -3.245 129.313  0.00  0.00    +0.000 OA
ATOM     17  H   UNK A   1      -6.043  -1.392 130.059  0.00  0.00    +0.000 HD
BRANCH  15  18
ATOM     18  C   UNK A   1      -6.392  -3.952 130.307  0.00  0.00    +0.000 C 
BRANCH  18  19
ATOM     19  C   UNK A   1      -5.406  -3.294 131.296  0.00  0.00    +0.000 C 
BRANCH  19  20
ATOM     20  C   UNK A   1      -3.934  -3.683 131.065  0.00  0.00    +0.000 C 
BRANCH  20  21
ATOM     21  N   UNK A   1      -3.137  -3.363 132.268  0.00  0.00    +0.000 NA
ATOM     22  H   UNK A   1      -2.499  -4.107 132.534  0.00  0.00    +0.000 HD
ATOM     23  H   UNK A   1      -3.703  -3.013 133.036  0.00  0.00    +0.000 HD
ENDBRANCH  20  21
BRANCH  20  24
ATOM     24  C   UNK A   1      -3.386  -2.958 129.820  0.00  0.00    +0.000 C 
ATOM     25  O   UNK A   1      -2.463  -3.394 129.137  0.00  0.00    +0.000 OA
BRANCH  24  26
ATOM     26  O   UNK A   1      -3.996  -1.788 129.515  0.00  0.00    +0.000 OA
ATOM     27  H   UNK A   1      -4.334  -1.325 130.302  0.00  0.00    +0.000 HD
ENDBRANCH  24  26
ENDBRANCH  20  24
ENDBRANCH  19  20
ENDBRANCH  18  19
ENDBRANCH  15  18
ENDBRANCH   4  14
ENDBRANCH   3   4
ENDBRANCH   2   3
ENDBRANCH   1   2
BRANCH   1  28
ATOM     28  C   UNK A   1     -10.204   3.185 130.711  0.00  0.00    +0.000 C 
BRANCH  28  29
ATOM     29  C   UNK A   1      -9.740   4.656 130.522  0.00  0.00    +0.000 C 
BRANCH  29  32
ATOM     30  C   UNK A   1     -11.420   6.402 131.155  0.00  0.00    +0.000 C 
ATOM     31  O   UNK A   1     -10.911   6.575 132.259  0.00  0.00    +0.000 OA
ATOM     32  N   UNK A   1     -10.877   5.557 130.212  0.00  0.00    +0.000 N 
ATOM     33  H   UNK A   1     -11.101   5.688 129.227  0.00  0.00    +0.000 HD
BRANCH  30  34
ATOM     34  C   UNK A   1     -12.665   7.170 130.760  0.00  0.00    +0.000 C 
BRANCH  34  35
ATOM     35  C   UNK A   1     -12.270   8.388 129.894  0.00  0.00    +0.000 C 
BRANCH  35  36
ATOM     36  C   UNK A   1     -12.409   8.168 128.386  0.00  0.00    +0.000 C 
BRANCH  36  37
ATOM     37  N   UNK A   1     -13.099   6.878 128.108  0.00  0.00    +0.000 NA
ATOM     38  H   UNK A   1     -13.588   6.984 127.213  0.00  0.00    +0.000 HD
ATOM     39  H   UNK A   1     -13.862   6.762 128.781  0.00  0.00    +0.000 HD
ENDBRANCH  36  37
BRANCH  36  40
ATOM     40  C   UNK A   1     -11.017   8.170 127.721  0.00  0.00    +0.000 C 
ATOM     41  O   UNK A   1     -10.833   8.197 126.509  0.00  0.00    +0.000 OA
BRANCH  40  42
ATOM     42  O   UNK A   1      -9.994   8.148 128.611  0.00  0.00    +0.000 OA
ATOM     43  H   UNK A   1      -9.233   7.681 128.196  0.00  0.00    +0.000 HD
ENDBRANCH  40  42
ENDBRANCH  36  40
ENDBRANCH  35  36
ENDBRANCH  34  35
ENDBRANCH  30  34
ENDBRANCH  29  32
BRANCH  29  44
ATOM     44  C   UNK A   1      -8.677   4.720 129.370  0.00  0.00    +0.000 C 
ATOM     45  O   UNK A   1      -8.895   5.316 128.316  0.00  0.00    +0.000 OA
ATOM     46  N   GLY A   2      -7.469   4.081 129.621  0.00  0.00    +0.000 N 
ATOM     47  H   GLY A   2      -7.326   3.702 130.540  0.00  0.00    +0.000 HD
BRANCH  46  48
ATOM     48  CA  GLY A   2      -6.384   4.047 128.624  0.00  0.00    +0.000 C 
BRANCH  48  49
ATOM     49  C   GLY A   2      -5.146   4.931 128.837  0.00  0.00    +0.000 C 
ATOM     50  OXT GLY A   2      -5.188   5.991 129.451  0.00  0.00    +0.000 OA
BRANCH  49  51
ATOM     51  O   GLY A   2      -3.981   4.489 128.319  0.00  0.00    +0.000 OA
ATOM     52  H   GLY A   2      -3.934   3.573 128.014  0.00  0.00    +0.000 HD
ENDBRANCH  49  51
ENDBRANCH  48  49
ENDBRANCH  46  48
ENDBRANCH  29  44
ENDBRANCH  28  29
ENDBRANCH   1  28
TORSDOF 27
ENDMDL
MODEL 9
REMARK VINA RESULT:      -6.0      1.839      3.038
REMARK  Name = Glutathione disulfide
REMARK  27 active torsions:
REMARK  status: ('A' for Active; 'I' for Inactive)
REMARK    1  A    between atoms: N_1  and  C_2
REMARK    2  A    between atoms: C_2  and  C_3
REMARK    3  A    between atoms: C_2  and  C_38
REMARK    4  A    between atoms: C_3  and  C_4
REMARK    5  A    between atoms: C_4  and  C_5
REMARK    6  A    between atoms: N_7  and  C_8
REMARK    7  A    between atoms: C_8  and  C_9
REMARK    8  A    between atoms: C_8  and  C_31
REMARK    9  A    between atoms: C_9  and  S_10
REMARK   10  A    between atoms: S_10  and  S_11
REMARK   11  A    between atoms: S_11  and  C_12
REMARK   12  A    between atoms: C_12  and  C_13
REMARK   13  A    between atoms: C_13  and  N_14
REMARK   14  A    between atoms: C_13  and  C_24
REMARK   15  A    between atoms: C_15  and  C_17
REMARK   16  A    between atoms: C_17  and  C_18
REMARK   17  A    between atoms: C_18  and  C_19
REMARK   18  A    between atoms: C_19  and  N_20
REMARK   19  A    between atoms: C_19  and  C_21
REMARK   20  A    between atoms: C_21  and  O_22
REMARK   21  A    between atoms: N_26  and  CA_27
REMARK   22  A    between atoms: CA_27  and  C_28
REMARK   23  A    between atoms: C_28  and  O_29
REMARK   24  A    between atoms: N_33  and  CA_34
REMARK   25  A    between atoms: CA_34  and  C_35
REMARK   26  A    between atoms: C_35  and  O_36
REMARK   27  A    between atoms: C_38  and  O_39
REMARK                            x       y       z     vdW  Elec       q    Type
REMARK                         _______ _______ _______ _____ _____    ______ ____
ROOT
ATOM      1  S   UNK A   1      -9.763   1.892 131.866  0.00  0.00    +0.000 S 
ENDROOT
BRANCH   1   2
ATOM      2  S   UNK A   1      -7.750   1.611 131.720  0.00  0.00    +0.000 S 
BRANCH   2   3
ATOM      3  C   UNK A   1      -7.627   0.118 130.609  0.00  0.00    +0.000 C 
BRANCH   3   4
ATOM      4  C   UNK A   1      -6.847   0.343 129.288  0.00  0.00    +0.000 C 
BRANCH   4   5
ATOM      5  C   UNK A   1      -7.779   0.243 128.031  0.00  0.00    +0.000 C 
ATOM      6  O   UNK A   1      -8.645   1.069 127.759  0.00  0.00    +0.000 OA
ATOM      7  N   GLY A   2      -7.563  -0.888 127.251  0.00  0.00    +0.000 N 
ATOM      8  H   GLY A   2      -7.001  -1.594 127.696  0.00  0.00    +0.000 HD
BRANCH   7   9
ATOM      9  CA  GLY A   2      -8.438  -1.246 126.140  0.00  0.00    +0.000 C 
BRANCH   9  10
ATOM     10  C   GLY A   2      -9.145  -2.611 126.176  0.00  0.00    +0.000 C 
ATOM     11  OXT GLY A   2      -8.940  -3.436 127.059  0.00  0.00    +0.000 OA
BRANCH  10  12
ATOM     12  O   GLY A   2      -9.982  -2.902 125.157  0.00  0.00    +0.000 OA
ATOM     13  H   GLY A   2      -9.816  -3.714 124.655  0.00  0.00    +0.000 HD
ENDBRANCH  10  12
ENDBRANCH   9  10
ENDBRANCH   7   9
ENDBRANCH   4   5
BRANCH   4  14
ATOM     14  N   UNK A   1      -6.126   1.641 129.309  0.00  0.00    +0.000 N 
ATOM     15  C   UNK A   1      -4.762   1.675 129.544  0.00  0.00    +0.000 C 
ATOM     16  O   UNK A   1      -4.142   0.662 129.858  0.00  0.00    +0.000 OA
ATOM     17  H   UNK A   1      -6.550   2.441 128.854  0.00  0.00    +0.000 HD
BRANCH  15  18
ATOM     18  C   UNK A   1      -4.088   3.045 129.408  0.00  0.00    +0.000 C 
BRANCH  18  19
ATOM     19  C   UNK A   1      -2.923   2.984 128.396  0.00  0.00    +0.000 C 
BRANCH  19  20
ATOM     20  C   UNK A   1      -3.049   3.988 127.236  0.00  0.00    +0.000 C 
BRANCH  20  21
ATOM     21  N   UNK A   1      -1.925   3.807 126.293  0.00  0.00    +0.000 NA
ATOM     22  H   UNK A   1      -2.203   3.373 125.418  0.00  0.00    +0.000 HD
ATOM     23  H   UNK A   1      -1.112   3.377 126.725  0.00  0.00    +0.000 HD
ENDBRANCH  20  21
BRANCH  20  24
ATOM     24  C   UNK A   1      -3.094   5.428 127.785  0.00  0.00    +0.000 C 
ATOM     25  O   UNK A   1      -2.184   5.929 128.439  0.00  0.00    +0.000 OA
BRANCH  24  26
ATOM     26  O   UNK A   1      -4.220   6.124 127.497  0.00  0.00    +0.000 OA
ATOM     27  H   UNK A   1      -4.988   5.546 127.338  0.00  0.00    +0.000 HD
ENDBRANCH  24  26
ENDBRANCH  20  24
ENDBRANCH  19  20
ENDBRANCH  18  19
ENDBRANCH  15  18
ENDBRANCH   4  14
ENDBRANCH   3   4
ENDBRANCH   2   3
ENDBRANCH   1   2
BRANCH   1  28
ATOM     28  C   UNK A   1     -10.251   2.998 130.474  0.00  0.00    +0.000 C 
BRANCH  28  29
ATOM     29  C   UNK A   1      -9.880   4.493 130.687  0.00  0.00    +0.000 C 
BRANCH  29  32
ATOM     30  C   UNK A   1     -11.305   6.378 131.514  0.00  0.00    +0.000 C 
ATOM     31  O   UNK A   1     -10.480   6.707 132.362  0.00  0.00    +0.000 OA
ATOM     32  N   UNK A   1     -11.071   5.373 130.602  0.00  0.00    +0.000 N 
ATOM     33  H   UNK A   1     -11.593   5.352 129.728  0.00  0.00    +0.000 HD
BRANCH  30  34
ATOM     34  C   UNK A   1     -12.623   7.117 131.405  0.00  0.00    +0.000 C 
BRANCH  34  35
ATOM     35  C   UNK A   1     -12.936   7.403 129.919  0.00  0.00    +0.000 C 
BRANCH  35  36
ATOM     36  C   UNK A   1     -12.028   8.448 129.267  0.00  0.00    +0.000 C 
BRANCH  36  37
ATOM     37  N   UNK A   1     -12.806   9.669 128.914  0.00  0.00    +0.000 NA
ATOM     38  H   UNK A   1     -12.754   9.776 127.897  0.00  0.00    +0.000 HD
ATOM     39  H   UNK A   1     -12.303  10.490 129.264  0.00  0.00    +0.000 HD
ENDBRANCH  36  37
BRANCH  36  40
ATOM     40  C   UNK A   1     -11.372   7.863 127.999  0.00  0.00    +0.000 C 
ATOM     41  O   UNK A   1     -10.772   8.531 127.163  0.00  0.00    +0.000 OA
BRANCH  40  42
ATOM     42  O   UNK A   1     -11.512   6.518 127.891  0.00  0.00    +0.000 OA
ATOM     43  H   UNK A   1     -11.864   6.315 126.995  0.00  0.00    +0.000 HD
ENDBRANCH  40  42
ENDBRANCH  36  40
ENDBRANCH  35  36
ENDBRANCH  34  35
ENDBRANCH  30  34
ENDBRANCH  29  32
BRANCH  29  44
ATOM     44  C   UNK A   1      -8.819   4.921 129.614  0.00  0.00    +0.000 C 
ATOM     45  O   UNK A   1      -8.190   5.975 129.707  0.00  0.00    +0.000 OA
ATOM     46  N   GLY A   2      -8.619   4.031 128.566  0.00  0.00    +0.000 N 
ATOM     47  H   GLY A   2      -9.095   3.148 128.610  0.00  0.00    +0.000 HD
BRANCH  46  48
ATOM     48  CA  GLY A   2      -7.664   4.310 127.479  0.00  0.00    +0.000 C 
BRANCH  48  49
ATOM     49  C   GLY A   2      -8.183   4.415 126.037  0.00  0.00    +0.000 C 
ATOM     50  OXT GLY A   2      -8.571   3.441 125.401  0.00  0.00    +0.000 OA
BRANCH  49  51
ATOM     51  O   GLY A   2      -8.204   5.644 125.482  0.00  0.00    +0.000 OA
ATOM     52  H   GLY A   2      -7.442   6.223 125.621  0.00  0.00    +0.000 HD
ENDBRANCH  49  51
ENDBRANCH  48  49
ENDBRANCH  46  48
ENDBRANCH  29  44
ENDBRANCH  28  29
ENDBRANCH   1  28
TORSDOF 27
ENDMDL
