MODEL 1
REMARK VINA RESULT:      -4.8      0.000      0.000
REMARK  Name = Glutamic acid
REMARK  7 active torsions:
REMARK  status: ('A' for Active; 'I' for Inactive)
REMARK    1  A    between atoms: N_1  and  CA_2
REMARK    2  A    between atoms: CA_2  and  CB_3
REMARK    3  A    between atoms: CA_2  and  C_8
REMARK    4  A    between atoms: CB_3  and  CG_4
REMARK    5  A    between atoms: CG_4  and  CD_5
REMARK    6  A    between atoms: CD_5  and  OE1_6
REMARK    7  A    between atoms: C_8  and  O_9
REMARK                            x       y       z     vdW  Elec       q    Type
REMARK                         _______ _______ _______ _____ _____    ______ ____
ROOT
ATOM      1  CA  GLU A   1     -11.121   6.853 130.033  0.00  0.00    +0.000 C 
ENDROOT
BRANCH   1   2
ATOM      2  N   GLU A   1     -10.897   5.530 129.396  0.00  0.00    +0.000 NA
ATOM      3  H1  GLU A   1      -9.909   5.283 129.533  0.00  0.00    +0.000 HD
ATOM      4  H2  GLU A   1     -10.984   5.616 128.380  0.00  0.00    +0.000 HD
ENDBRANCH   1   2
BRANCH   1   5
ATOM      5  C   GLU A   1     -12.026   6.699 131.269  0.00  0.00    +0.000 C 
ATOM      6  OXT GLU A   1     -13.155   7.171 131.346  0.00  0.00    +0.000 OA
BRANCH   5   7
ATOM      7  O   GLU A   1     -11.482   5.945 132.252  0.00  0.00    +0.000 OA
ATOM      8  H   GLU A   1     -11.787   6.290 133.122  0.00  0.00    +0.000 HD
ENDBRANCH   5   7
ENDBRANCH   1   5
BRANCH   1   9
ATOM      9  CB  GLU A   1     -11.784   7.837 129.060  0.00  0.00    +0.000 C 
BRANCH   9  10
ATOM     10  CG  GLU A   1     -10.896   8.252 127.891  0.00  0.00    +0.000 C 
BRANCH  10  11
ATOM     11  CD  GLU A   1     -11.205   7.604 126.560  0.00  0.00    +0.000 C 
ATOM     12  OE2 GLU A   1     -10.781   8.072 125.509  0.00  0.00    +0.000 OA
BRANCH  11  13
ATOM     13  OE1 GLU A   1     -11.945   6.483 126.572  0.00  0.00    +0.000 OA
ATOM     14  HE1 GLU A   1     -12.853   6.520 126.222  0.00  0.00    +0.000 HD
ENDBRANCH  11  13
ENDBRANCH  10  11
ENDBRANCH   9  10
ENDBRANCH   1   9
TORSDOF 7
ENDMDL
MODEL 2
REMARK VINA RESULT:      -4.8      1.990      4.286
REMARK  Name = Glutamic acid
REMARK  7 active torsions:
REMARK  status: ('A' for Active; 'I' for Inactive)
REMARK    1  A    between atoms: N_1  and  CA_2
REMARK    2  A    between atoms: CA_2  and  CB_3
REMARK    3  A    between atoms: CA_2  and  C_8
REMARK    4  A    between atoms: CB_3  and  CG_4
REMARK    5  A    between atoms: CG_4  and  CD_5
REMARK    6  A    between atoms: CD_5  and  OE1_6
REMARK    7  A    between atoms: C_8  and  O_9
REMARK                            x       y       z     vdW  Elec       q    Type
REMARK                         _______ _______ _______ _____ _____    ______ ____
ROOT
ATOM      1  CA  GLU A   1     -12.637   7.449 127.398  0.00  0.00    +0.000 C 
ENDROOT
BRANCH   1   2
ATOM      2  N   GLU A   1     -11.901   6.599 126.426  0.00  0.00    +0.000 NA
ATOM      3  H1  GLU A   1     -10.909   6.860 126.474  0.00  0.00    +0.000 HD
ATOM      4  H2  GLU A   1     -12.171   6.851 125.472  0.00  0.00    +0.000 HD
ENDBRANCH   1   2
BRANCH   1   5
ATOM      5  C   GLU A   1     -11.699   8.524 127.977  0.00  0.00    +0.000 C 
ATOM      6  OXT GLU A   1     -10.487   8.540 127.790  0.00  0.00    +0.000 OA
BRANCH   5   7
ATOM      7  O   GLU A   1     -12.342   9.491 128.671  0.00  0.00    +0.000 OA
ATOM      8  H   GLU A   1     -12.695  10.156 128.037  0.00  0.00    +0.000 HD
ENDBRANCH   5   7
ENDBRANCH   1   5
BRANCH   1   9
ATOM      9  CB  GLU A   1     -13.198   6.614 128.556  0.00  0.00    +0.000 C 
BRANCH   9  10
ATOM     10  CG  GLU A   1     -12.159   6.214 129.598  0.00  0.00    +0.000 C 
BRANCH  10  11
ATOM     11  CD  GLU A   1     -12.380   6.748 130.996  0.00  0.00    +0.000 C 
ATOM     12  OE2 GLU A   1     -12.923   7.831 131.187  0.00  0.00    +0.000 OA
BRANCH  11  13
ATOM     13  OE1 GLU A   1     -11.979   5.982 132.025  0.00  0.00    +0.000 OA
ATOM     14  HE1 GLU A   1     -11.106   5.554 131.973  0.00  0.00    +0.000 HD
ENDBRANCH  11  13
ENDBRANCH  10  11
ENDBRANCH   9  10
ENDBRANCH   1   9
TORSDOF 7
ENDMDL
MODEL 3
REMARK VINA RESULT:      -4.7      1.655      4.339
REMARK  Name = Glutamic acid
REMARK  7 active torsions:
REMARK  status: ('A' for Active; 'I' for Inactive)
REMARK    1  A    between atoms: N_1  and  CA_2
REMARK    2  A    between atoms: CA_2  and  CB_3
REMARK    3  A    between atoms: CA_2  and  C_8
REMARK    4  A    between atoms: CB_3  and  CG_4
REMARK    5  A    between atoms: CG_4  and  CD_5
REMARK    6  A    between atoms: CD_5  and  OE1_6
REMARK    7  A    between atoms: C_8  and  O_9
REMARK                            x       y       z     vdW  Elec       q    Type
REMARK                         _______ _______ _______ _____ _____    ______ ____
ROOT
ATOM      1  CA  GLU A   1     -12.000   8.236 127.709  0.00  0.00    +0.000 C 
ENDROOT
BRANCH   1   2
ATOM      2  N   GLU A   1     -13.240   7.419 127.656  0.00  0.00    +0.000 NA
ATOM      3  H1  GLU A   1     -13.881   7.782 128.373  0.00  0.00    +0.000 HD
ATOM      4  H2  GLU A   1     -13.041   6.467 127.972  0.00  0.00    +0.000 HD
ENDBRANCH   1   2
BRANCH   1   5
ATOM      5  C   GLU A   1     -10.927   7.629 126.786  0.00  0.00    +0.000 C 
ATOM      6  OXT GLU A   1     -10.773   7.959 125.615  0.00  0.00    +0.000 OA
BRANCH   5   7
ATOM      7  O   GLU A   1     -10.125   6.729 127.402  0.00  0.00    +0.000 OA
ATOM      8  H   GLU A   1     -10.600   5.869 127.459  0.00  0.00    +0.000 HD
ENDBRANCH   5   7
ENDBRANCH   1   5
BRANCH   1   9
ATOM      9  CB  GLU A   1     -11.437   8.306 129.134  0.00  0.00    +0.000 C 
BRANCH   9  10
ATOM     10  CG  GLU A   1     -12.331   7.663 130.190  0.00  0.00    +0.000 C 
BRANCH  10  11
ATOM     11  CD  GLU A   1     -11.991   6.239 130.568  0.00  0.00    +0.000 C 
ATOM     12  OE2 GLU A   1     -11.727   5.398 129.716  0.00  0.00    +0.000 OA
BRANCH  11  13
ATOM     13  OE1 GLU A   1     -11.969   5.931 131.876  0.00  0.00    +0.000 OA
ATOM     14  HE1 GLU A   1     -11.333   6.391 132.452  0.00  0.00    +0.000 HD
ENDBRANCH  11  13
ENDBRANCH  10  11
ENDBRANCH   9  10
ENDBRANCH   1   9
TORSDOF 7
ENDMDL
MODEL 4
REMARK VINA RESULT:      -4.7      1.903      2.070
REMARK  Name = Glutamic acid
REMARK  7 active torsions:
REMARK  status: ('A' for Active; 'I' for Inactive)
REMARK    1  A    between atoms: N_1  and  CA_2
REMARK    2  A    between atoms: CA_2  and  CB_3
REMARK    3  A    between atoms: CA_2  and  C_8
REMARK    4  A    between atoms: CB_3  and  CG_4
REMARK    5  A    between atoms: CG_4  and  CD_5
REMARK    6  A    between atoms: CD_5  and  OE1_6
REMARK    7  A    between atoms: C_8  and  O_9
REMARK                            x       y       z     vdW  Elec       q    Type
REMARK                         _______ _______ _______ _____ _____    ______ ____
ROOT
ATOM      1  CA  GLU A   1     -12.867   7.388 130.070  0.00  0.00    +0.000 C 
ENDROOT
BRANCH   1   2
ATOM      2  N   GLU A   1     -12.668   8.846 129.867  0.00  0.00    +0.000 NA
ATOM      3  H1  GLU A   1     -13.169   9.111 129.010  0.00  0.00    +0.000 HD
ATOM      4  H2  GLU A   1     -11.688   9.033 129.640  0.00  0.00    +0.000 HD
ENDBRANCH   1   2
BRANCH   1   5
ATOM      5  C   GLU A   1     -11.704   6.804 130.894  0.00  0.00    +0.000 C 
ATOM      6  OXT GLU A   1     -10.523   7.009 130.640  0.00  0.00    +0.000 OA
BRANCH   5   7
ATOM      7  O   GLU A   1     -12.106   6.082 131.966  0.00  0.00    +0.000 OA
ATOM      8  H   GLU A   1     -11.368   6.046 132.617  0.00  0.00    +0.000 HD
ENDBRANCH   5   7
ENDBRANCH   1   5
BRANCH   1   9
ATOM      9  CB  GLU A   1     -12.940   6.642 128.731  0.00  0.00    +0.000 C 
BRANCH   9  10
ATOM     10  CG  GLU A   1     -12.505   7.475 127.529  0.00  0.00    +0.000 C 
BRANCH  10  11
ATOM     11  CD  GLU A   1     -11.029   7.442 127.198  0.00  0.00    +0.000 C 
ATOM     12  OE2 GLU A   1     -10.593   6.732 126.298  0.00  0.00    +0.000 OA
BRANCH  11  13
ATOM     13  OE1 GLU A   1     -10.214   8.236 127.912  0.00  0.00    +0.000 OA
ATOM     14  HE1 GLU A   1      -9.282   7.974 128.015  0.00  0.00    +0.000 HD
ENDBRANCH  11  13
ENDBRANCH  10  11
ENDBRANCH   9  10
ENDBRANCH   1   9
TORSDOF 7
ENDMDL
MODEL 5
REMARK VINA RESULT:      -4.6      2.107      4.517
REMARK  Name = Glutamic acid
REMARK  7 active torsions:
REMARK  status: ('A' for Active; 'I' for Inactive)
REMARK    1  A    between atoms: N_1  and  CA_2
REMARK    2  A    between atoms: CA_2  and  CB_3
REMARK    3  A    between atoms: CA_2  and  C_8
REMARK    4  A    between atoms: CB_3  and  CG_4
REMARK    5  A    between atoms: CG_4  and  CD_5
REMARK    6  A    between atoms: CD_5  and  OE1_6
REMARK    7  A    between atoms: C_8  and  O_9
REMARK                            x       y       z     vdW  Elec       q    Type
REMARK                         _______ _______ _______ _____ _____    ______ ____
ROOT
ATOM      1  CA  GLU A   1     -12.103   8.556 129.341  0.00  0.00    +0.000 C 
ENDROOT
BRANCH   1   2
ATOM      2  N   GLU A   1     -12.881   9.670 128.742  0.00  0.00    +0.000 NA
ATOM      3  H1  GLU A   1     -12.518  10.548 129.133  0.00  0.00    +0.000 HD
ATOM      4  H2  GLU A   1     -13.847   9.638 129.079  0.00  0.00    +0.000 HD
ENDBRANCH   1   2
BRANCH   1   5
ATOM      5  C   GLU A   1     -11.301   7.823 128.250  0.00  0.00    +0.000 C 
ATOM      6  OXT GLU A   1     -11.217   6.602 128.175  0.00  0.00    +0.000 OA
BRANCH   5   7
ATOM      7  O   GLU A   1     -10.736   8.650 127.340  0.00  0.00    +0.000 OA
ATOM      8  H   GLU A   1     -10.686   9.555 127.724  0.00  0.00    +0.000 HD
ENDBRANCH   5   7
ENDBRANCH   1   5
BRANCH   1   9
ATOM      9  CB  GLU A   1     -13.021   7.543 130.037  0.00  0.00    +0.000 C 
BRANCH   9  10
ATOM     10  CG  GLU A   1     -12.655   7.264 131.491  0.00  0.00    +0.000 C 
BRANCH  10  11
ATOM     11  CD  GLU A   1     -11.492   6.322 131.713  0.00  0.00    +0.000 C 
ATOM     12  OE2 GLU A   1     -10.639   6.551 132.564  0.00  0.00    +0.000 OA
BRANCH  11  13
ATOM     13  OE1 GLU A   1     -11.439   5.211 130.959  0.00  0.00    +0.000 OA
ATOM     14  HE1 GLU A   1     -10.961   4.437 131.303  0.00  0.00    +0.000 HD
ENDBRANCH  11  13
ENDBRANCH  10  11
ENDBRANCH   9  10
ENDBRANCH   1   9
TORSDOF 7
ENDMDL
MODEL 6
REMARK VINA RESULT:      -4.5      1.843      2.192
REMARK  Name = Glutamic acid
REMARK  7 active torsions:
REMARK  status: ('A' for Active; 'I' for Inactive)
REMARK    1  A    between atoms: N_1  and  CA_2
REMARK    2  A    between atoms: CA_2  and  CB_3
REMARK    3  A    between atoms: CA_2  and  C_8
REMARK    4  A    between atoms: CB_3  and  CG_4
REMARK    5  A    between atoms: CG_4  and  CD_5
REMARK    6  A    between atoms: CD_5  and  OE1_6
REMARK    7  A    between atoms: C_8  and  O_9
REMARK                            x       y       z     vdW  Elec       q    Type
REMARK                         _______ _______ _______ _____ _____    ______ ____
ROOT
ATOM      1  CA  GLU A   1     -11.459   6.535 130.450  0.00  0.00    +0.000 C 
ENDROOT
BRANCH   1   2
ATOM      2  N   GLU A   1     -12.186   6.253 131.715  0.00  0.00    +0.000 NA
ATOM      3  H1  GLU A   1     -13.176   6.112 131.478  0.00  0.00    +0.000 HD
ATOM      4  H2  GLU A   1     -12.197   7.091 132.302  0.00  0.00    +0.000 HD
ENDBRANCH   1   2
BRANCH   1   5
ATOM      5  C   GLU A   1      -9.965   6.773 130.740  0.00  0.00    +0.000 C 
ATOM      6  OXT GLU A   1      -9.461   6.645 131.851  0.00  0.00    +0.000 OA
BRANCH   5   7
ATOM      7  O   GLU A   1      -9.240   7.085 129.642  0.00  0.00    +0.000 OA
ATOM      8  H   GLU A   1      -8.328   7.327 129.922  0.00  0.00    +0.000 HD
ENDBRANCH   5   7
ENDBRANCH   1   5
BRANCH   1   9
ATOM      9  CB  GLU A   1     -12.023   7.775 129.745  0.00  0.00    +0.000 C 
BRANCH   9  10
ATOM     10  CG  GLU A   1     -12.682   7.482 128.401  0.00  0.00    +0.000 C 
BRANCH  10  11
ATOM     11  CD  GLU A   1     -11.759   7.448 127.203  0.00  0.00    +0.000 C 
ATOM     12  OE2 GLU A   1     -10.736   8.124 127.166  0.00  0.00    +0.000 OA
BRANCH  11  13
ATOM     13  OE1 GLU A   1     -12.090   6.634 126.186  0.00  0.00    +0.000 OA
ATOM     14  HE1 GLU A   1     -12.765   6.933 125.551  0.00  0.00    +0.000 HD
ENDBRANCH  11  13
ENDBRANCH  10  11
ENDBRANCH   9  10
ENDBRANCH   1   9
TORSDOF 7
ENDMDL
MODEL 7
REMARK VINA RESULT:      -4.3      2.715      3.991
REMARK  Name = Glutamic acid
REMARK  7 active torsions:
REMARK  status: ('A' for Active; 'I' for Inactive)
REMARK    1  A    between atoms: N_1  and  CA_2
REMARK    2  A    between atoms: CA_2  and  CB_3
REMARK    3  A    between atoms: CA_2  and  C_8
REMARK    4  A    between atoms: CB_3  and  CG_4
REMARK    5  A    between atoms: CG_4  and  CD_5
REMARK    6  A    between atoms: CD_5  and  OE1_6
REMARK    7  A    between atoms: C_8  and  O_9
REMARK                            x       y       z     vdW  Elec       q    Type
REMARK                         _______ _______ _______ _____ _____    ______ ____
ROOT
ATOM      1  CA  GLU A   1     -11.288   7.868 129.330  0.00  0.00    +0.000 C 
ENDROOT
BRANCH   1   2
ATOM      2  N   GLU A   1      -9.803   7.912 129.292  0.00  0.00    +0.000 NA
ATOM      3  H1  GLU A   1      -9.514   7.762 128.317  0.00  0.00    +0.000 HD
ATOM      4  H2  GLU A   1      -9.420   7.101 129.784  0.00  0.00    +0.000 HD
ENDBRANCH   1   2
BRANCH   1   5
ATOM      5  C   GLU A   1     -11.790   6.499 128.836  0.00  0.00    +0.000 C 
ATOM      6  OXT GLU A   1     -11.890   5.512 129.557  0.00  0.00    +0.000 OA
BRANCH   5   7
ATOM      7  O   GLU A   1     -12.167   6.494 127.537  0.00  0.00    +0.000 OA
ATOM      8  H   GLU A   1     -13.113   6.759 127.480  0.00  0.00    +0.000 HD
ENDBRANCH   5   7
ENDBRANCH   1   5
BRANCH   1   9
ATOM      9  CB  GLU A   1     -11.902   8.962 128.448  0.00  0.00    +0.000 C 
BRANCH   9  10
ATOM     10  CG  GLU A   1     -13.276   9.438 128.910  0.00  0.00    +0.000 C 
BRANCH  10  11
ATOM     11  CD  GLU A   1     -13.292  10.679 129.775  0.00  0.00    +0.000 C 
ATOM     12  OE2 GLU A   1     -13.322  10.603 130.998  0.00  0.00    +0.000 OA
BRANCH  11  13
ATOM     13  OE1 GLU A   1     -13.251  11.870 129.154  0.00  0.00    +0.000 OA
ATOM     14  HE1 GLU A   1     -13.351  12.677 129.689  0.00  0.00    +0.000 HD
ENDBRANCH  11  13
ENDBRANCH  10  11
ENDBRANCH   9  10
ENDBRANCH   1   9
TORSDOF 7
ENDMDL
MODEL 8
REMARK VINA RESULT:      -4.2      2.664      3.294
REMARK  Name = Glutamic acid
REMARK  7 active torsions:
REMARK  status: ('A' for Active; 'I' for Inactive)
REMARK    1  A    between atoms: N_1  and  CA_2
REMARK    2  A    between atoms: CA_2  and  CB_3
REMARK    3  A    between atoms: CA_2  and  C_8
REMARK    4  A    between atoms: CB_3  and  CG_4
REMARK    5  A    between atoms: CG_4  and  CD_5
REMARK    6  A    between atoms: CD_5  and  OE1_6
REMARK    7  A    between atoms: C_8  and  O_9
REMARK                            x       y       z     vdW  Elec       q    Type
REMARK                         _______ _______ _______ _____ _____    ______ ____
ROOT
ATOM      1  CA  GLU A   1     -11.218   5.957 130.435  0.00  0.00    +0.000 C 
ENDROOT
BRANCH   1   2
ATOM      2  N   GLU A   1     -11.529   5.786 131.878  0.00  0.00    +0.000 NA
ATOM      3  H1  GLU A   1     -10.670   5.469 132.344  0.00  0.00    +0.000 HD
ATOM      4  H2  GLU A   1     -12.174   5.002 132.003  0.00  0.00    +0.000 HD
ENDBRANCH   1   2
BRANCH   1   5
ATOM      5  C   GLU A   1      -9.930   6.783 130.265  0.00  0.00    +0.000 C 
ATOM      6  OXT GLU A   1      -9.173   7.057 131.190  0.00  0.00    +0.000 OA
BRANCH   5   7
ATOM      7  O   GLU A   1      -9.675   7.137 128.984  0.00  0.00    +0.000 OA
ATOM      8  H   GLU A   1      -9.605   6.321 128.438  0.00  0.00    +0.000 HD
ENDBRANCH   5   7
ENDBRANCH   1   5
BRANCH   1   9
ATOM      9  CB  GLU A   1     -12.358   6.672 129.699  0.00  0.00    +0.000 C 
BRANCH   9  10
ATOM     10  CG  GLU A   1     -12.786   7.988 130.341  0.00  0.00    +0.000 C 
BRANCH  10  11
ATOM     11  CD  GLU A   1     -12.638   9.224 129.481  0.00  0.00    +0.000 C 
ATOM     12  OE2 GLU A   1     -13.198  10.275 129.774  0.00  0.00    +0.000 OA
BRANCH  11  13
ATOM     13  OE1 GLU A   1     -11.853   9.136 128.395  0.00  0.00    +0.000 OA
ATOM     14  HE1 GLU A   1     -11.426   9.945 128.062  0.00  0.00    +0.000 HD
ENDBRANCH  11  13
ENDBRANCH  10  11
ENDBRANCH   9  10
ENDBRANCH   1   9
TORSDOF 7
ENDMDL
MODEL 9
REMARK VINA RESULT:      -4.1      2.406      2.864
REMARK  Name = Glutamic acid
REMARK  7 active torsions:
REMARK  status: ('A' for Active; 'I' for Inactive)
REMARK    1  A    between atoms: N_1  and  CA_2
REMARK    2  A    between atoms: CA_2  and  CB_3
REMARK    3  A    between atoms: CA_2  and  C_8
REMARK    4  A    between atoms: CB_3  and  CG_4
REMARK    5  A    between atoms: CG_4  and  CD_5
REMARK    6  A    between atoms: CD_5  and  OE1_6
REMARK    7  A    between atoms: C_8  and  O_9
REMARK                            x       y       z     vdW  Elec       q    Type
REMARK                         _______ _______ _______ _____ _____    ______ ____
ROOT
ATOM      1  CA  GLU A   1     -11.666   6.006 131.246  0.00  0.00    +0.000 C 
ENDROOT
BRANCH   1   2
ATOM      2  N   GLU A   1     -10.925   5.917 132.531  0.00  0.00    +0.000 NA
ATOM      3  H1  GLU A   1     -11.295   6.646 133.153  0.00  0.00    +0.000 HD
ATOM      4  H2  GLU A   1      -9.951   6.193 132.388  0.00  0.00    +0.000 HD
ENDBRANCH   1   2
BRANCH   1   5
ATOM      5  C   GLU A   1     -11.056   5.039 130.215  0.00  0.00    +0.000 C 
ATOM      6  OXT GLU A   1     -10.213   5.372 129.389  0.00  0.00    +0.000 OA
BRANCH   5   7
ATOM      7  O   GLU A   1     -11.496   3.765 130.335  0.00  0.00    +0.000 OA
ATOM      8  H   GLU A   1     -12.442   3.730 130.067  0.00  0.00    +0.000 HD
ENDBRANCH   5   7
ENDBRANCH   1   5
BRANCH   1   9
ATOM      9  CB  GLU A   1     -11.620   7.427 130.672  0.00  0.00    +0.000 C 
BRANCH   9  10
ATOM     10  CG  GLU A   1     -12.757   7.748 129.707  0.00  0.00    +0.000 C 
BRANCH  10  11
ATOM     11  CD  GLU A   1     -12.447   8.762 128.629  0.00  0.00    +0.000 C 
ATOM     12  OE2 GLU A   1     -11.660   8.510 127.723  0.00  0.00    +0.000 OA
BRANCH  11  13
ATOM     13  OE1 GLU A   1     -13.082   9.945 128.687  0.00  0.00    +0.000 OA
ATOM     14  HE1 GLU A   1     -13.631  10.140 129.467  0.00  0.00    +0.000 HD
ENDBRANCH  11  13
ENDBRANCH  10  11
ENDBRANCH   9  10
ENDBRANCH   1   9
TORSDOF 7
ENDMDL
