MODEL 1
REMARK VINA RESULT:      -5.5      0.000      0.000
REMARK  Name = Glutathione
REMARK  13 active torsions:
REMARK  status: ('A' for Active; 'I' for Inactive)
REMARK    1  A    between atoms: N_1  and  C_2
REMARK    2  A    between atoms: C_2  and  C_3
REMARK    3  A    between atoms: C_2  and  C_18
REMARK    4  A    between atoms: C_3  and  C_4
REMARK    5  A    between atoms: C_4  and  C_5
REMARK    6  A    between atoms: N_7  and  C_8
REMARK    7  A    between atoms: C_8  and  C_9
REMARK    8  A    between atoms: C_8  and  C_11
REMARK    9  A    between atoms: C_9  and  S_10
REMARK   10  A    between atoms: N_13  and  CA_14
REMARK   11  A    between atoms: CA_14  and  C_15
REMARK   12  A    between atoms: C_15  and  O_16
REMARK   13  A    between atoms: C_18  and  O_19
REMARK                            x       y       z     vdW  Elec       q    Type
REMARK                         _______ _______ _______ _____ _____    ______ ____
ROOT
ATOM      1  C   UNK A   1     -10.990   6.163 131.425  0.00  0.00    +0.000 C 
ATOM      2  O   UNK A   1     -10.256   6.481 132.357  0.00  0.00    +0.000 OA
ATOM      3  N   UNK A   1     -10.644   5.170 130.537  0.00  0.00    +0.000 N 
ATOM      4  H   UNK A   1     -11.102   5.107 129.630  0.00  0.00    +0.000 HD
ENDROOT
BRANCH   1   5
ATOM      5  C   UNK A   1     -12.303   6.879 131.162  0.00  0.00    +0.000 C 
BRANCH   5   6
ATOM      6  C   UNK A   1     -12.465   7.144 129.652  0.00  0.00    +0.000 C 
BRANCH   6   7
ATOM      7  C   UNK A   1     -11.650   8.324 129.115  0.00  0.00    +0.000 C 
BRANCH   7   8
ATOM      8  N   UNK A   1     -12.545   9.454 128.731  0.00  0.00    +0.000 NA
ATOM      9  H   UNK A   1     -12.393  10.203 129.414  0.00  0.00    +0.000 HD
ATOM     10  H   UNK A   1     -13.517   9.174 128.898  0.00  0.00    +0.000 HD
ENDBRANCH   7   8
BRANCH   7  11
ATOM     11  C   UNK A   1     -10.823   7.883 127.887  0.00  0.00    +0.000 C 
ATOM     12  O   UNK A   1     -10.979   8.321 126.754  0.00  0.00    +0.000 OA
BRANCH  11  13
ATOM     13  O   UNK A   1      -9.884   6.950 128.185  0.00  0.00    +0.000 OA
ATOM     14  H   UNK A   1      -9.873   6.835 129.163  0.00  0.00    +0.000 HD
ENDBRANCH  11  13
ENDBRANCH   7  11
ENDBRANCH   6   7
ENDBRANCH   5   6
ENDBRANCH   1   5
BRANCH   3  15
ATOM     15  C   UNK A   1      -9.451   4.330 130.748  0.00  0.00    +0.000 C 
BRANCH  15  16
ATOM     16  C   UNK A   1      -8.938   3.774 129.372  0.00  0.00    +0.000 C 
ATOM     17  O   UNK A   1      -9.250   2.656 128.964  0.00  0.00    +0.000 OA
ATOM     18  N   GLY A   2      -8.119   4.627 128.643  0.00  0.00    +0.000 N 
ATOM     19  H   GLY A   2      -7.976   5.553 129.007  0.00  0.00    +0.000 HD
BRANCH  18  20
ATOM     20  CA  GLY A   2      -7.535   4.229 127.352  0.00  0.00    +0.000 C 
BRANCH  20  21
ATOM     21  C   GLY A   2      -7.969   4.964 126.074  0.00  0.00    +0.000 C 
ATOM     22  OXT GLY A   2      -9.144   5.166 125.794  0.00  0.00    +0.000 OA
BRANCH  21  23
ATOM     23  O   GLY A   2      -6.988   5.388 125.251  0.00  0.00    +0.000 OA
ATOM     24  H   GLY A   2      -7.045   5.147 124.316  0.00  0.00    +0.000 HD
ENDBRANCH  21  23
ENDBRANCH  20  21
ENDBRANCH  18  20
ENDBRANCH  15  16
BRANCH  15  25
ATOM     25  C   UNK A   1      -9.735   3.122 131.674  0.00  0.00    +0.000 C 
BRANCH  25  26
ATOM     26  S   UNK A   1      -9.006   3.035 133.344  0.00  0.00    +0.000 S 
ATOM     27  H   UNK A   1      -7.731   3.303 132.998  0.00  0.00    +0.000 HD
ENDBRANCH  25  26
ENDBRANCH  15  25
ENDBRANCH   3  15
TORSDOF 13
ENDMDL
MODEL 2
REMARK VINA RESULT:      -5.3      1.914      4.789
REMARK  Name = Glutathione
REMARK  13 active torsions:
REMARK  status: ('A' for Active; 'I' for Inactive)
REMARK    1  A    between atoms: N_1  and  C_2
REMARK    2  A    between atoms: C_2  and  C_3
REMARK    3  A    between atoms: C_2  and  C_18
REMARK    4  A    between atoms: C_3  and  C_4
REMARK    5  A    between atoms: C_4  and  C_5
REMARK    6  A    between atoms: N_7  and  C_8
REMARK    7  A    between atoms: C_8  and  C_9
REMARK    8  A    between atoms: C_8  and  C_11
REMARK    9  A    between atoms: C_9  and  S_10
REMARK   10  A    between atoms: N_13  and  CA_14
REMARK   11  A    between atoms: CA_14  and  C_15
REMARK   12  A    between atoms: C_15  and  O_16
REMARK   13  A    between atoms: C_18  and  O_19
REMARK                            x       y       z     vdW  Elec       q    Type
REMARK                         _______ _______ _______ _____ _____    ______ ____
ROOT
ATOM      1  C   UNK A   1      -8.622   3.702 129.352  0.00  0.00    +0.000 C 
ATOM      2  O   UNK A   1      -9.457   2.802 129.340  0.00  0.00    +0.000 OA
ATOM      3  N   UNK A   1      -8.943   4.984 129.738  0.00  0.00    +0.000 N 
ATOM      4  H   UNK A   1      -8.343   5.765 129.481  0.00  0.00    +0.000 HD
ENDROOT
BRANCH   1   5
ATOM      5  C   UNK A   1      -7.193   3.473 128.891  0.00  0.00    +0.000 C 
BRANCH   5   6
ATOM      6  C   UNK A   1      -7.185   2.947 127.442  0.00  0.00    +0.000 C 
BRANCH   6   7
ATOM      7  C   UNK A   1      -6.771   3.976 126.386  0.00  0.00    +0.000 C 
BRANCH   7   8
ATOM      8  N   UNK A   1      -5.831   4.978 126.965  0.00  0.00    +0.000 NA
ATOM      9  H   UNK A   1      -6.345   5.861 127.050  0.00  0.00    +0.000 HD
ATOM     10  H   UNK A   1      -5.108   5.191 126.269  0.00  0.00    +0.000 HD
ENDBRANCH   7   8
BRANCH   7  11
ATOM     11  C   UNK A   1      -8.019   4.699 125.833  0.00  0.00    +0.000 C 
ATOM     12  O   UNK A   1      -8.711   5.477 126.479  0.00  0.00    +0.000 OA
BRANCH  11  13
ATOM     13  O   UNK A   1      -8.281   4.394 124.538  0.00  0.00    +0.000 OA
ATOM     14  H   UNK A   1      -8.508   3.436 124.495  0.00  0.00    +0.000 HD
ENDBRANCH  11  13
ENDBRANCH   7  11
ENDBRANCH   6   7
ENDBRANCH   5   6
ENDBRANCH   1   5
BRANCH   3  15
ATOM     15  C   UNK A   1     -10.263   5.307 130.308  0.00  0.00    +0.000 C 
BRANCH  15  16
ATOM     16  C   UNK A   1     -11.065   6.223 129.315  0.00  0.00    +0.000 C 
ATOM     17  O   UNK A   1     -12.270   6.075 129.121  0.00  0.00    +0.000 OA
ATOM     18  N   GLY A   2     -10.328   7.215 128.679  0.00  0.00    +0.000 N 
ATOM     19  H   GLY A   2      -9.366   7.322 128.951  0.00  0.00    +0.000 HD
BRANCH  18  20
ATOM     20  CA  GLY A   2     -10.936   8.125 127.696  0.00  0.00    +0.000 C 
BRANCH  20  21
ATOM     21  C   GLY A   2     -11.253   7.604 126.286  0.00  0.00    +0.000 C 
ATOM     22  OXT GLY A   2     -10.710   8.044 125.280  0.00  0.00    +0.000 OA
BRANCH  21  23
ATOM     23  O   GLY A   2     -12.173   6.621 126.191  0.00  0.00    +0.000 OA
ATOM     24  H   GLY A   2     -12.406   6.302 125.309  0.00  0.00    +0.000 HD
ENDBRANCH  21  23
ENDBRANCH  20  21
ENDBRANCH  18  20
ENDBRANCH  15  16
BRANCH  15  25
ATOM     25  C   UNK A   1     -10.157   6.053 131.661  0.00  0.00    +0.000 C 
BRANCH  25  26
ATOM     26  S   UNK A   1      -8.731   5.779 132.767  0.00  0.00    +0.000 S 
ATOM     27  H   UNK A   1      -8.733   6.986 133.366  0.00  0.00    +0.000 HD
ENDBRANCH  25  26
ENDBRANCH  15  25
ENDBRANCH   3  15
TORSDOF 13
ENDMDL
MODEL 3
REMARK VINA RESULT:      -5.3      1.661      1.961
REMARK  Name = Glutathione
REMARK  13 active torsions:
REMARK  status: ('A' for Active; 'I' for Inactive)
REMARK    1  A    between atoms: N_1  and  C_2
REMARK    2  A    between atoms: C_2  and  C_3
REMARK    3  A    between atoms: C_2  and  C_18
REMARK    4  A    between atoms: C_3  and  C_4
REMARK    5  A    between atoms: C_4  and  C_5
REMARK    6  A    between atoms: N_7  and  C_8
REMARK    7  A    between atoms: C_8  and  C_9
REMARK    8  A    between atoms: C_8  and  C_11
REMARK    9  A    between atoms: C_9  and  S_10
REMARK   10  A    between atoms: N_13  and  CA_14
REMARK   11  A    between atoms: CA_14  and  C_15
REMARK   12  A    between atoms: C_15  and  O_16
REMARK   13  A    between atoms: C_18  and  O_19
REMARK                            x       y       z     vdW  Elec       q    Type
REMARK                         _______ _______ _______ _____ _____    ______ ____
ROOT
ATOM      1  C   UNK A   1     -11.222   6.308 131.447  0.00  0.00    +0.000 C 
ATOM      2  O   UNK A   1     -10.560   6.493 132.464  0.00  0.00    +0.000 OA
ATOM      3  N   UNK A   1     -10.786   5.479 130.439  0.00  0.00    +0.000 N 
ATOM      4  H   UNK A   1     -11.184   5.548 129.505  0.00  0.00    +0.000 HD
ENDROOT
BRANCH   1   5
ATOM      5  C   UNK A   1     -12.542   7.021 131.212  0.00  0.00    +0.000 C 
BRANCH   5   6
ATOM      6  C   UNK A   1     -12.689   7.378 129.719  0.00  0.00    +0.000 C 
BRANCH   6   7
ATOM      7  C   UNK A   1     -12.030   8.696 129.304  0.00  0.00    +0.000 C 
BRANCH   7   8
ATOM      8  N   UNK A   1     -13.017   9.594 128.638  0.00  0.00    +0.000 NA
ATOM      9  H   UNK A   1     -13.197  10.373 129.279  0.00  0.00    +0.000 HD
ATOM     10  H   UNK A   1     -13.920   9.111 128.590  0.00  0.00    +0.000 HD
ENDBRANCH   7   8
BRANCH   7  11
ATOM     11  C   UNK A   1     -10.853   8.421 128.343  0.00  0.00    +0.000 C 
ATOM     12  O   UNK A   1     -10.936   8.451 127.121  0.00  0.00    +0.000 OA
BRANCH  11  13
ATOM     13  O   UNK A   1      -9.692   8.143 128.988  0.00  0.00    +0.000 OA
ATOM     14  H   UNK A   1      -8.961   8.584 128.496  0.00  0.00    +0.000 HD
ENDBRANCH  11  13
ENDBRANCH   7  11
ENDBRANCH   6   7
ENDBRANCH   5   6
ENDBRANCH   1   5
BRANCH   3  15
ATOM     15  C   UNK A   1      -9.578   4.648 130.596  0.00  0.00    +0.000 C 
BRANCH  15  16
ATOM     16  C   UNK A   1      -8.690   4.747 129.305  0.00  0.00    +0.000 C 
ATOM     17  O   UNK A   1      -9.028   5.417 128.331  0.00  0.00    +0.000 OA
ATOM     18  N   GLY A   2      -7.495   4.037 129.338  0.00  0.00    +0.000 N 
ATOM     19  H   GLY A   2      -7.253   3.580 130.200  0.00  0.00    +0.000 HD
BRANCH  18  20
ATOM     20  CA  GLY A   2      -6.576   4.008 128.189  0.00  0.00    +0.000 C 
BRANCH  20  21
ATOM     21  C   GLY A   2      -5.158   4.577 128.348  0.00  0.00    +0.000 C 
ATOM     22  OXT GLY A   2      -4.943   5.745 128.648  0.00  0.00    +0.000 OA
BRANCH  21  23
ATOM     23  O   GLY A   2      -4.132   3.725 128.140  0.00  0.00    +0.000 OA
ATOM     24  H   GLY A   2      -3.437   3.995 127.525  0.00  0.00    +0.000 HD
ENDBRANCH  21  23
ENDBRANCH  20  21
ENDBRANCH  18  20
ENDBRANCH  15  16
BRANCH  15  25
ATOM     25  C   UNK A   1      -9.914   3.154 130.828  0.00  0.00    +0.000 C 
BRANCH  25  26
ATOM     26  S   UNK A   1      -9.527   2.348 132.419  0.00  0.00    +0.000 S 
ATOM     27  H   UNK A   1      -9.750   3.410 133.218  0.00  0.00    +0.000 HD
ENDBRANCH  25  26
ENDBRANCH  15  25
ENDBRANCH   3  15
TORSDOF 13
ENDMDL
MODEL 4
REMARK VINA RESULT:      -5.0      2.592      3.506
REMARK  Name = Glutathione
REMARK  13 active torsions:
REMARK  status: ('A' for Active; 'I' for Inactive)
REMARK    1  A    between atoms: N_1  and  C_2
REMARK    2  A    between atoms: C_2  and  C_3
REMARK    3  A    between atoms: C_2  and  C_18
REMARK    4  A    between atoms: C_3  and  C_4
REMARK    5  A    between atoms: C_4  and  C_5
REMARK    6  A    between atoms: N_7  and  C_8
REMARK    7  A    between atoms: C_8  and  C_9
REMARK    8  A    between atoms: C_8  and  C_11
REMARK    9  A    between atoms: C_9  and  S_10
REMARK   10  A    between atoms: N_13  and  CA_14
REMARK   11  A    between atoms: CA_14  and  C_15
REMARK   12  A    between atoms: C_15  and  O_16
REMARK   13  A    between atoms: C_18  and  O_19
REMARK                            x       y       z     vdW  Elec       q    Type
REMARK                         _______ _______ _______ _____ _____    ______ ____
ROOT
ATOM      1  C   UNK A   1     -11.359   6.400 131.577  0.00  0.00    +0.000 C 
ATOM      2  O   UNK A   1     -10.709   6.656 132.586  0.00  0.00    +0.000 OA
ATOM      3  N   UNK A   1     -10.939   5.461 130.663  0.00  0.00    +0.000 N 
ATOM      4  H   UNK A   1     -11.317   5.456 129.717  0.00  0.00    +0.000 HD
ENDROOT
BRANCH   1   5
ATOM      5  C   UNK A   1     -12.643   7.140 131.244  0.00  0.00    +0.000 C 
BRANCH   5   6
ATOM      6  C   UNK A   1     -12.719   7.410 129.729  0.00  0.00    +0.000 C 
BRANCH   6   7
ATOM      7  C   UNK A   1     -12.049   8.710 129.273  0.00  0.00    +0.000 C 
BRANCH   7   8
ATOM      8  N   UNK A   1     -13.030   9.595 128.582  0.00  0.00    +0.000 NA
ATOM      9  H   UNK A   1     -13.168   9.215 127.640  0.00  0.00    +0.000 HD
ATOM     10  H   UNK A   1     -12.588  10.504 128.410  0.00  0.00    +0.000 HD
ENDBRANCH   7   8
BRANCH   7  11
ATOM     11  C   UNK A   1     -10.877   8.396 128.317  0.00  0.00    +0.000 C 
ATOM     12  O   UNK A   1     -10.940   8.472 127.096  0.00  0.00    +0.000 OA
BRANCH  11  13
ATOM     13  O   UNK A   1      -9.745   8.025 128.967  0.00  0.00    +0.000 OA
ATOM     14  H   UNK A   1     -10.010   7.527 129.774  0.00  0.00    +0.000 HD
ENDBRANCH  11  13
ENDBRANCH   7  11
ENDBRANCH   6   7
ENDBRANCH   5   6
ENDBRANCH   1   5
BRANCH   3  15
ATOM     15  C   UNK A   1      -9.771   4.601 130.925  0.00  0.00    +0.000 C 
BRANCH  15  16
ATOM     16  C   UNK A   1      -8.456   5.333 130.477  0.00  0.00    +0.000 C 
ATOM     17  O   UNK A   1      -8.140   5.438 129.293  0.00  0.00    +0.000 OA
ATOM     18  N   GLY A   2      -7.680   5.862 131.501  0.00  0.00    +0.000 N 
ATOM     19  H   GLY A   2      -8.047   5.805 132.435  0.00  0.00    +0.000 HD
BRANCH  18  20
ATOM     20  CA  GLY A   2      -6.404   6.545 131.236  0.00  0.00    +0.000 C 
BRANCH  20  21
ATOM     21  C   GLY A   2      -5.269   6.442 132.267  0.00  0.00    +0.000 C 
ATOM     22  OXT GLY A   2      -4.111   6.747 132.010  0.00  0.00    +0.000 OA
BRANCH  21  23
ATOM     23  O   GLY A   2      -5.601   5.993 133.496  0.00  0.00    +0.000 OA
ATOM     24  H   GLY A   2      -5.049   6.265 134.241  0.00  0.00    +0.000 HD
ENDBRANCH  21  23
ENDBRANCH  20  21
ENDBRANCH  18  20
ENDBRANCH  15  16
BRANCH  15  25
ATOM     25  C   UNK A   1      -9.846   3.253 130.167  0.00  0.00    +0.000 C 
BRANCH  25  26
ATOM     26  S   UNK A   1      -8.536   1.998 130.364  0.00  0.00    +0.000 S 
ATOM     27  H   UNK A   1      -8.794   1.291 129.246  0.00  0.00    +0.000 HD
ENDBRANCH  25  26
ENDBRANCH  15  25
ENDBRANCH   3  15
TORSDOF 13
ENDMDL
MODEL 5
REMARK VINA RESULT:      -4.9      1.869      1.958
REMARK  Name = Glutathione
REMARK  13 active torsions:
REMARK  status: ('A' for Active; 'I' for Inactive)
REMARK    1  A    between atoms: N_1  and  C_2
REMARK    2  A    between atoms: C_2  and  C_3
REMARK    3  A    between atoms: C_2  and  C_18
REMARK    4  A    between atoms: C_3  and  C_4
REMARK    5  A    between atoms: C_4  and  C_5
REMARK    6  A    between atoms: N_7  and  C_8
REMARK    7  A    between atoms: C_8  and  C_9
REMARK    8  A    between atoms: C_8  and  C_11
REMARK    9  A    between atoms: C_9  and  S_10
REMARK   10  A    between atoms: N_13  and  CA_14
REMARK   11  A    between atoms: CA_14  and  C_15
REMARK   12  A    between atoms: C_15  and  O_16
REMARK   13  A    between atoms: C_18  and  O_19
REMARK                            x       y       z     vdW  Elec       q    Type
REMARK                         _______ _______ _______ _____ _____    ______ ____
ROOT
ATOM      1  C   UNK A   1      -9.178   6.641 130.315  0.00  0.00    +0.000 C 
ATOM      2  O   UNK A   1      -8.240   7.420 130.461  0.00  0.00    +0.000 OA
ATOM      3  N   UNK A   1      -8.983   5.283 130.211  0.00  0.00    +0.000 N 
ATOM      4  H   UNK A   1      -9.707   4.686 129.816  0.00  0.00    +0.000 HD
ENDROOT
BRANCH   1   5
ATOM      5  C   UNK A   1     -10.610   7.130 130.189  0.00  0.00    +0.000 C 
BRANCH   5   6
ATOM      6  C   UNK A   1     -10.718   8.157 129.045  0.00  0.00    +0.000 C 
BRANCH   6   7
ATOM      7  C   UNK A   1     -11.612   7.729 127.877  0.00  0.00    +0.000 C 
BRANCH   7   8
ATOM      8  N   UNK A   1     -12.415   6.526 128.240  0.00  0.00    +0.000 NA
ATOM      9  H   UNK A   1     -13.157   6.437 127.538  0.00  0.00    +0.000 HD
ATOM     10  H   UNK A   1     -12.928   6.722 129.105  0.00  0.00    +0.000 HD
ENDBRANCH   7   8
BRANCH   7  11
ATOM     11  C   UNK A   1     -10.748   7.418 126.635  0.00  0.00    +0.000 C 
ATOM     12  O   UNK A   1     -10.874   7.970 125.549  0.00  0.00    +0.000 OA
BRANCH  11  13
ATOM     13  O   UNK A   1      -9.815   6.459 126.861  0.00  0.00    +0.000 OA
ATOM     14  H   UNK A   1      -9.821   5.845 126.091  0.00  0.00    +0.000 HD
ENDBRANCH  11  13
ENDBRANCH   7  11
ENDBRANCH   6   7
ENDBRANCH   5   6
ENDBRANCH   1   5
BRANCH   3  15
ATOM     15  C   UNK A   1      -7.656   4.677 130.427  0.00  0.00    +0.000 C 
BRANCH  15  16
ATOM     16  C   UNK A   1      -7.243   3.832 129.170  0.00  0.00    +0.000 C 
ATOM     17  O   UNK A   1      -6.455   2.891 129.247  0.00  0.00    +0.000 OA
ATOM     18  N   GLY A   2      -7.831   4.209 127.968  0.00  0.00    +0.000 N 
ATOM     19  H   GLY A   2      -8.524   4.936 128.002  0.00  0.00    +0.000 HD
BRANCH  18  20
ATOM     20  CA  GLY A   2      -7.513   3.532 126.701  0.00  0.00    +0.000 C 
BRANCH  20  21
ATOM     21  C   GLY A   2      -8.171   4.025 125.402  0.00  0.00    +0.000 C 
ATOM     22  OXT GLY A   2      -8.935   3.331 124.743  0.00  0.00    +0.000 OA
BRANCH  21  23
ATOM     23  O   GLY A   2      -7.871   5.278 125.003  0.00  0.00    +0.000 OA
ATOM     24  H   GLY A   2      -8.592   5.919 124.941  0.00  0.00    +0.000 HD
ENDBRANCH  21  23
ENDBRANCH  20  21
ENDBRANCH  18  20
ENDBRANCH  15  16
BRANCH  15  25
ATOM     25  C   UNK A   1      -7.626   3.741 131.660  0.00  0.00    +0.000 C 
BRANCH  25  26
ATOM     26  S   UNK A   1      -6.219   3.773 132.820  0.00  0.00    +0.000 S 
ATOM     27  H   UNK A   1      -6.313   2.500 133.253  0.00  0.00    +0.000 HD
ENDBRANCH  25  26
ENDBRANCH  15  25
ENDBRANCH   3  15
TORSDOF 13
ENDMDL
MODEL 6
REMARK VINA RESULT:      -4.9      5.073      7.769
REMARK  Name = Glutathione
REMARK  13 active torsions:
REMARK  status: ('A' for Active; 'I' for Inactive)
REMARK    1  A    between atoms: N_1  and  C_2
REMARK    2  A    between atoms: C_2  and  C_3
REMARK    3  A    between atoms: C_2  and  C_18
REMARK    4  A    between atoms: C_3  and  C_4
REMARK    5  A    between atoms: C_4  and  C_5
REMARK    6  A    between atoms: N_7  and  C_8
REMARK    7  A    between atoms: C_8  and  C_9
REMARK    8  A    between atoms: C_8  and  C_11
REMARK    9  A    between atoms: C_9  and  S_10
REMARK   10  A    between atoms: N_13  and  CA_14
REMARK   11  A    between atoms: CA_14  and  C_15
REMARK   12  A    between atoms: C_15  and  O_16
REMARK   13  A    between atoms: C_18  and  O_19
REMARK                            x       y       z     vdW  Elec       q    Type
REMARK                         _______ _______ _______ _____ _____    ______ ____
ROOT
ATOM      1  C   UNK A   1      -6.331   4.239 124.006  0.00  0.00    +0.000 C 
ATOM      2  O   UNK A   1      -5.348   3.849 123.382  0.00  0.00    +0.000 OA
ATOM      3  N   UNK A   1      -7.608   3.870 123.650  0.00  0.00    +0.000 N 
ATOM      4  H   UNK A   1      -8.410   4.405 123.979  0.00  0.00    +0.000 HD
ENDROOT
BRANCH   1   5
ATOM      5  C   UNK A   1      -6.205   5.193 125.181  0.00  0.00    +0.000 C 
BRANCH   5   6
ATOM      6  C   UNK A   1      -6.339   4.418 126.506  0.00  0.00    +0.000 C 
BRANCH   6   7
ATOM      7  C   UNK A   1      -7.776   4.223 126.996  0.00  0.00    +0.000 C 
BRANCH   7   8
ATOM      8  N   UNK A   1      -8.678   5.261 126.418  0.00  0.00    +0.000 NA
ATOM      9  H   UNK A   1      -9.198   4.816 125.655  0.00  0.00    +0.000 HD
ATOM     10  H   UNK A   1      -8.105   5.962 125.938  0.00  0.00    +0.000 HD
ENDBRANCH   7   8
BRANCH   7  11
ATOM     11  C   UNK A   1      -7.827   4.299 128.538  0.00  0.00    +0.000 C 
ATOM     12  O   UNK A   1      -6.839   4.336 129.261  0.00  0.00    +0.000 OA
BRANCH  11  13
ATOM     13  O   UNK A   1      -9.091   4.326 129.029  0.00  0.00    +0.000 OA
ATOM     14  H   UNK A   1      -9.472   3.423 128.929  0.00  0.00    +0.000 HD
ENDBRANCH  11  13
ENDBRANCH   7  11
ENDBRANCH   6   7
ENDBRANCH   5   6
ENDBRANCH   1   5
BRANCH   3  15
ATOM     15  C   UNK A   1      -7.854   2.864 122.600  0.00  0.00    +0.000 C 
BRANCH  15  16
ATOM     16  C   UNK A   1      -7.965   3.568 121.201  0.00  0.00    +0.000 C 
ATOM     17  O   UNK A   1      -9.052   3.823 120.685  0.00  0.00    +0.000 OA
ATOM     18  N   GLY A   2      -6.760   3.891 120.589  0.00  0.00    +0.000 N 
ATOM     19  H   GLY A   2      -5.918   3.722 121.111  0.00  0.00    +0.000 HD
BRANCH  18  20
ATOM     20  CA  GLY A   2      -6.706   4.521 119.261  0.00  0.00    +0.000 C 
BRANCH  20  21
ATOM     21  C   GLY A   2      -5.811   5.753 119.050  0.00  0.00    +0.000 C 
ATOM     22  OXT GLY A   2      -5.862   6.443 118.040  0.00  0.00    +0.000 OA
BRANCH  21  23
ATOM     23  O   GLY A   2      -4.946   6.054 120.041  0.00  0.00    +0.000 OA
ATOM     24  H   GLY A   2      -4.686   6.979 120.149  0.00  0.00    +0.000 HD
ENDBRANCH  21  23
ENDBRANCH  20  21
ENDBRANCH  18  20
ENDBRANCH  15  16
BRANCH  15  25
ATOM     25  C   UNK A   1      -9.161   2.068 122.838  0.00  0.00    +0.000 C 
BRANCH  25  26
ATOM     26  S   UNK A   1      -9.119   0.417 123.613  0.00  0.00    +0.000 S 
ATOM     27  H   UNK A   1      -7.812   0.158 123.413  0.00  0.00    +0.000 HD
ENDBRANCH  25  26
ENDBRANCH  15  25
ENDBRANCH   3  15
TORSDOF 13
ENDMDL
MODEL 7
REMARK VINA RESULT:      -4.8      6.074      8.626
REMARK  Name = Glutathione
REMARK  13 active torsions:
REMARK  status: ('A' for Active; 'I' for Inactive)
REMARK    1  A    between atoms: N_1  and  C_2
REMARK    2  A    between atoms: C_2  and  C_3
REMARK    3  A    between atoms: C_2  and  C_18
REMARK    4  A    between atoms: C_3  and  C_4
REMARK    5  A    between atoms: C_4  and  C_5
REMARK    6  A    between atoms: N_7  and  C_8
REMARK    7  A    between atoms: C_8  and  C_9
REMARK    8  A    between atoms: C_8  and  C_11
REMARK    9  A    between atoms: C_9  and  S_10
REMARK   10  A    between atoms: N_13  and  CA_14
REMARK   11  A    between atoms: CA_14  and  C_15
REMARK   12  A    between atoms: C_15  and  O_16
REMARK   13  A    between atoms: C_18  and  O_19
REMARK                            x       y       z     vdW  Elec       q    Type
REMARK                         _______ _______ _______ _____ _____    ______ ____
ROOT
ATOM      1  C   UNK A   1      -8.419  -3.127 125.940  0.00  0.00    +0.000 C 
ATOM      2  O   UNK A   1      -9.215  -3.593 126.751  0.00  0.00    +0.000 OA
ATOM      3  N   UNK A   1      -7.703  -1.982 126.203  0.00  0.00    +0.000 N 
ATOM      4  H   UNK A   1      -7.276  -1.455 125.444  0.00  0.00    +0.000 HD
ENDROOT
BRANCH   1   5
ATOM      5  C   UNK A   1      -8.212  -3.755 124.573  0.00  0.00    +0.000 C 
BRANCH   5   6
ATOM      6  C   UNK A   1      -9.253  -3.207 123.577  0.00  0.00    +0.000 C 
BRANCH   6   7
ATOM      7  C   UNK A   1      -8.783  -2.006 122.750  0.00  0.00    +0.000 C 
BRANCH   7   8
ATOM      8  N   UNK A   1      -7.335  -1.737 122.986  0.00  0.00    +0.000 NA
ATOM      9  H   UNK A   1      -6.908  -2.621 123.280  0.00  0.00    +0.000 HD
ATOM     10  H   UNK A   1      -7.243  -1.140 123.814  0.00  0.00    +0.000 HD
ENDBRANCH   7   8
BRANCH   7  11
ATOM     11  C   UNK A   1      -9.606  -0.753 123.119  0.00  0.00    +0.000 C 
ATOM     12  O   UNK A   1     -10.214  -0.062 122.310  0.00  0.00    +0.000 OA
BRANCH  11  13
ATOM     13  O   UNK A   1      -9.600  -0.483 124.449  0.00  0.00    +0.000 OA
ATOM     14  H   UNK A   1     -10.516  -0.613 124.786  0.00  0.00    +0.000 HD
ENDBRANCH  11  13
ENDBRANCH   7  11
ENDBRANCH   6   7
ENDBRANCH   5   6
ENDBRANCH   1   5
BRANCH   3  15
ATOM     15  C   UNK A   1      -7.735  -1.343 127.531  0.00  0.00    +0.000 C 
BRANCH  15  16
ATOM     16  C   UNK A   1      -7.447   0.194 127.393  0.00  0.00    +0.000 C 
ATOM     17  O   UNK A   1      -6.969   0.853 128.315  0.00  0.00    +0.000 OA
ATOM     18  N   GLY A   2      -7.757   0.758 126.161  0.00  0.00    +0.000 N 
ATOM     19  H   GLY A   2      -8.068   0.138 125.434  0.00  0.00    +0.000 HD
BRANCH  18  20
ATOM     20  CA  GLY A   2      -7.574   2.194 125.896  0.00  0.00    +0.000 C 
BRANCH  20  21
ATOM     21  C   GLY A   2      -8.705   2.982 125.217  0.00  0.00    +0.000 C 
ATOM     22  OXT GLY A   2      -8.721   4.205 125.164  0.00  0.00    +0.000 OA
BRANCH  21  23
ATOM     23  O   GLY A   2      -9.705   2.261 124.667  0.00  0.00    +0.000 OA
ATOM     24  H   GLY A   2     -10.246   2.683 123.986  0.00  0.00    +0.000 HD
ENDBRANCH  21  23
ENDBRANCH  20  21
ENDBRANCH  18  20
ENDBRANCH  15  16
BRANCH  15  25
ATOM     25  C   UNK A   1      -6.683  -1.939 128.499  0.00  0.00    +0.000 C 
BRANCH  25  26
ATOM     26  S   UNK A   1      -7.157  -3.201 129.729  0.00  0.00    +0.000 S 
ATOM     27  H   UNK A   1      -7.563  -4.151 128.864  0.00  0.00    +0.000 HD
ENDBRANCH  25  26
ENDBRANCH  15  25
ENDBRANCH   3  15
TORSDOF 13
ENDMDL
MODEL 8
REMARK VINA RESULT:      -4.8      6.200      9.011
REMARK  Name = Glutathione
REMARK  13 active torsions:
REMARK  status: ('A' for Active; 'I' for Inactive)
REMARK    1  A    between atoms: N_1  and  C_2
REMARK    2  A    between atoms: C_2  and  C_3
REMARK    3  A    between atoms: C_2  and  C_18
REMARK    4  A    between atoms: C_3  and  C_4
REMARK    5  A    between atoms: C_4  and  C_5
REMARK    6  A    between atoms: N_7  and  C_8
REMARK    7  A    between atoms: C_8  and  C_9
REMARK    8  A    between atoms: C_8  and  C_11
REMARK    9  A    between atoms: C_9  and  S_10
REMARK   10  A    between atoms: N_13  and  CA_14
REMARK   11  A    between atoms: CA_14  and  C_15
REMARK   12  A    between atoms: C_15  and  O_16
REMARK   13  A    between atoms: C_18  and  O_19
REMARK                            x       y       z     vdW  Elec       q    Type
REMARK                         _______ _______ _______ _____ _____    ______ ____
ROOT
ATOM      1  C   UNK A   1      -9.037  -0.661 123.099  0.00  0.00    +0.000 C 
ATOM      2  O   UNK A   1     -10.200  -0.458 122.761  0.00  0.00    +0.000 OA
ATOM      3  N   UNK A   1      -8.392   0.151 124.004  0.00  0.00    +0.000 N 
ATOM      4  H   UNK A   1      -7.376   0.153 124.063  0.00  0.00    +0.000 HD
ENDROOT
BRANCH   1   5
ATOM      5  C   UNK A   1      -8.218  -1.792 122.502  0.00  0.00    +0.000 C 
BRANCH   5   6
ATOM      6  C   UNK A   1      -7.600  -2.646 123.627  0.00  0.00    +0.000 C 
BRANCH   6   7
ATOM      7  C   UNK A   1      -8.594  -3.537 124.379  0.00  0.00    +0.000 C 
BRANCH   7   8
ATOM      8  N   UNK A   1      -9.943  -3.475 123.745  0.00  0.00    +0.000 NA
ATOM      9  H   UNK A   1     -10.236  -4.441 123.566  0.00  0.00    +0.000 HD
ATOM     10  H   UNK A   1      -9.846  -3.078 122.805  0.00  0.00    +0.000 HD
ENDBRANCH   7   8
BRANCH   7  11
ATOM     11  C   UNK A   1      -8.697  -3.090 125.854  0.00  0.00    +0.000 C 
ATOM     12  O   UNK A   1      -9.520  -3.522 126.652  0.00  0.00    +0.000 OA
BRANCH  11  13
ATOM     13  O   UNK A   1      -7.771  -2.158 126.194  0.00  0.00    +0.000 OA
ATOM     14  H   UNK A   1      -8.232  -1.443 126.690  0.00  0.00    +0.000 HD
ENDBRANCH  11  13
ENDBRANCH   7  11
ENDBRANCH   6   7
ENDBRANCH   5   6
ENDBRANCH   1   5
BRANCH   3  15
ATOM     15  C   UNK A   1      -9.110   1.212 124.733  0.00  0.00    +0.000 C 
BRANCH  15  16
ATOM     16  C   UNK A   1      -8.392   2.591 124.515  0.00  0.00    +0.000 C 
ATOM     17  O   UNK A   1      -8.876   3.649 124.917  0.00  0.00    +0.000 OA
ATOM     18  N   GLY A   2      -7.174   2.540 123.848  0.00  0.00    +0.000 N 
ATOM     19  H   GLY A   2      -6.809   1.631 123.623  0.00  0.00    +0.000 HD
BRANCH  18  20
ATOM     20  CA  GLY A   2      -6.403   3.755 123.541  0.00  0.00    +0.000 C 
BRANCH  20  21
ATOM     21  C   GLY A   2      -5.881   4.624 124.697  0.00  0.00    +0.000 C 
ATOM     22  OXT GLY A   2      -4.903   4.317 125.366  0.00  0.00    +0.000 OA
BRANCH  21  23
ATOM     23  O   GLY A   2      -6.555   5.765 124.954  0.00  0.00    +0.000 OA
ATOM     24  H   GLY A   2      -7.249   6.030 124.336  0.00  0.00    +0.000 HD
ENDBRANCH  21  23
ENDBRANCH  20  21
ENDBRANCH  18  20
ENDBRANCH  15  16
BRANCH  15  25
ATOM     25  C   UNK A   1      -9.173   0.945 126.257  0.00  0.00    +0.000 C 
BRANCH  25  26
ATOM     26  S   UNK A   1      -7.728   1.272 127.321  0.00  0.00    +0.000 S 
ATOM     27  H   UNK A   1      -7.272   0.007 127.400  0.00  0.00    +0.000 HD
ENDBRANCH  25  26
ENDBRANCH  15  25
ENDBRANCH   3  15
TORSDOF 13
ENDMDL
MODEL 9
REMARK VINA RESULT:      -4.7      2.035      5.310
REMARK  Name = Glutathione
REMARK  13 active torsions:
REMARK  status: ('A' for Active; 'I' for Inactive)
REMARK    1  A    between atoms: N_1  and  C_2
REMARK    2  A    between atoms: C_2  and  C_3
REMARK    3  A    between atoms: C_2  and  C_18
REMARK    4  A    between atoms: C_3  and  C_4
REMARK    5  A    between atoms: C_4  and  C_5
REMARK    6  A    between atoms: N_7  and  C_8
REMARK    7  A    between atoms: C_8  and  C_9
REMARK    8  A    between atoms: C_8  and  C_11
REMARK    9  A    between atoms: C_9  and  S_10
REMARK   10  A    between atoms: N_13  and  CA_14
REMARK   11  A    between atoms: CA_14  and  C_15
REMARK   12  A    between atoms: C_15  and  O_16
REMARK   13  A    between atoms: C_18  and  O_19
REMARK                            x       y       z     vdW  Elec       q    Type
REMARK                         _______ _______ _______ _____ _____    ______ ____
ROOT
ATOM      1  C   UNK A   1      -8.376   3.860 129.400  0.00  0.00    +0.000 C 
ATOM      2  O   UNK A   1      -8.715   3.225 130.394  0.00  0.00    +0.000 OA
ATOM      3  N   UNK A   1      -8.524   5.227 129.328  0.00  0.00    +0.000 N 
ATOM      4  H   UNK A   1      -8.512   5.700 128.426  0.00  0.00    +0.000 HD
ENDROOT
BRANCH   1   5
ATOM      5  C   UNK A   1      -7.819   3.175 128.165  0.00  0.00    +0.000 C 
BRANCH   5   6
ATOM      6  C   UNK A   1      -6.706   4.039 127.539  0.00  0.00    +0.000 C 
BRANCH   6   7
ATOM      7  C   UNK A   1      -6.888   4.342 126.049  0.00  0.00    +0.000 C 
BRANCH   7   8
ATOM      8  N   UNK A   1      -6.021   5.481 125.632  0.00  0.00    +0.000 NA
ATOM      9  H   UNK A   1      -6.542   6.343 125.825  0.00  0.00    +0.000 HD
ATOM     10  H   UNK A   1      -5.942   5.476 124.610  0.00  0.00    +0.000 HD
ENDBRANCH   7   8
BRANCH   7  11
ATOM     11  C   UNK A   1      -8.365   4.684 125.753  0.00  0.00    +0.000 C 
ATOM     12  O   UNK A   1      -8.940   5.683 126.168  0.00  0.00    +0.000 OA
BRANCH  11  13
ATOM     13  O   UNK A   1      -8.980   3.760 124.973  0.00  0.00    +0.000 OA
ATOM     14  H   UNK A   1      -8.371   3.541 124.230  0.00  0.00    +0.000 HD
ENDBRANCH  11  13
ENDBRANCH   7  11
ENDBRANCH   6   7
ENDBRANCH   5   6
ENDBRANCH   1   5
BRANCH   3  15
ATOM     15  C   UNK A   1      -8.949   6.017 130.497  0.00  0.00    +0.000 C 
BRANCH  15  16
ATOM     16  C   UNK A   1     -10.001   7.098 130.059  0.00  0.00    +0.000 C 
ATOM     17  O   UNK A   1      -9.715   8.009 129.285  0.00  0.00    +0.000 OA
ATOM     18  N   GLY A   2     -11.275   6.952 130.595  0.00  0.00    +0.000 N 
ATOM     19  H   GLY A   2     -11.450   6.137 131.156  0.00  0.00    +0.000 HD
BRANCH  18  20
ATOM     20  CA  GLY A   2     -12.355   7.908 130.302  0.00  0.00    +0.000 C 
BRANCH  20  21
ATOM     21  C   GLY A   2     -12.879   8.031 128.863  0.00  0.00    +0.000 C 
ATOM     22  OXT GLY A   2     -13.738   7.289 128.405  0.00  0.00    +0.000 OA
BRANCH  21  23
ATOM     23  O   GLY A   2     -12.346   9.010 128.102  0.00  0.00    +0.000 OA
ATOM     24  H   GLY A   2     -11.390   8.998 127.953  0.00  0.00    +0.000 HD
ENDBRANCH  21  23
ENDBRANCH  20  21
ENDBRANCH  18  20
ENDBRANCH  15  16
BRANCH  15  25
ATOM     25  C   UNK A   1      -7.767   6.752 131.176  0.00  0.00    +0.000 C 
BRANCH  25  26
ATOM     26  S   UNK A   1      -6.590   5.846 132.235  0.00  0.00    +0.000 S 
ATOM     27  H   UNK A   1      -7.485   5.066 132.873  0.00  0.00    +0.000 HD
ENDBRANCH  25  26
ENDBRANCH  15  25
ENDBRANCH   3  15
TORSDOF 13
ENDMDL
