MODEL 1
REMARK VINA RESULT:      -8.5      0.000      0.000
REMARK  Name = Glyburide
REMARK  9 active torsions:
REMARK  status: ('A' for Active; 'I' for Inactive)
REMARK    1  A    between atoms: C_1  and  O_2
REMARK    2  A    between atoms: O_2  and  C_3
REMARK    3  A    between atoms: C_4  and  C_10
REMARK    4  A    between atoms: N_12  and  C_13
REMARK    5  A    between atoms: C_13  and  C_14
REMARK    6  A    between atoms: C_14  and  C_15
REMARK    7  A    between atoms: C_18  and  S_21
REMARK    8  A    between atoms: S_21  and  N_24
REMARK    9  A    between atoms: N_27  and  C_28
REMARK                            x       y       z     vdW  Elec       q    Type
REMARK                         _______ _______ _______ _____ _____    ______ ____
ROOT
ATOM      1  C   UNL     1      -7.775  -0.933 132.109  0.00  0.00    +0.000 A 
ATOM      2  C   UNL     1      -6.839  -0.147 132.788  0.00  0.00    +0.000 A 
ATOM      3  C   UNL     1      -7.128   1.194 133.078  0.00  0.00    +0.000 A 
ATOM      4  C   UNL     1      -8.316   1.785 132.604  0.00  0.00    +0.000 A 
ATOM      5  C   UNL     1      -9.235   1.020 131.910  0.00  0.00    +0.000 A 
ATOM      6  C   UNL     1      -8.959  -0.320 131.663  0.00  0.00    +0.000 A 
ENDROOT
BRANCH   4   7
ATOM      7  S   UNL     1      -8.540   3.540 132.829  0.00  0.00    +0.000 S 
ATOM      8  O   UNL     1      -8.824   3.702 134.239  0.00  0.00    +0.000 OA
ATOM      9  O   UNL     1      -7.381   4.130 132.193  0.00  0.00    +0.000 OA
BRANCH   7  10
ATOM     10  N   UNL     1      -9.918   4.018 131.948  0.00  0.00    +0.000 N 
ATOM     11  C   UNL     1      -9.982   5.349 131.516  0.00  0.00    +0.000 C 
ATOM     12  O   UNL     1      -9.036   6.080 131.717  0.00  0.00    +0.000 OA
ATOM     13  N   UNL     1     -11.154   5.768 130.891  0.00  0.00    +0.000 N 
ATOM     14  H   UNL     1     -10.657   3.365 131.766  0.00  0.00    +0.000 HD
ATOM     15  H   UNL     1     -11.841   5.081 130.621  0.00  0.00    +0.000 HD
BRANCH  13  16
ATOM     16  C   UNL     1     -11.339   7.158 130.371  0.00  0.00    +0.000 C 
ATOM     17  C   UNL     1     -11.077   7.250 128.846  0.00  0.00    +0.000 C 
ATOM     18  C   UNL     1     -11.425   8.627 128.251  0.00  0.00    +0.000 C 
ATOM     19  C   UNL     1     -12.850   9.056 128.583  0.00  0.00    +0.000 C 
ATOM     20  C   UNL     1     -13.054   9.056 130.081  0.00  0.00    +0.000 C 
ATOM     21  C   UNL     1     -12.744   7.701 130.672  0.00  0.00    +0.000 C 
ENDBRANCH  13  16
ENDBRANCH   7  10
ENDBRANCH   4   7
BRANCH   1  22
ATOM     22  C   UNL     1      -7.528  -2.417 131.935  0.00  0.00    +0.000 C 
BRANCH  22  23
ATOM     23  C   UNL     1      -6.459  -2.718 130.895  0.00  0.00    +0.000 C 
BRANCH  23  26
ATOM     24  C   UNL     1      -7.543  -2.734 128.747  0.00  0.00    +0.000 C 
ATOM     25  O   UNL     1      -7.943  -3.854 129.043  0.00  0.00    +0.000 OA
ATOM     26  N   UNL     1      -6.678  -2.093 129.616  0.00  0.00    +0.000 N 
ATOM     27  H   UNL     1      -6.114  -1.300 129.358  0.00  0.00    +0.000 HD
BRANCH  24  29
ATOM     28  C   UNL     1      -7.997  -0.660 127.329  0.00  0.00    +0.000 A 
ATOM     29  C   UNL     1      -7.928  -2.062 127.466  0.00  0.00    +0.000 A 
ATOM     30  C   UNL     1      -8.335  -2.863 126.379  0.00  0.00    +0.000 A 
ATOM     31  C   UNL     1      -8.845  -2.298 125.210  0.00  0.00    +0.000 A 
ATOM     32 CL   UNL     1      -9.362  -3.325 123.928  0.00  0.00    +0.000 Cl
ATOM     33  C   UNL     1      -8.959  -0.924 125.089  0.00  0.00    +0.000 A 
ATOM     34  C   UNL     1      -8.534  -0.111 126.143  0.00  0.00    +0.000 A 
BRANCH  28  36
ATOM     35  C   UNL     1      -8.392   1.548 128.190  0.00  0.00    +0.000 C 
ATOM     36  O   UNL     1      -7.747   0.280 128.296  0.00  0.00    +0.000 OA
ENDBRANCH  28  36
ENDBRANCH  24  29
ENDBRANCH  23  26
ENDBRANCH  22  23
ENDBRANCH   1  22
TORSDOF 8
ENDMDL
MODEL 2
REMARK VINA RESULT:      -8.4      1.958      2.308
REMARK  Name = Glyburide
REMARK  9 active torsions:
REMARK  status: ('A' for Active; 'I' for Inactive)
REMARK    1  A    between atoms: C_1  and  O_2
REMARK    2  A    between atoms: O_2  and  C_3
REMARK    3  A    between atoms: C_4  and  C_10
REMARK    4  A    between atoms: N_12  and  C_13
REMARK    5  A    between atoms: C_13  and  C_14
REMARK    6  A    between atoms: C_14  and  C_15
REMARK    7  A    between atoms: C_18  and  S_21
REMARK    8  A    between atoms: S_21  and  N_24
REMARK    9  A    between atoms: N_27  and  C_28
REMARK                            x       y       z     vdW  Elec       q    Type
REMARK                         _______ _______ _______ _____ _____    ______ ____
ROOT
ATOM      1  C   UNL     1      -7.787  -1.429 130.589  0.00  0.00    +0.000 A 
ATOM      2  C   UNL     1      -7.395  -0.421 129.702  0.00  0.00    +0.000 A 
ATOM      3  C   UNL     1      -7.422   0.920 130.108  0.00  0.00    +0.000 A 
ATOM      4  C   UNL     1      -7.937   1.272 131.372  0.00  0.00    +0.000 A 
ATOM      5  C   UNL     1      -8.351   0.282 132.244  0.00  0.00    +0.000 A 
ATOM      6  C   UNL     1      -8.281  -1.049 131.850  0.00  0.00    +0.000 A 
ENDROOT
BRANCH   4   7
ATOM      7  S   UNL     1      -8.135   3.001 131.757  0.00  0.00    +0.000 S 
ATOM      8  O   UNL     1      -8.408   3.037 133.178  0.00  0.00    +0.000 OA
ATOM      9  O   UNL     1      -6.971   3.631 131.170  0.00  0.00    +0.000 OA
BRANCH   7  10
ATOM     10  N   UNL     1      -9.511   3.576 130.934  0.00  0.00    +0.000 N 
ATOM     11  C   UNL     1      -9.660   4.964 130.809  0.00  0.00    +0.000 C 
ATOM     12  O   UNL     1      -8.780   5.690 131.219  0.00  0.00    +0.000 OA
ATOM     13  N   UNL     1     -10.836   5.436 130.233  0.00  0.00    +0.000 N 
ATOM     14  H   UNL     1     -10.191   2.936 130.570  0.00  0.00    +0.000 HD
ATOM     15  H   UNL     1     -11.458   4.786 129.778  0.00  0.00    +0.000 HD
BRANCH  13  16
ATOM     16  C   UNL     1     -11.106   6.894 130.029  0.00  0.00    +0.000 C 
ATOM     17  C   UNL     1     -11.083   7.287 128.530  0.00  0.00    +0.000 C 
ATOM     18  C   UNL     1     -11.526   8.740 128.276  0.00  0.00    +0.000 C 
ATOM     19  C   UNL     1     -12.885   9.046 128.895  0.00  0.00    +0.000 C 
ATOM     20  C   UNL     1     -12.856   8.750 130.378  0.00  0.00    +0.000 C 
ATOM     21  C   UNL     1     -12.451   7.317 130.638  0.00  0.00    +0.000 C 
ENDBRANCH  13  16
ENDBRANCH   7  10
ENDBRANCH   4   7
BRANCH   1  22
ATOM     22  C   UNL     1      -7.609  -2.883 130.205  0.00  0.00    +0.000 C 
BRANCH  22  23
ATOM     23  C   UNL     1      -8.316  -3.240 128.906  0.00  0.00    +0.000 C 
BRANCH  23  26
ATOM     24  C   UNL     1      -8.292  -2.877 126.528  0.00  0.00    +0.000 C 
ATOM     25  O   UNL     1      -9.446  -3.292 126.531  0.00  0.00    +0.000 OA
ATOM     26  N   UNL     1      -7.581  -2.900 127.715  0.00  0.00    +0.000 N 
ATOM     27  H   UNL     1      -6.579  -2.816 127.767  0.00  0.00    +0.000 HD
BRANCH  24  29
ATOM     28  C   UNL     1      -8.207  -1.427 124.429  0.00  0.00    +0.000 A 
ATOM     29  C   UNL     1      -7.624  -2.387 125.282  0.00  0.00    +0.000 A 
ATOM     30  C   UNL     1      -6.406  -2.982 124.889  0.00  0.00    +0.000 A 
ATOM     31  C   UNL     1      -5.809  -2.676 123.666  0.00  0.00    +0.000 A 
ATOM     32 CL   UNL     1      -4.342  -3.460 123.220  0.00  0.00    +0.000 Cl
ATOM     33  C   UNL     1      -6.402  -1.769 122.804  0.00  0.00    +0.000 A 
ATOM     34  C   UNL     1      -7.593  -1.147 123.188  0.00  0.00    +0.000 A 
BRANCH  28  36
ATOM     35  C   UNL     1      -9.451   0.544 125.016  0.00  0.00    +0.000 C 
ATOM     36  O   UNL     1      -9.425  -0.815 124.580  0.00  0.00    +0.000 OA
ENDBRANCH  28  36
ENDBRANCH  24  29
ENDBRANCH  23  26
ENDBRANCH  22  23
ENDBRANCH   1  22
TORSDOF 8
ENDMDL
MODEL 3
REMARK VINA RESULT:      -8.4      2.019      2.497
REMARK  Name = Glyburide
REMARK  9 active torsions:
REMARK  status: ('A' for Active; 'I' for Inactive)
REMARK    1  A    between atoms: C_1  and  O_2
REMARK    2  A    between atoms: O_2  and  C_3
REMARK    3  A    between atoms: C_4  and  C_10
REMARK    4  A    between atoms: N_12  and  C_13
REMARK    5  A    between atoms: C_13  and  C_14
REMARK    6  A    between atoms: C_14  and  C_15
REMARK    7  A    between atoms: C_18  and  S_21
REMARK    8  A    between atoms: S_21  and  N_24
REMARK    9  A    between atoms: N_27  and  C_28
REMARK                            x       y       z     vdW  Elec       q    Type
REMARK                         _______ _______ _______ _____ _____    ______ ____
ROOT
ATOM      1  C   UNL     1      -8.345   1.172 130.924  0.00  0.00    +0.000 A 
ATOM      2  C   UNL     1      -9.239   1.348 131.985  0.00  0.00    +0.000 A 
ATOM      3  C   UNL     1      -9.449   2.626 132.519  0.00  0.00    +0.000 A 
ATOM      4  C   UNL     1      -8.693   3.723 132.062  0.00  0.00    +0.000 A 
ATOM      5  C   UNL     1      -7.788   3.551 131.030  0.00  0.00    +0.000 A 
ATOM      6  C   UNL     1      -7.616   2.287 130.477  0.00  0.00    +0.000 A 
ENDROOT
BRANCH   4   7
ATOM      7  S   UNL     1      -8.856   5.282 132.912  0.00  0.00    +0.000 S 
ATOM      8  O   UNL     1      -8.497   4.997 134.285  0.00  0.00    +0.000 OA
ATOM      9  O   UNL     1      -8.115   6.215 132.089  0.00  0.00    +0.000 OA
BRANCH   7  10
ATOM     10  N   UNL     1     -10.496   5.741 132.872  0.00  0.00    +0.000 N 
ATOM     11  C   UNL     1     -11.004   6.231 131.662  0.00  0.00    +0.000 C 
ATOM     12  O   UNL     1     -10.289   6.240 130.684  0.00  0.00    +0.000 OA
ATOM     13  N   UNL     1     -12.313   6.707 131.658  0.00  0.00    +0.000 N 
ATOM     14  H   UNL     1     -11.064   5.673 133.696  0.00  0.00    +0.000 HD
ATOM     15  H   UNL     1     -12.902   6.536 132.458  0.00  0.00    +0.000 HD
BRANCH  13  16
ATOM     16  C   UNL     1     -12.973   7.240 130.426  0.00  0.00    +0.000 C 
ATOM     17  C   UNL     1     -12.525   8.689 130.105  0.00  0.00    +0.000 C 
ATOM     18  C   UNL     1     -13.052   9.203 128.752  0.00  0.00    +0.000 C 
ATOM     19  C   UNL     1     -12.708   8.263 127.603  0.00  0.00    +0.000 C 
ATOM     20  C   UNL     1     -13.242   6.878 127.891  0.00  0.00    +0.000 C 
ATOM     21  C   UNL     1     -12.708   6.350 129.202  0.00  0.00    +0.000 C 
ENDBRANCH  13  16
ENDBRANCH   7  10
ENDBRANCH   4   7
BRANCH   1  22
ATOM     22  C   UNL     1      -8.236  -0.178 130.246  0.00  0.00    +0.000 C 
BRANCH  22  23
ATOM     23  C   UNL     1      -6.847  -0.446 129.686  0.00  0.00    +0.000 C 
BRANCH  23  26
ATOM     24  C   UNL     1      -6.671  -1.763 127.681  0.00  0.00    +0.000 C 
ATOM     25  O   UNL     1      -6.475  -2.721 128.420  0.00  0.00    +0.000 OA
ATOM     26  N   UNL     1      -6.785  -0.507 128.249  0.00  0.00    +0.000 N 
ATOM     27  H   UNL     1      -6.703   0.351 127.728  0.00  0.00    +0.000 HD
BRANCH  24  29
ATOM     28  C   UNL     1      -7.894  -1.539 125.451  0.00  0.00    +0.000 A 
ATOM     29  C   UNL     1      -6.752  -1.906 126.193  0.00  0.00    +0.000 A 
ATOM     30  C   UNL     1      -5.682  -2.526 125.514  0.00  0.00    +0.000 A 
ATOM     31  C   UNL     1      -5.758  -2.822 124.153  0.00  0.00    +0.000 A 
ATOM     32 CL   UNL     1      -4.437  -3.613 123.384  0.00  0.00    +0.000 Cl
ATOM     33  C   UNL     1      -6.896  -2.506 123.431  0.00  0.00    +0.000 A 
ATOM     34  C   UNL     1      -7.955  -1.865 124.078  0.00  0.00    +0.000 A 
BRANCH  28  36
ATOM     35  C   UNL     1      -9.338   0.362 125.731  0.00  0.00    +0.000 C 
ATOM     36  O   UNL     1      -9.069  -1.024 125.938  0.00  0.00    +0.000 OA
ENDBRANCH  28  36
ENDBRANCH  24  29
ENDBRANCH  23  26
ENDBRANCH  22  23
ENDBRANCH   1  22
TORSDOF 8
ENDMDL
MODEL 4
REMARK VINA RESULT:      -8.3      1.770      2.170
REMARK  Name = Glyburide
REMARK  9 active torsions:
REMARK  status: ('A' for Active; 'I' for Inactive)
REMARK    1  A    between atoms: C_1  and  O_2
REMARK    2  A    between atoms: O_2  and  C_3
REMARK    3  A    between atoms: C_4  and  C_10
REMARK    4  A    between atoms: N_12  and  C_13
REMARK    5  A    between atoms: C_13  and  C_14
REMARK    6  A    between atoms: C_14  and  C_15
REMARK    7  A    between atoms: C_18  and  S_21
REMARK    8  A    between atoms: S_21  and  N_24
REMARK    9  A    between atoms: N_27  and  C_28
REMARK                            x       y       z     vdW  Elec       q    Type
REMARK                         _______ _______ _______ _____ _____    ______ ____
ROOT
ATOM      1  C   UNL     1      -7.528  -0.759 130.981  0.00  0.00    +0.000 A 
ATOM      2  C   UNL     1      -6.747  -0.039 130.071  0.00  0.00    +0.000 A 
ATOM      3  C   UNL     1      -7.020   1.314 129.830  0.00  0.00    +0.000 A 
ATOM      4  C   UNL     1      -8.137   1.933 130.424  0.00  0.00    +0.000 A 
ATOM      5  C   UNL     1      -8.930   1.220 131.306  0.00  0.00    +0.000 A 
ATOM      6  C   UNL     1      -8.627  -0.111 131.571  0.00  0.00    +0.000 A 
ENDROOT
BRANCH   4   7
ATOM      7  S   UNL     1      -8.552   3.595 129.929  0.00  0.00    +0.000 S 
ATOM      8  O   UNL     1      -7.563   4.433 130.572  0.00  0.00    +0.000 OA
ATOM      9  O   UNL     1      -8.688   3.513 128.489  0.00  0.00    +0.000 OA
BRANCH   7  10
ATOM     10  N   UNL     1     -10.081   3.978 130.576  0.00  0.00    +0.000 N 
ATOM     11  C   UNL     1     -10.744   5.097 130.056  0.00  0.00    +0.000 C 
ATOM     12  O   UNL     1     -10.246   5.698 129.128  0.00  0.00    +0.000 OA
ATOM     13  N   UNL     1     -11.942   5.474 130.658  0.00  0.00    +0.000 N 
ATOM     14  H   UNL     1     -10.475   3.424 131.314  0.00  0.00    +0.000 HD
ATOM     15  H   UNL     1     -12.376   4.852 131.322  0.00  0.00    +0.000 HD
BRANCH  13  16
ATOM     16  C   UNL     1     -12.750   6.640 130.185  0.00  0.00    +0.000 C 
ATOM     17  C   UNL     1     -12.042   7.992 130.463  0.00  0.00    +0.000 C 
ATOM     18  C   UNL     1     -12.767   9.198 129.835  0.00  0.00    +0.000 C 
ATOM     19  C   UNL     1     -13.010   9.011 128.342  0.00  0.00    +0.000 C 
ATOM     20  C   UNL     1     -13.790   7.738 128.101  0.00  0.00    +0.000 C 
ATOM     21  C   UNL     1     -13.074   6.543 128.686  0.00  0.00    +0.000 C 
ENDBRANCH  13  16
ENDBRANCH   7  10
ENDBRANCH   4   7
BRANCH   1  22
ATOM     22  C   UNL     1      -7.138  -2.173 131.356  0.00  0.00    +0.000 C 
BRANCH  22  23
ATOM     23  C   UNL     1      -7.666  -3.210 130.377  0.00  0.00    +0.000 C 
BRANCH  23  26
ATOM     24  C   UNL     1      -8.193  -3.322 128.032  0.00  0.00    +0.000 C 
ATOM     25  O   UNL     1      -9.214  -3.911 128.369  0.00  0.00    +0.000 OA
ATOM     26  N   UNL     1      -7.270  -2.995 129.009  0.00  0.00    +0.000 N 
ATOM     27  H   UNL     1      -6.316  -2.739 128.812  0.00  0.00    +0.000 HD
BRANCH  24  29
ATOM     28  C   UNL     1      -6.786  -2.213 126.213  0.00  0.00    +0.000 A 
ATOM     29  C   UNL     1      -7.902  -2.984 126.604  0.00  0.00    +0.000 A 
ATOM     30  C   UNL     1      -8.832  -3.366 125.615  0.00  0.00    +0.000 A 
ATOM     31  C   UNL     1      -8.695  -2.955 124.289  0.00  0.00    +0.000 A 
ATOM     32 CL   UNL     1      -9.881  -3.420 123.131  0.00  0.00    +0.000 Cl
ATOM     33  C   UNL     1      -7.627  -2.160 123.910  0.00  0.00    +0.000 A 
ATOM     34  C   UNL     1      -6.678  -1.795 124.868  0.00  0.00    +0.000 A 
BRANCH  28  36
ATOM     35  C   UNL     1      -5.331  -0.366 126.706  0.00  0.00    +0.000 C 
ATOM     36  O   UNL     1      -5.833  -1.661 127.030  0.00  0.00    +0.000 OA
ENDBRANCH  28  36
ENDBRANCH  24  29
ENDBRANCH  23  26
ENDBRANCH  22  23
ENDBRANCH   1  22
TORSDOF 8
ENDMDL
MODEL 5
REMARK VINA RESULT:      -8.2      5.325      7.531
REMARK  Name = Glyburide
REMARK  9 active torsions:
REMARK  status: ('A' for Active; 'I' for Inactive)
REMARK    1  A    between atoms: C_1  and  O_2
REMARK    2  A    between atoms: O_2  and  C_3
REMARK    3  A    between atoms: C_4  and  C_10
REMARK    4  A    between atoms: N_12  and  C_13
REMARK    5  A    between atoms: C_13  and  C_14
REMARK    6  A    between atoms: C_14  and  C_15
REMARK    7  A    between atoms: C_18  and  S_21
REMARK    8  A    between atoms: S_21  and  N_24
REMARK    9  A    between atoms: N_27  and  C_28
REMARK                            x       y       z     vdW  Elec       q    Type
REMARK                         _______ _______ _______ _____ _____    ______ ____
ROOT
ATOM      1  C   UNL     1      -7.711  -2.567 125.231  0.00  0.00    +0.000 A 
ATOM      2  C   UNL     1      -8.532  -2.562 126.363  0.00  0.00    +0.000 A 
ATOM      3  C   UNL     1      -7.976  -2.344 127.631  0.00  0.00    +0.000 A 
ATOM      4  C   UNL     1      -6.581  -2.228 127.787  0.00  0.00    +0.000 A 
ATOM      5  C   UNL     1      -5.760  -2.257 126.675  0.00  0.00    +0.000 A 
ATOM      6  C   UNL     1      -6.324  -2.431 125.416  0.00  0.00    +0.000 A 
ENDROOT
BRANCH   4   7
ATOM      7  S   UNL     1      -5.914  -2.154 129.439  0.00  0.00    +0.000 S 
ATOM      8  O   UNL     1      -6.976  -1.590 130.245  0.00  0.00    +0.000 OA
ATOM      9  O   UNL     1      -5.383  -3.481 129.668  0.00  0.00    +0.000 OA
BRANCH   7  10
ATOM     10  N   UNL     1      -4.607  -1.061 129.437  0.00  0.00    +0.000 N 
ATOM     11  C   UNL     1      -4.880   0.277 129.122  0.00  0.00    +0.000 C 
ATOM     12  O   UNL     1      -6.028   0.616 128.939  0.00  0.00    +0.000 OA
ATOM     13  N   UNL     1      -3.798   1.147 129.015  0.00  0.00    +0.000 N 
ATOM     14  H   UNL     1      -3.678  -1.379 129.640  0.00  0.00    +0.000 HD
ATOM     15  H   UNL     1      -2.887   0.842 129.323  0.00  0.00    +0.000 HD
BRANCH  13  16
ATOM     16  C   UNL     1      -3.960   2.600 128.699  0.00  0.00    +0.000 C 
ATOM     17  C   UNL     1      -3.777   3.492 129.954  0.00  0.00    +0.000 C 
ATOM     18  C   UNL     1      -3.766   4.999 129.632  0.00  0.00    +0.000 C 
ATOM     19  C   UNL     1      -2.740   5.353 128.562  0.00  0.00    +0.000 C 
ATOM     20  C   UNL     1      -2.998   4.544 127.311  0.00  0.00    +0.000 C 
ATOM     21  C   UNL     1      -2.981   3.062 127.609  0.00  0.00    +0.000 C 
ENDBRANCH  13  16
ENDBRANCH   7  10
ENDBRANCH   4   7
BRANCH   1  22
ATOM     22  C   UNL     1      -8.330  -2.645 123.851  0.00  0.00    +0.000 C 
BRANCH  22  23
ATOM     23  C   UNL     1      -8.872  -1.308 123.372  0.00  0.00    +0.000 C 
BRANCH  23  26
ATOM     24  C   UNL     1      -8.207   0.984 123.675  0.00  0.00    +0.000 C 
ATOM     25  O   UNL     1      -9.362   1.192 124.029  0.00  0.00    +0.000 OA
ATOM     26  N   UNL     1      -7.875  -0.280 123.220  0.00  0.00    +0.000 N 
ATOM     27  H   UNL     1      -7.043  -0.481 122.690  0.00  0.00    +0.000 HD
BRANCH  24  29
ATOM     28  C   UNL     1      -6.611   2.576 124.874  0.00  0.00    +0.000 A 
ATOM     29  C   UNL     1      -7.164   2.059 123.684  0.00  0.00    +0.000 A 
ATOM     30  C   UNL     1      -6.791   2.648 122.458  0.00  0.00    +0.000 A 
ATOM     31  C   UNL     1      -5.937   3.750 122.412  0.00  0.00    +0.000 A 
ATOM     32 CL   UNL     1      -5.544   4.453 120.890  0.00  0.00    +0.000 Cl
ATOM     33  C   UNL     1      -5.428   4.292 123.580  0.00  0.00    +0.000 A 
ATOM     34  C   UNL     1      -5.763   3.704 124.803  0.00  0.00    +0.000 A 
BRANCH  28  36
ATOM     35  C   UNL     1      -7.475   3.201 127.027  0.00  0.00    +0.000 C 
ATOM     36  O   UNL     1      -6.922   2.213 126.160  0.00  0.00    +0.000 OA
ENDBRANCH  28  36
ENDBRANCH  24  29
ENDBRANCH  23  26
ENDBRANCH  22  23
ENDBRANCH   1  22
TORSDOF 8
ENDMDL
MODEL 6
REMARK VINA RESULT:      -8.2      4.446      9.424
REMARK  Name = Glyburide
REMARK  9 active torsions:
REMARK  status: ('A' for Active; 'I' for Inactive)
REMARK    1  A    between atoms: C_1  and  O_2
REMARK    2  A    between atoms: O_2  and  C_3
REMARK    3  A    between atoms: C_4  and  C_10
REMARK    4  A    between atoms: N_12  and  C_13
REMARK    5  A    between atoms: C_13  and  C_14
REMARK    6  A    between atoms: C_14  and  C_15
REMARK    7  A    between atoms: C_18  and  S_21
REMARK    8  A    between atoms: S_21  and  N_24
REMARK    9  A    between atoms: N_27  and  C_28
REMARK                            x       y       z     vdW  Elec       q    Type
REMARK                         _______ _______ _______ _____ _____    ______ ____
ROOT
ATOM      1  C   UNL     1      -4.821   4.128 128.908  0.00  0.00    +0.000 A 
ATOM      2  C   UNL     1      -4.244   4.832 127.846  0.00  0.00    +0.000 A 
ATOM      3  C   UNL     1      -4.898   4.893 126.608  0.00  0.00    +0.000 A 
ATOM      4  C   UNL     1      -6.086   4.167 126.393  0.00  0.00    +0.000 A 
ATOM      5  C   UNL     1      -6.649   3.447 127.431  0.00  0.00    +0.000 A 
ATOM      6  C   UNL     1      -6.016   3.427 128.669  0.00  0.00    +0.000 A 
ENDROOT
BRANCH   4   7
ATOM      7  S   UNL     1      -6.765   4.118 124.745  0.00  0.00    +0.000 S 
ATOM      8  O   UNL     1      -8.179   4.375 124.918  0.00  0.00    +0.000 OA
ATOM      9  O   UNL     1      -5.902   4.991 123.979  0.00  0.00    +0.000 OA
BRANCH   7  10
ATOM     10  N   UNL     1      -6.579   2.537 124.140  0.00  0.00    +0.000 N 
ATOM     11  C   UNL     1      -7.621   1.627 124.369  0.00  0.00    +0.000 C 
ATOM     12  O   UNL     1      -8.631   2.014 124.915  0.00  0.00    +0.000 OA
ATOM     13  N   UNL     1      -7.423   0.308 123.969  0.00  0.00    +0.000 N 
ATOM     14  H   UNL     1      -5.744   2.273 123.652  0.00  0.00    +0.000 HD
ATOM     15  H   UNL     1      -6.630   0.082 123.389  0.00  0.00    +0.000 HD
BRANCH  13  16
ATOM     16  C   UNL     1      -8.464  -0.752 124.144  0.00  0.00    +0.000 C 
ATOM     17  C   UNL     1      -8.447  -1.782 122.985  0.00  0.00    +0.000 C 
ATOM     18  C   UNL     1      -9.387  -2.979 123.223  0.00  0.00    +0.000 C 
ATOM     19  C   UNL     1      -9.126  -3.663 124.559  0.00  0.00    +0.000 C 
ATOM     20  C   UNL     1      -9.246  -2.661 125.685  0.00  0.00    +0.000 C 
ATOM     21  C   UNL     1      -8.306  -1.496 125.479  0.00  0.00    +0.000 C 
ENDBRANCH  13  16
ENDBRANCH   7  10
ENDBRANCH   4   7
BRANCH   1  22
ATOM     22  C   UNL     1      -4.194   4.194 130.285  0.00  0.00    +0.000 C 
BRANCH  22  23
ATOM     23  C   UNL     1      -4.577   5.453 131.047  0.00  0.00    +0.000 C 
BRANCH  23  26
ATOM     24  C   UNL     1      -6.703   6.580 131.046  0.00  0.00    +0.000 C 
ATOM     25  O   UNL     1      -6.128   7.500 130.476  0.00  0.00    +0.000 OA
ATOM     26  N   UNL     1      -5.953   5.498 131.472  0.00  0.00    +0.000 N 
ATOM     27  H   UNL     1      -6.277   4.825 132.147  0.00  0.00    +0.000 HD
BRANCH  24  29
ATOM     28  C   UNL     1      -8.741   6.052 132.491  0.00  0.00    +0.000 A 
ATOM     29  C   UNL     1      -8.173   6.610 131.326  0.00  0.00    +0.000 A 
ATOM     30  C   UNL     1      -9.039   7.130 130.341  0.00  0.00    +0.000 A 
ATOM     31  C   UNL     1     -10.425   7.053 130.477  0.00  0.00    +0.000 A 
ATOM     32 CL   UNL     1     -11.434   7.669 129.226  0.00  0.00    +0.000 Cl
ATOM     33  C   UNL     1     -10.987   6.463 131.597  0.00  0.00    +0.000 A 
ATOM     34  C   UNL     1     -10.146   5.968 132.598  0.00  0.00    +0.000 A 
BRANCH  28  36
ATOM     35  C   UNL     1      -8.400   4.043 133.765  0.00  0.00    +0.000 C 
ATOM     36  O   UNL     1      -8.081   5.410 133.509  0.00  0.00    +0.000 OA
ENDBRANCH  28  36
ENDBRANCH  24  29
ENDBRANCH  23  26
ENDBRANCH  22  23
ENDBRANCH   1  22
TORSDOF 8
ENDMDL
MODEL 7
REMARK VINA RESULT:      -8.1      5.438      7.669
REMARK  Name = Glyburide
REMARK  9 active torsions:
REMARK  status: ('A' for Active; 'I' for Inactive)
REMARK    1  A    between atoms: C_1  and  O_2
REMARK    2  A    between atoms: O_2  and  C_3
REMARK    3  A    between atoms: C_4  and  C_10
REMARK    4  A    between atoms: N_12  and  C_13
REMARK    5  A    between atoms: C_13  and  C_14
REMARK    6  A    between atoms: C_14  and  C_15
REMARK    7  A    between atoms: C_18  and  S_21
REMARK    8  A    between atoms: S_21  and  N_24
REMARK    9  A    between atoms: N_27  and  C_28
REMARK                            x       y       z     vdW  Elec       q    Type
REMARK                         _______ _______ _______ _____ _____    ______ ____
ROOT
ATOM      1  C   UNL     1      -7.418  -2.381 124.905  0.00  0.00    +0.000 A 
ATOM      2  C   UNL     1      -8.339  -2.360 125.957  0.00  0.00    +0.000 A 
ATOM      3  C   UNL     1      -7.896  -2.171 127.273  0.00  0.00    +0.000 A 
ATOM      4  C   UNL     1      -6.518  -2.099 127.558  0.00  0.00    +0.000 A 
ATOM      5  C   UNL     1      -5.600  -2.144 126.525  0.00  0.00    +0.000 A 
ATOM      6  C   UNL     1      -6.051  -2.290 125.217  0.00  0.00    +0.000 A 
ENDROOT
BRANCH   4   7
ATOM      7  S   UNL     1      -6.004  -2.060 129.264  0.00  0.00    +0.000 S 
ATOM      8  O   UNL     1      -7.129  -1.496 129.980  0.00  0.00    +0.000 OA
ATOM      9  O   UNL     1      -5.510  -3.397 129.517  0.00  0.00    +0.000 OA
BRANCH   7  10
ATOM     10  N   UNL     1      -4.690  -0.984 129.400  0.00  0.00    +0.000 N 
ATOM     11  C   UNL     1      -4.910   0.356 129.054  0.00  0.00    +0.000 C 
ATOM     12  O   UNL     1      -6.028   0.709 128.746  0.00  0.00    +0.000 OA
ATOM     13  N   UNL     1      -3.812   1.212 129.061  0.00  0.00    +0.000 N 
ATOM     14  H   UNL     1      -3.793  -1.312 129.703  0.00  0.00    +0.000 HD
ATOM     15  H   UNL     1      -2.944   0.897 129.467  0.00  0.00    +0.000 HD
BRANCH  13  16
ATOM     16  C   UNL     1      -3.920   2.666 128.725  0.00  0.00    +0.000 C 
ATOM     17  C   UNL     1      -3.718   3.568 129.970  0.00  0.00    +0.000 C 
ATOM     18  C   UNL     1      -3.652   5.069 129.629  0.00  0.00    +0.000 C 
ATOM     19  C   UNL     1      -2.605   5.373 128.564  0.00  0.00    +0.000 C 
ATOM     20  C   UNL     1      -2.879   4.557 127.321  0.00  0.00    +0.000 C 
ATOM     21  C   UNL     1      -2.917   3.079 127.638  0.00  0.00    +0.000 C 
ENDBRANCH  13  16
ENDBRANCH   7  10
ENDBRANCH   4   7
BRANCH   1  22
ATOM     22  C   UNL     1      -7.910  -2.428 123.473  0.00  0.00    +0.000 C 
BRANCH  22  23
ATOM     23  C   UNL     1      -8.597  -1.141 123.043  0.00  0.00    +0.000 C 
BRANCH  23  26
ATOM     24  C   UNL     1      -8.441   1.023 124.083  0.00  0.00    +0.000 C 
ATOM     25  O   UNL     1      -9.622   0.881 124.377  0.00  0.00    +0.000 OA
ATOM     26  N   UNL     1      -7.837   0.055 123.300  0.00  0.00    +0.000 N 
ATOM     27  H   UNL     1      -6.967   0.195 122.811  0.00  0.00    +0.000 HD
BRANCH  24  29
ATOM     28  C   UNL     1      -6.765   2.899 123.647  0.00  0.00    +0.000 A 
ATOM     29  C   UNL     1      -7.651   2.220 124.510  0.00  0.00    +0.000 A 
ATOM     30  C   UNL     1      -7.718   2.629 125.858  0.00  0.00    +0.000 A 
ATOM     31  C   UNL     1      -6.897   3.642 126.353  0.00  0.00    +0.000 A 
ATOM     32 CL   UNL     1      -6.995   4.075 128.016  0.00  0.00    +0.000 Cl
ATOM     33  C   UNL     1      -5.992   4.279 125.521  0.00  0.00    +0.000 A 
ATOM     34  C   UNL     1      -5.931   3.909 124.174  0.00  0.00    +0.000 A 
BRANCH  28  36
ATOM     35  C   UNL     1      -6.706   3.587 121.345  0.00  0.00    +0.000 C 
ATOM     36  O   UNL     1      -6.481   2.590 122.341  0.00  0.00    +0.000 OA
ENDBRANCH  28  36
ENDBRANCH  24  29
ENDBRANCH  23  26
ENDBRANCH  22  23
ENDBRANCH   1  22
TORSDOF 8
ENDMDL
MODEL 8
REMARK VINA RESULT:      -8.0      4.872      9.949
REMARK  Name = Glyburide
REMARK  9 active torsions:
REMARK  status: ('A' for Active; 'I' for Inactive)
REMARK    1  A    between atoms: C_1  and  O_2
REMARK    2  A    between atoms: O_2  and  C_3
REMARK    3  A    between atoms: C_4  and  C_10
REMARK    4  A    between atoms: N_12  and  C_13
REMARK    5  A    between atoms: C_13  and  C_14
REMARK    6  A    between atoms: C_14  and  C_15
REMARK    7  A    between atoms: C_18  and  S_21
REMARK    8  A    between atoms: S_21  and  N_24
REMARK    9  A    between atoms: N_27  and  C_28
REMARK                            x       y       z     vdW  Elec       q    Type
REMARK                         _______ _______ _______ _____ _____    ______ ____
ROOT
ATOM      1  C   UNL     1      -2.964   5.523 129.623  0.00  0.00    +0.000 A 
ATOM      2  C   UNL     1      -3.323   5.959 128.343  0.00  0.00    +0.000 A 
ATOM      3  C   UNL     1      -4.101   5.138 127.515  0.00  0.00    +0.000 A 
ATOM      4  C   UNL     1      -4.444   3.834 127.925  0.00  0.00    +0.000 A 
ATOM      5  C   UNL     1      -4.071   3.387 129.179  0.00  0.00    +0.000 A 
ATOM      6  C   UNL     1      -3.335   4.224 130.011  0.00  0.00    +0.000 A 
ENDROOT
BRANCH   4   7
ATOM      7  S   UNL     1      -5.260   2.763 126.756  0.00  0.00    +0.000 S 
ATOM      8  O   UNL     1      -6.672   2.910 127.040  0.00  0.00    +0.000 OA
ATOM      9  O   UNL     1      -4.680   3.124 125.479  0.00  0.00    +0.000 OA
BRANCH   7  10
ATOM     10  N   UNL     1      -4.809   1.157 127.099  0.00  0.00    +0.000 N 
ATOM     11  C   UNL     1      -5.539   0.132 126.482  0.00  0.00    +0.000 C 
ATOM     12  O   UNL     1      -6.401   0.423 125.682  0.00  0.00    +0.000 OA
ATOM     13  N   UNL     1      -5.242  -1.179 126.845  0.00  0.00    +0.000 N 
ATOM     14  H   UNL     1      -4.058   0.964 127.734  0.00  0.00    +0.000 HD
ATOM     15  H   UNL     1      -4.419  -1.363 127.399  0.00  0.00    +0.000 HD
BRANCH  13  16
ATOM     16  C   UNL     1      -5.938  -2.359 126.246  0.00  0.00    +0.000 C 
ATOM     17  C   UNL     1      -7.474  -2.298 126.456  0.00  0.00    +0.000 C 
ATOM     18  C   UNL     1      -8.234  -3.407 125.704  0.00  0.00    +0.000 C 
ATOM     19  C   UNL     1      -7.891  -3.437 124.220  0.00  0.00    +0.000 C 
ATOM     20  C   UNL     1      -6.399  -3.598 124.037  0.00  0.00    +0.000 C 
ATOM     21  C   UNL     1      -5.643  -2.499 124.745  0.00  0.00    +0.000 C 
ENDBRANCH  13  16
ENDBRANCH   7  10
ENDBRANCH   4   7
BRANCH   1  22
ATOM     22  C   UNL     1      -2.259   6.470 130.571  0.00  0.00    +0.000 C 
BRANCH  22  23
ATOM     23  C   UNL     1      -3.183   7.543 131.128  0.00  0.00    +0.000 C 
BRANCH  23  26
ATOM     24  C   UNL     1      -5.562   7.181 131.096  0.00  0.00    +0.000 C 
ATOM     25  O   UNL     1      -5.573   7.860 130.075  0.00  0.00    +0.000 OA
ATOM     26  N   UNL     1      -4.365   7.035 131.775  0.00  0.00    +0.000 N 
ATOM     27  H   UNL     1      -4.300   6.713 132.727  0.00  0.00    +0.000 HD
BRANCH  24  29
ATOM     28  C   UNL     1      -8.083   6.780 131.108  0.00  0.00    +0.000 A 
ATOM     29  C   UNL     1      -6.800   6.543 131.644  0.00  0.00    +0.000 A 
ATOM     30  C   UNL     1      -6.694   5.751 132.806  0.00  0.00    +0.000 A 
ATOM     31  C   UNL     1      -7.826   5.250 133.450  0.00  0.00    +0.000 A 
ATOM     32 CL   UNL     1      -7.641   4.320 134.887  0.00  0.00    +0.000 Cl
ATOM     33  C   UNL     1      -9.090   5.519 132.954  0.00  0.00    +0.000 A 
ATOM     34  C   UNL     1      -9.215   6.278 131.787  0.00  0.00    +0.000 A 
BRANCH  28  36
ATOM     35  C   UNL     1      -9.760   7.639 129.617  0.00  0.00    +0.000 C 
ATOM     36  O   UNL     1      -8.403   7.599 130.054  0.00  0.00    +0.000 OA
ENDBRANCH  28  36
ENDBRANCH  24  29
ENDBRANCH  23  26
ENDBRANCH  22  23
ENDBRANCH   1  22
TORSDOF 8
ENDMDL
MODEL 9
REMARK VINA RESULT:      -7.9      5.644      9.858
REMARK  Name = Glyburide
REMARK  9 active torsions:
REMARK  status: ('A' for Active; 'I' for Inactive)
REMARK    1  A    between atoms: C_1  and  O_2
REMARK    2  A    between atoms: O_2  and  C_3
REMARK    3  A    between atoms: C_4  and  C_10
REMARK    4  A    between atoms: N_12  and  C_13
REMARK    5  A    between atoms: C_13  and  C_14
REMARK    6  A    between atoms: C_14  and  C_15
REMARK    7  A    between atoms: C_18  and  S_21
REMARK    8  A    between atoms: S_21  and  N_24
REMARK    9  A    between atoms: N_27  and  C_28
REMARK                            x       y       z     vdW  Elec       q    Type
REMARK                         _______ _______ _______ _____ _____    ______ ____
ROOT
ATOM      1  C   UNL     1      -8.517   1.665 124.097  0.00  0.00    +0.000 A 
ATOM      2  C   UNL     1      -7.718   0.804 123.338  0.00  0.00    +0.000 A 
ATOM      3  C   UNL     1      -7.842  -0.583 123.490  0.00  0.00    +0.000 A 
ATOM      4  C   UNL     1      -8.697  -1.119 124.473  0.00  0.00    +0.000 A 
ATOM      5  C   UNL     1      -9.471  -0.272 125.245  0.00  0.00    +0.000 A 
ATOM      6  C   UNL     1      -9.373   1.102 125.059  0.00  0.00    +0.000 A 
ENDROOT
BRANCH   4   7
ATOM      7  S   UNL     1      -8.667  -2.878 124.759  0.00  0.00    +0.000 S 
ATOM      8  O   UNL     1      -9.792  -3.397 124.010  0.00  0.00    +0.000 OA
ATOM      9  O   UNL     1      -7.299  -3.261 124.477  0.00  0.00    +0.000 OA
BRANCH   7  10
ATOM     10  N   UNL     1      -8.955  -3.154 126.415  0.00  0.00    +0.000 N 
ATOM     11  C   UNL     1      -7.907  -2.897 127.308  0.00  0.00    +0.000 C 
ATOM     12  O   UNL     1      -6.874  -2.424 126.883  0.00  0.00    +0.000 OA
ATOM     13  N   UNL     1      -8.105  -3.224 128.647  0.00  0.00    +0.000 N 
ATOM     14  H   UNL     1      -9.842  -3.504 126.726  0.00  0.00    +0.000 HD
ATOM     15  H   UNL     1      -9.031  -3.473 128.961  0.00  0.00    +0.000 HD
BRANCH  13  16
ATOM     16  C   UNL     1      -7.069  -2.984 129.698  0.00  0.00    +0.000 C 
ATOM     17  C   UNL     1      -7.675  -2.362 130.983  0.00  0.00    +0.000 C 
ATOM     18  C   UNL     1      -6.668  -2.262 132.144  0.00  0.00    +0.000 C 
ATOM     19  C   UNL     1      -6.007  -3.601 132.450  0.00  0.00    +0.000 C 
ATOM     20  C   UNL     1      -5.335  -4.142 131.209  0.00  0.00    +0.000 C 
ATOM     21  C   UNL     1      -6.321  -4.273 130.071  0.00  0.00    +0.000 C 
ENDBRANCH  13  16
ENDBRANCH   7  10
ENDBRANCH   4   7
BRANCH   1  22
ATOM     22  C   UNL     1      -8.493   3.155 123.821  0.00  0.00    +0.000 C 
BRANCH  22  23
ATOM     23  C   UNL     1      -8.155   3.977 125.056  0.00  0.00    +0.000 C 
BRANCH  23  26
ATOM     24  C   UNL     1      -5.960   4.697 125.726  0.00  0.00    +0.000 C 
ATOM     25  O   UNL     1      -6.217   5.752 125.156  0.00  0.00    +0.000 OA
ATOM     26  N   UNL     1      -6.879   3.667 125.648  0.00  0.00    +0.000 N 
ATOM     27  H   UNL     1      -6.662   2.708 125.864  0.00  0.00    +0.000 HD
BRANCH  24  29
ATOM     28  C   UNL     1      -4.071   3.213 126.590  0.00  0.00    +0.000 A 
ATOM     29  C   UNL     1      -4.675   4.481 126.463  0.00  0.00    +0.000 A 
ATOM     30  C   UNL     1      -4.095   5.572 127.143  0.00  0.00    +0.000 A 
ATOM     31  C   UNL     1      -2.981   5.406 127.967  0.00  0.00    +0.000 A 
ATOM     32 CL   UNL     1      -2.337   6.765 128.804  0.00  0.00    +0.000 Cl
ATOM     33  C   UNL     1      -2.413   4.154 128.133  0.00  0.00    +0.000 A 
ATOM     34  C   UNL     1      -2.956   3.066 127.444  0.00  0.00    +0.000 A 
BRANCH  28  36
ATOM     35  C   UNL     1      -5.063   1.066 127.015  0.00  0.00    +0.000 C 
ATOM     36  O   UNL     1      -4.535   2.020 126.095  0.00  0.00    +0.000 OA
ENDBRANCH  28  36
ENDBRANCH  24  29
ENDBRANCH  23  26
ENDBRANCH  22  23
ENDBRANCH   1  22
TORSDOF 8
ENDMDL
