MODEL 1
REMARK VINA RESULT:      -7.6      0.000      0.000
REMARK  Name = Glycopyrronium
REMARK  8 active torsions:
REMARK  status: ('A' for Active; 'I' for Inactive)
REMARK    1  A    between atoms: C_1  and  N_2
REMARK    2  A    between atoms: N_2  and  C_3
REMARK    3  A    between atoms: C_6  and  O_8
REMARK    4  A    between atoms: O_8  and  C_9
REMARK    5  A    between atoms: C_9  and  C_11
REMARK    6  A    between atoms: C_11  and  O_12
REMARK    7  A    between atoms: C_11  and  C_13
REMARK    8  A    between atoms: C_11  and  C_18
REMARK                            x       y       z     vdW  Elec       q    Type
REMARK                         _______ _______ _______ _____ _____    ______ ____
ROOT
ATOM      1  C   UNL     1      -8.486  -1.690 125.021  0.00  0.00    +0.000 C 
ENDROOT
BRANCH   1   2
ATOM      2  C   UNL     1      -8.479  -2.288 126.437  0.00  0.00    +0.000 A 
ATOM      3  C   UNL     1      -9.055  -3.520 126.800  0.00  0.00    +0.000 A 
ATOM      4  C   UNL     1      -9.001  -3.985 128.113  0.00  0.00    +0.000 A 
ATOM      5  C   UNL     1      -8.297  -3.274 129.074  0.00  0.00    +0.000 A 
ATOM      6  C   UNL     1      -7.721  -2.052 128.747  0.00  0.00    +0.000 A 
ATOM      7  C   UNL     1      -7.842  -1.551 127.456  0.00  0.00    +0.000 A 
ENDBRANCH   1   2
BRANCH   1   8
ATOM      8  C   UNL     1      -7.105  -1.730 124.303  0.00  0.00    +0.000 C 
ATOM      9  C   UNL     1      -6.218  -2.890 124.734  0.00  0.00    +0.000 C 
ATOM     10  C   UNL     1      -5.085  -2.858 123.738  0.00  0.00    +0.000 C 
ATOM     11  C   UNL     1      -5.749  -2.467 122.423  0.00  0.00    +0.000 C 
ATOM     12  C   UNL     1      -7.042  -1.726 122.769  0.00  0.00    +0.000 C 
ENDBRANCH   1   8
BRANCH   1  13
ATOM     13  C   UNL     1      -9.077  -0.250 125.052  0.00  0.00    +0.000 C 
ATOM     14  O   UNL     1     -10.156   0.074 125.551  0.00  0.00    +0.000 OA
BRANCH  13  15
ATOM     15  O   UNL     1      -8.264   0.671 124.413  0.00  0.00    +0.000 OA
BRANCH  15  21
ATOM     16  C   UNL     1      -7.055   5.056 125.444  0.00  0.00    +0.000 C 
ATOM     17  N   UNL     1      -6.637   3.639 125.042  0.00  0.00    +0.000 N 
ATOM     18  C   UNL     1      -5.143   3.557 125.333  0.00  0.00    +0.000 C 
ATOM     19  C   UNL     1      -6.973   3.361 123.575  0.00  0.00    +0.000 C 
ATOM     20  C   UNL     1      -8.429   2.947 123.599  0.00  0.00    +0.000 C 
ATOM     21  C   UNL     1      -8.534   2.037 124.813  0.00  0.00    +0.000 C 
ATOM     22  C   UNL     1      -7.462   2.555 125.802  0.00  0.00    +0.000 C 
ENDBRANCH  15  21
ENDBRANCH  13  15
ENDBRANCH   1  13
BRANCH   1  23
ATOM     23  O   UNL     1      -9.440  -2.524 124.318  0.00  0.00    +0.000 OA
ATOM     24  H   UNL     1      -9.404  -2.322 123.371  0.00  0.00    +0.000 HD
ENDBRANCH   1  23
TORSDOF 6
ENDMDL
MODEL 2
REMARK VINA RESULT:      -7.2      2.426      6.937
REMARK  Name = Glycopyrronium
REMARK  8 active torsions:
REMARK  status: ('A' for Active; 'I' for Inactive)
REMARK    1  A    between atoms: C_1  and  N_2
REMARK    2  A    between atoms: N_2  and  C_3
REMARK    3  A    between atoms: C_6  and  O_8
REMARK    4  A    between atoms: O_8  and  C_9
REMARK    5  A    between atoms: C_9  and  C_11
REMARK    6  A    between atoms: C_11  and  O_12
REMARK    7  A    between atoms: C_11  and  C_13
REMARK    8  A    between atoms: C_11  and  C_18
REMARK                            x       y       z     vdW  Elec       q    Type
REMARK                         _______ _______ _______ _____ _____    ______ ____
ROOT
ATOM      1  C   UNL     1      -7.516   3.033 123.743  0.00  0.00    +0.000 C 
ENDROOT
BRANCH   1   2
ATOM      2  C   UNL     1      -7.439   3.412 122.255  0.00  0.00    +0.000 A 
ATOM      3  C   UNL     1      -8.547   3.617 121.411  0.00  0.00    +0.000 A 
ATOM      4  C   UNL     1      -8.381   3.959 120.070  0.00  0.00    +0.000 A 
ATOM      5  C   UNL     1      -7.111   4.191 119.563  0.00  0.00    +0.000 A 
ATOM      6  C   UNL     1      -5.997   3.993 120.370  0.00  0.00    +0.000 A 
ATOM      7  C   UNL     1      -6.159   3.575 121.687  0.00  0.00    +0.000 A 
ENDBRANCH   1   2
BRANCH   1   8
ATOM      8  C   UNL     1      -6.134   2.941 124.452  0.00  0.00    +0.000 C 
ATOM      9  C   UNL     1      -5.583   4.285 124.909  0.00  0.00    +0.000 C 
ATOM     10  C   UNL     1      -4.401   3.909 125.769  0.00  0.00    +0.000 C 
ATOM     11  C   UNL     1      -4.851   2.648 126.498  0.00  0.00    +0.000 C 
ATOM     12  C   UNL     1      -5.955   2.004 125.656  0.00  0.00    +0.000 C 
ENDBRANCH   1   8
BRANCH   1  13
ATOM     13  C   UNL     1      -8.343   1.725 123.918  0.00  0.00    +0.000 C 
ATOM     14  O   UNL     1      -9.481   1.650 124.382  0.00  0.00    +0.000 OA
BRANCH  13  15
ATOM     15  O   UNL     1      -7.643   0.599 123.519  0.00  0.00    +0.000 OA
BRANCH  15  21
ATOM     16  C   UNL     1      -7.827  -3.937 124.590  0.00  0.00    +0.000 C 
ATOM     17  N   UNL     1      -6.992  -2.706 124.228  0.00  0.00    +0.000 N 
ATOM     18  C   UNL     1      -5.635  -3.249 123.795  0.00  0.00    +0.000 C 
ATOM     19  C   UNL     1      -6.894  -1.739 125.410  0.00  0.00    +0.000 C 
ATOM     20  C   UNL     1      -8.167  -0.924 125.329  0.00  0.00    +0.000 C 
ATOM     21  C   UNL     1      -8.326  -0.637 123.844  0.00  0.00    +0.000 C 
ATOM     22  C   UNL     1      -7.679  -1.844 123.125  0.00  0.00    +0.000 C 
ENDBRANCH  15  21
ENDBRANCH  13  15
ENDBRANCH   1  13
BRANCH   1  23
ATOM     23  O   UNL     1      -8.302   4.109 124.313  0.00  0.00    +0.000 OA
ATOM     24  H   UNL     1      -9.234   3.847 124.334  0.00  0.00    +0.000 HD
ENDBRANCH   1  23
TORSDOF 6
ENDMDL
MODEL 3
REMARK VINA RESULT:      -7.0      1.101      1.756
REMARK  Name = Glycopyrronium
REMARK  8 active torsions:
REMARK  status: ('A' for Active; 'I' for Inactive)
REMARK    1  A    between atoms: C_1  and  N_2
REMARK    2  A    between atoms: N_2  and  C_3
REMARK    3  A    between atoms: C_6  and  O_8
REMARK    4  A    between atoms: O_8  and  C_9
REMARK    5  A    between atoms: C_9  and  C_11
REMARK    6  A    between atoms: C_11  and  O_12
REMARK    7  A    between atoms: C_11  and  C_13
REMARK    8  A    between atoms: C_11  and  C_18
REMARK                            x       y       z     vdW  Elec       q    Type
REMARK                         _______ _______ _______ _____ _____    ______ ____
ROOT
ATOM      1  C   UNL     1      -7.957  -2.292 125.132  0.00  0.00    +0.000 C 
ENDROOT
BRANCH   1   2
ATOM      2  C   UNL     1      -7.859  -2.704 126.610  0.00  0.00    +0.000 A 
ATOM      3  C   UNL     1      -6.819  -2.341 127.486  0.00  0.00    +0.000 A 
ATOM      4  C   UNL     1      -6.813  -2.761 128.815  0.00  0.00    +0.000 A 
ATOM      5  C   UNL     1      -7.885  -3.480 129.322  0.00  0.00    +0.000 A 
ATOM      6  C   UNL     1      -8.925  -3.858 128.482  0.00  0.00    +0.000 A 
ATOM      7  C   UNL     1      -8.894  -3.504 127.137  0.00  0.00    +0.000 A 
ENDBRANCH   1   2
BRANCH   1   8
ATOM      8  C   UNL     1      -6.590  -2.239 124.391  0.00  0.00    +0.000 C 
ATOM      9  C   UNL     1      -5.887  -3.586 124.293  0.00  0.00    +0.000 C 
ATOM     10  C   UNL     1      -4.750  -3.324 123.336  0.00  0.00    +0.000 C 
ATOM     11  C   UNL     1      -5.336  -2.360 122.310  0.00  0.00    +0.000 C 
ATOM     12  C   UNL     1      -6.511  -1.642 122.978  0.00  0.00    +0.000 C 
ENDBRANCH   1   8
BRANCH   1  13
ATOM     13  C   UNL     1      -8.736  -0.950 125.003  0.00  0.00    +0.000 C 
ATOM     14  O   UNL     1      -9.724  -0.757 124.292  0.00  0.00    +0.000 OA
BRANCH  13  15
ATOM     15  O   UNL     1      -8.178   0.062 125.765  0.00  0.00    +0.000 OA
BRANCH  15  21
ATOM     16  C   UNL     1      -6.461   4.334 125.017  0.00  0.00    +0.000 C 
ATOM     17  N   UNL     1      -7.160   3.345 125.954  0.00  0.00    +0.000 N 
ATOM     18  C   UNL     1      -7.785   4.198 127.052  0.00  0.00    +0.000 C 
ATOM     19  C   UNL     1      -6.173   2.309 126.497  0.00  0.00    +0.000 C 
ATOM     20  C   UNL     1      -6.101   1.258 125.410  0.00  0.00    +0.000 C 
ATOM     21  C   UNL     1      -7.546   1.091 124.964  0.00  0.00    +0.000 C 
ATOM     22  C   UNL     1      -8.206   2.470 125.197  0.00  0.00    +0.000 C 
ENDBRANCH  15  21
ENDBRANCH  13  15
ENDBRANCH   1  13
BRANCH   1  23
ATOM     23  O   UNL     1      -8.798  -3.325 124.560  0.00  0.00    +0.000 OA
ATOM     24  H   UNL     1      -9.097  -3.920 125.264  0.00  0.00    +0.000 HD
ENDBRANCH   1  23
TORSDOF 6
ENDMDL
MODEL 4
REMARK VINA RESULT:      -7.0      6.644      9.144
REMARK  Name = Glycopyrronium
REMARK  8 active torsions:
REMARK  status: ('A' for Active; 'I' for Inactive)
REMARK    1  A    between atoms: C_1  and  N_2
REMARK    2  A    between atoms: N_2  and  C_3
REMARK    3  A    between atoms: C_6  and  O_8
REMARK    4  A    between atoms: O_8  and  C_9
REMARK    5  A    between atoms: C_9  and  C_11
REMARK    6  A    between atoms: C_11  and  O_12
REMARK    7  A    between atoms: C_11  and  C_13
REMARK    8  A    between atoms: C_11  and  C_18
REMARK                            x       y       z     vdW  Elec       q    Type
REMARK                         _______ _______ _______ _____ _____    ______ ____
ROOT
ATOM      1  C   UNL     1      -9.301   5.849 130.598  0.00  0.00    +0.000 C 
ENDROOT
BRANCH   1   2
ATOM      2  C   UNL     1      -8.995   5.258 131.984  0.00  0.00    +0.000 A 
ATOM      3  C   UNL     1      -9.432   4.002 132.445  0.00  0.00    +0.000 A 
ATOM      4  C   UNL     1      -9.105   3.546 133.721  0.00  0.00    +0.000 A 
ATOM      5  C   UNL     1      -8.264   4.294 134.532  0.00  0.00    +0.000 A 
ATOM      6  C   UNL     1      -7.820   5.540 134.107  0.00  0.00    +0.000 A 
ATOM      7  C   UNL     1      -8.210   6.029 132.865  0.00  0.00    +0.000 A 
ENDBRANCH   1   2
BRANCH   1   8
ATOM      8  C   UNL     1     -10.778   6.304 130.408  0.00  0.00    +0.000 C 
ATOM      9  C   UNL     1     -11.505   6.603 131.712  0.00  0.00    +0.000 C 
ATOM     10  C   UNL     1     -12.789   7.252 131.260  0.00  0.00    +0.000 C 
ATOM     11  C   UNL     1     -12.383   8.098 130.058  0.00  0.00    +0.000 C 
ATOM     12  C   UNL     1     -11.098   7.491 129.489  0.00  0.00    +0.000 C 
ENDBRANCH   1   8
BRANCH   1  13
ATOM     13  C   UNL     1      -8.856   4.856 129.484  0.00  0.00    +0.000 C 
ATOM     14  O   UNL     1      -9.438   3.817 129.173  0.00  0.00    +0.000 OA
BRANCH  13  15
ATOM     15  O   UNL     1      -7.678   5.245 128.868  0.00  0.00    +0.000 OA
BRANCH  15  21
ATOM     16  C   UNL     1      -3.234   3.830 128.810  0.00  0.00    +0.000 C 
ATOM     17  N   UNL     1      -4.257   4.953 128.618  0.00  0.00    +0.000 N 
ATOM     18  C   UNL     1      -3.529   6.037 127.833  0.00  0.00    +0.000 C 
ATOM     19  C   UNL     1      -4.787   5.451 129.966  0.00  0.00    +0.000 C 
ATOM     20  C   UNL     1      -5.892   4.476 130.313  0.00  0.00    +0.000 C 
ATOM     21  C   UNL     1      -6.622   4.261 128.996  0.00  0.00    +0.000 C 
ATOM     22  C   UNL     1      -5.545   4.447 127.900  0.00  0.00    +0.000 C 
ENDBRANCH  15  21
ENDBRANCH  13  15
ENDBRANCH   1  13
BRANCH   1  23
ATOM     23  O   UNL     1      -8.412   6.991 130.526  0.00  0.00    +0.000 OA
ATOM     24  H   UNL     1      -8.935   7.806 130.556  0.00  0.00    +0.000 HD
ENDBRANCH   1  23
TORSDOF 6
ENDMDL
MODEL 5
REMARK VINA RESULT:      -7.0      1.202      1.972
REMARK  Name = Glycopyrronium
REMARK  8 active torsions:
REMARK  status: ('A' for Active; 'I' for Inactive)
REMARK    1  A    between atoms: C_1  and  N_2
REMARK    2  A    between atoms: N_2  and  C_3
REMARK    3  A    between atoms: C_6  and  O_8
REMARK    4  A    between atoms: O_8  and  C_9
REMARK    5  A    between atoms: C_9  and  C_11
REMARK    6  A    between atoms: C_11  and  O_12
REMARK    7  A    between atoms: C_11  and  C_13
REMARK    8  A    between atoms: C_11  and  C_18
REMARK                            x       y       z     vdW  Elec       q    Type
REMARK                         _______ _______ _______ _____ _____    ______ ____
ROOT
ATOM      1  C   UNL     1      -8.629  -2.123 124.959  0.00  0.00    +0.000 C 
ENDROOT
BRANCH   1   2
ATOM      2  C   UNL     1      -8.461  -2.471 126.447  0.00  0.00    +0.000 A 
ATOM      3  C   UNL     1      -7.807  -1.668 127.399  0.00  0.00    +0.000 A 
ATOM      4  C   UNL     1      -7.701  -2.065 128.731  0.00  0.00    +0.000 A 
ATOM      5  C   UNL     1      -8.320  -3.230 129.160  0.00  0.00    +0.000 A 
ATOM      6  C   UNL     1      -8.970  -4.047 128.243  0.00  0.00    +0.000 A 
ATOM      7  C   UNL     1      -9.008  -3.689 126.899  0.00  0.00    +0.000 A 
ENDBRANCH   1   2
BRANCH   1   8
ATOM      8  C   UNL     1      -7.487  -2.654 124.044  0.00  0.00    +0.000 C 
ATOM      9  C   UNL     1      -7.173  -1.749 122.860  0.00  0.00    +0.000 C 
ATOM     10  C   UNL     1      -5.901  -2.333 122.296  0.00  0.00    +0.000 C 
ATOM     11  C   UNL     1      -5.114  -2.779 123.524  0.00  0.00    +0.000 C 
ATOM     12  C   UNL     1      -6.122  -3.005 124.653  0.00  0.00    +0.000 C 
ENDBRANCH   1   8
BRANCH   1  13
ATOM     13  C   UNL     1      -8.837  -0.589 124.790  0.00  0.00    +0.000 C 
ATOM     14  O   UNL     1      -9.864  -0.042 124.388  0.00  0.00    +0.000 OA
BRANCH  13  15
ATOM     15  O   UNL     1      -7.704   0.138 125.115  0.00  0.00    +0.000 OA
BRANCH  15  21
ATOM     16  C   UNL     1      -7.373   4.120 127.520  0.00  0.00    +0.000 C 
ATOM     17  N   UNL     1      -7.030   2.634 127.387  0.00  0.00    +0.000 N 
ATOM     18  C   UNL     1      -6.569   2.198 128.773  0.00  0.00    +0.000 C 
ATOM     19  C   UNL     1      -5.966   2.408 126.310  0.00  0.00    +0.000 C 
ATOM     20  C   UNL     1      -6.750   2.363 125.016  0.00  0.00    +0.000 C 
ATOM     21  C   UNL     1      -7.981   1.539 125.361  0.00  0.00    +0.000 C 
ATOM     22  C   UNL     1      -8.242   1.805 126.863  0.00  0.00    +0.000 C 
ENDBRANCH  15  21
ENDBRANCH  13  15
ENDBRANCH   1  13
BRANCH   1  23
ATOM     23  O   UNL     1      -9.885  -2.759 124.614  0.00  0.00    +0.000 OA
ATOM     24  H   UNL     1     -10.285  -2.291 123.867  0.00  0.00    +0.000 HD
ENDBRANCH   1  23
TORSDOF 6
ENDMDL
MODEL 6
REMARK VINA RESULT:      -6.9      3.039      5.383
REMARK  Name = Glycopyrronium
REMARK  8 active torsions:
REMARK  status: ('A' for Active; 'I' for Inactive)
REMARK    1  A    between atoms: C_1  and  N_2
REMARK    2  A    between atoms: N_2  and  C_3
REMARK    3  A    between atoms: C_6  and  O_8
REMARK    4  A    between atoms: O_8  and  C_9
REMARK    5  A    between atoms: C_9  and  C_11
REMARK    6  A    between atoms: C_11  and  O_12
REMARK    7  A    between atoms: C_11  and  C_13
REMARK    8  A    between atoms: C_11  and  C_18
REMARK                            x       y       z     vdW  Elec       q    Type
REMARK                         _______ _______ _______ _____ _____    ______ ____
ROOT
ATOM      1  C   UNL     1      -7.297   3.278 124.184  0.00  0.00    +0.000 C 
ENDROOT
BRANCH   1   2
ATOM      2  C   UNL     1      -7.700   1.863 124.631  0.00  0.00    +0.000 A 
ATOM      3  C   UNL     1      -6.907   0.710 124.486  0.00  0.00    +0.000 A 
ATOM      4  C   UNL     1      -7.355  -0.536 124.922  0.00  0.00    +0.000 A 
ATOM      5  C   UNL     1      -8.566  -0.644 125.590  0.00  0.00    +0.000 A 
ATOM      6  C   UNL     1      -9.374   0.476 125.745  0.00  0.00    +0.000 A 
ATOM      7  C   UNL     1      -8.961   1.705 125.240  0.00  0.00    +0.000 A 
ENDBRANCH   1   2
BRANCH   1   8
ATOM      8  C   UNL     1      -6.148   3.314 123.134  0.00  0.00    +0.000 C 
ATOM      9  C   UNL     1      -6.616   3.115 121.698  0.00  0.00    +0.000 C 
ATOM     10  C   UNL     1      -5.392   3.443 120.879  0.00  0.00    +0.000 C 
ATOM     11  C   UNL     1      -4.736   4.599 121.625  0.00  0.00    +0.000 C 
ATOM     12  C   UNL     1      -5.199   4.521 123.082  0.00  0.00    +0.000 C 
ENDBRANCH   1   8
BRANCH   1  13
ATOM     13  C   UNL     1      -6.970   4.158 125.426  0.00  0.00    +0.000 C 
ATOM     14  O   UNL     1      -7.426   5.279 125.653  0.00  0.00    +0.000 OA
BRANCH  13  15
ATOM     15  O   UNL     1      -6.057   3.556 126.276  0.00  0.00    +0.000 OA
BRANCH  15  21
ATOM     16  C   UNL     1      -2.794   4.981 129.288  0.00  0.00    +0.000 C 
ATOM     17  N   UNL     1      -3.847   3.945 128.886  0.00  0.00    +0.000 N 
ATOM     18  C   UNL     1      -4.118   3.132 130.145  0.00  0.00    +0.000 C 
ATOM     19  C   UNL     1      -3.355   3.085 127.719  0.00  0.00    +0.000 C 
ATOM     20  C   UNL     1      -3.670   3.911 126.490  0.00  0.00    +0.000 C 
ATOM     21  C   UNL     1      -5.054   4.477 126.771  0.00  0.00    +0.000 C 
ATOM     22  C   UNL     1      -5.130   4.617 128.310  0.00  0.00    +0.000 C 
ENDBRANCH  15  21
ENDBRANCH  13  15
ENDBRANCH   1  13
BRANCH   1  23
ATOM     23  O   UNL     1      -8.520   3.799 123.606  0.00  0.00    +0.000 OA
ATOM     24  H   UNL     1      -8.446   3.789 122.641  0.00  0.00    +0.000 HD
ENDBRANCH   1  23
TORSDOF 6
ENDMDL
MODEL 7
REMARK VINA RESULT:      -6.9      1.269      2.102
REMARK  Name = Glycopyrronium
REMARK  8 active torsions:
REMARK  status: ('A' for Active; 'I' for Inactive)
REMARK    1  A    between atoms: C_1  and  N_2
REMARK    2  A    between atoms: N_2  and  C_3
REMARK    3  A    between atoms: C_6  and  O_8
REMARK    4  A    between atoms: O_8  and  C_9
REMARK    5  A    between atoms: C_9  and  C_11
REMARK    6  A    between atoms: C_11  and  O_12
REMARK    7  A    between atoms: C_11  and  C_13
REMARK    8  A    between atoms: C_11  and  C_18
REMARK                            x       y       z     vdW  Elec       q    Type
REMARK                         _______ _______ _______ _____ _____    ______ ____
ROOT
ATOM      1  C   UNL     1      -7.899  -2.677 124.948  0.00  0.00    +0.000 C 
ENDROOT
BRANCH   1   2
ATOM      2  C   UNL     1      -7.939  -2.877 126.472  0.00  0.00    +0.000 A 
ATOM      3  C   UNL     1      -7.028  -2.317 127.387  0.00  0.00    +0.000 A 
ATOM      4  C   UNL     1      -7.142  -2.552 128.757  0.00  0.00    +0.000 A 
ATOM      5  C   UNL     1      -8.216  -3.279 129.250  0.00  0.00    +0.000 A 
ATOM      6  C   UNL     1      -9.129  -3.848 128.372  0.00  0.00    +0.000 A 
ATOM      7  C   UNL     1      -8.971  -3.677 127.000  0.00  0.00    +0.000 A 
ENDBRANCH   1   2
BRANCH   1   8
ATOM      8  C   UNL     1      -6.464  -2.604 124.350  0.00  0.00    +0.000 C 
ATOM      9  C   UNL     1      -5.698  -3.919 124.418  0.00  0.00    +0.000 C 
ATOM     10  C   UNL     1      -4.479  -3.663 123.567  0.00  0.00    +0.000 C 
ATOM     11  C   UNL     1      -4.992  -2.796 122.423  0.00  0.00    +0.000 C 
ATOM     12  C   UNL     1      -6.260  -2.096 122.915  0.00  0.00    +0.000 C 
ENDBRANCH   1   8
BRANCH   1  13
ATOM     13  C   UNL     1      -8.753  -1.438 124.549  0.00  0.00    +0.000 C 
ATOM     14  O   UNL     1      -9.446  -1.338 123.536  0.00  0.00    +0.000 OA
BRANCH  13  15
ATOM     15  O   UNL     1      -8.637  -0.399 125.458  0.00  0.00    +0.000 OA
BRANCH  15  21
ATOM     16  C   UNL     1      -6.679   3.303 123.404  0.00  0.00    +0.000 C 
ATOM     17  N   UNL     1      -7.911   2.419 123.620  0.00  0.00    +0.000 N 
ATOM     18  C   UNL     1      -8.860   2.760 122.477  0.00  0.00    +0.000 C 
ATOM     19  C   UNL     1      -8.530   2.663 124.998  0.00  0.00    +0.000 C 
ATOM     20  C   UNL     1      -7.716   1.791 125.931  0.00  0.00    +0.000 C 
ATOM     21  C   UNL     1      -7.536   0.494 125.157  0.00  0.00    +0.000 C 
ATOM     22  C   UNL     1      -7.537   0.906 123.666  0.00  0.00    +0.000 C 
ENDBRANCH  15  21
ENDBRANCH  13  15
ENDBRANCH   1  13
BRANCH   1  23
ATOM     23  O   UNL     1      -8.592  -3.847 124.447  0.00  0.00    +0.000 OA
ATOM     24  H   UNL     1      -9.437  -3.576 124.059  0.00  0.00    +0.000 HD
ENDBRANCH   1  23
TORSDOF 6
ENDMDL
MODEL 8
REMARK VINA RESULT:      -6.8      2.190      4.522
REMARK  Name = Glycopyrronium
REMARK  8 active torsions:
REMARK  status: ('A' for Active; 'I' for Inactive)
REMARK    1  A    between atoms: C_1  and  N_2
REMARK    2  A    between atoms: N_2  and  C_3
REMARK    3  A    between atoms: C_6  and  O_8
REMARK    4  A    between atoms: O_8  and  C_9
REMARK    5  A    between atoms: C_9  and  C_11
REMARK    6  A    between atoms: C_11  and  O_12
REMARK    7  A    between atoms: C_11  and  C_13
REMARK    8  A    between atoms: C_11  and  C_18
REMARK                            x       y       z     vdW  Elec       q    Type
REMARK                         _______ _______ _______ _____ _____    ______ ____
ROOT
ATOM      1  C   UNL     1      -6.473  -0.961 126.583  0.00  0.00    +0.000 C 
ENDROOT
BRANCH   1   2
ATOM      2  C   UNL     1      -6.264  -1.488 125.154  0.00  0.00    +0.000 A 
ATOM      3  C   UNL     1      -6.925  -1.009 124.008  0.00  0.00    +0.000 A 
ATOM      4  C   UNL     1      -6.671  -1.549 122.748  0.00  0.00    +0.000 A 
ATOM      5  C   UNL     1      -5.690  -2.517 122.591  0.00  0.00    +0.000 A 
ATOM      6  C   UNL     1      -5.022  -3.012 123.704  0.00  0.00    +0.000 A 
ATOM      7  C   UNL     1      -5.331  -2.529 124.971  0.00  0.00    +0.000 A 
ENDBRANCH   1   2
BRANCH   1   8
ATOM      8  C   UNL     1      -7.520  -1.760 127.413  0.00  0.00    +0.000 C 
ATOM      9  C   UNL     1      -8.149  -2.924 126.658  0.00  0.00    +0.000 C 
ATOM     10  C   UNL     1      -8.907  -3.670 127.727  0.00  0.00    +0.000 C 
ATOM     11  C   UNL     1      -8.019  -3.568 128.962  0.00  0.00    +0.000 C 
ATOM     12  C   UNL     1      -7.131  -2.334 128.783  0.00  0.00    +0.000 C 
ENDBRANCH   1   8
BRANCH   1  13
ATOM     13  C   UNL     1      -6.805   0.560 126.548  0.00  0.00    +0.000 C 
ATOM     14  O   UNL     1      -7.905   1.062 126.782  0.00  0.00    +0.000 OA
BRANCH  13  15
ATOM     15  O   UNL     1      -5.715   1.332 126.183  0.00  0.00    +0.000 OA
BRANCH  15  21
ATOM     16  C   UNL     1      -3.153   4.723 128.104  0.00  0.00    +0.000 C 
ATOM     17  N   UNL     1      -3.248   3.529 127.151  0.00  0.00    +0.000 N 
ATOM     18  C   UNL     1      -1.808   3.110 126.880  0.00  0.00    +0.000 C 
ATOM     19  C   UNL     1      -4.008   3.900 125.875  0.00  0.00    +0.000 C 
ATOM     20  C   UNL     1      -5.466   3.741 126.251  0.00  0.00    +0.000 C 
ATOM     21  C   UNL     1      -5.497   2.458 127.068  0.00  0.00    +0.000 C 
ATOM     22  C   UNL     1      -4.111   2.376 127.751  0.00  0.00    +0.000 C 
ENDBRANCH  15  21
ENDBRANCH  13  15
ENDBRANCH   1  13
BRANCH   1  23
ATOM     23  O   UNL     1      -5.158  -1.092 127.176  0.00  0.00    +0.000 OA
ATOM     24  H   UNL     1      -5.248  -1.416 128.085  0.00  0.00    +0.000 HD
ENDBRANCH   1  23
TORSDOF 6
ENDMDL
MODEL 9
REMARK VINA RESULT:      -6.8      2.749      5.691
REMARK  Name = Glycopyrronium
REMARK  8 active torsions:
REMARK  status: ('A' for Active; 'I' for Inactive)
REMARK    1  A    between atoms: C_1  and  N_2
REMARK    2  A    between atoms: N_2  and  C_3
REMARK    3  A    between atoms: C_6  and  O_8
REMARK    4  A    between atoms: O_8  and  C_9
REMARK    5  A    between atoms: C_9  and  C_11
REMARK    6  A    between atoms: C_11  and  O_12
REMARK    7  A    between atoms: C_11  and  C_13
REMARK    8  A    between atoms: C_11  and  C_18
REMARK                            x       y       z     vdW  Elec       q    Type
REMARK                         _______ _______ _______ _____ _____    ______ ____
ROOT
ATOM      1  C   UNL     1      -7.633   1.963 124.035  0.00  0.00    +0.000 C 
ENDROOT
BRANCH   1   2
ATOM      2  C   UNL     1      -7.650   2.673 122.671  0.00  0.00    +0.000 A 
ATOM      3  C   UNL     1      -8.809   3.030 121.957  0.00  0.00    +0.000 A 
ATOM      4  C   UNL     1      -8.729   3.674 120.724  0.00  0.00    +0.000 A 
ATOM      5  C   UNL     1      -7.495   4.052 120.216  0.00  0.00    +0.000 A 
ATOM      6  C   UNL     1      -6.332   3.710 120.895  0.00  0.00    +0.000 A 
ATOM      7  C   UNL     1      -6.410   2.999 122.088  0.00  0.00    +0.000 A 
ENDBRANCH   1   2
BRANCH   1   8
ATOM      8  C   UNL     1      -8.531   0.694 124.107  0.00  0.00    +0.000 C 
ATOM      9  C   UNL     1      -7.945  -0.519 123.397  0.00  0.00    +0.000 C 
ATOM     10  C   UNL     1      -8.850  -1.649 123.821  0.00  0.00    +0.000 C 
ATOM     11  C   UNL     1      -9.188  -1.337 125.274  0.00  0.00    +0.000 C 
ATOM     12  C   UNL     1      -9.004   0.169 125.471  0.00  0.00    +0.000 C 
ENDBRANCH   1   8
BRANCH   1  13
ATOM     13  C   UNL     1      -7.975   2.975 125.168  0.00  0.00    +0.000 C 
ATOM     14  O   UNL     1      -8.926   3.757 125.172  0.00  0.00    +0.000 OA
BRANCH  13  15
ATOM     15  O   UNL     1      -7.056   2.941 126.203  0.00  0.00    +0.000 OA
BRANCH  15  21
ATOM     16  C   UNL     1      -3.853   5.859 127.929  0.00  0.00    +0.000 C 
ATOM     17  N   UNL     1      -4.310   4.423 127.656  0.00  0.00    +0.000 N 
ATOM     18  C   UNL     1      -3.445   3.544 128.551  0.00  0.00    +0.000 C 
ATOM     19  C   UNL     1      -4.172   4.075 126.171  0.00  0.00    +0.000 C 
ATOM     20  C   UNL     1      -5.438   4.619 125.543  0.00  0.00    +0.000 C 
ATOM     21  C   UNL     1      -6.530   4.249 126.536  0.00  0.00    +0.000 C 
ATOM     22  C   UNL     1      -5.836   4.241 127.919  0.00  0.00    +0.000 C 
ENDBRANCH  15  21
ENDBRANCH  13  15
ENDBRANCH   1  13
BRANCH   1  23
ATOM     23  O   UNL     1      -6.240   1.601 124.198  0.00  0.00    +0.000 OA
ATOM     24  H   UNL     1      -6.167   0.638 124.273  0.00  0.00    +0.000 HD
ENDBRANCH   1  23
TORSDOF 6
ENDMDL
