MODEL 1
REMARK VINA RESULT:      -3.2      0.000      0.000
REMARK  Name = Glycine
REMARK  3 active torsions:
REMARK  status: ('A' for Active; 'I' for Inactive)
REMARK    1  A    between atoms: N_1  and  CA_2
REMARK    2  A    between atoms: CA_2  and  C_3
REMARK    3  A    between atoms: C_3  and  O_4
REMARK                            x       y       z     vdW  Elec       q    Type
REMARK                         _______ _______ _______ _____ _____    ______ ____
ROOT
ATOM      1  CA  GLY A   1      -6.203   4.267 120.117  0.00  0.00    +0.000 C 
ENDROOT
BRANCH   1   2
ATOM      2  N   GLY A   1      -5.333   3.386 120.937  0.00  0.00    +0.000 NA
ATOM      3  H1  GLY A   1      -4.389   3.464 120.540  0.00  0.00    +0.000 HD
ATOM      4  H2  GLY A   1      -5.585   2.412 120.754  0.00  0.00    +0.000 HD
ENDBRANCH   1   2
BRANCH   1   5
ATOM      5  C   GLY A   1      -5.445   5.491 119.615  0.00  0.00    +0.000 C 
ATOM      6  OXT GLY A   1      -4.703   6.164 120.323  0.00  0.00    +0.000 OA
BRANCH   5   7
ATOM      7  O   GLY A   1      -5.650   5.764 118.304  0.00  0.00    +0.000 OA
ATOM      8  H   GLY A   1      -6.006   4.956 117.869  0.00  0.00    +0.000 HD
ENDBRANCH   5   7
ENDBRANCH   1   5
TORSDOF 3
ENDMDL
MODEL 2
REMARK VINA RESULT:      -3.2      9.484      9.735
REMARK  Name = Glycine
REMARK  3 active torsions:
REMARK  status: ('A' for Active; 'I' for Inactive)
REMARK    1  A    between atoms: N_1  and  CA_2
REMARK    2  A    between atoms: CA_2  and  C_3
REMARK    3  A    between atoms: C_3  and  O_4
REMARK                            x       y       z     vdW  Elec       q    Type
REMARK                         _______ _______ _______ _____ _____    ______ ____
ROOT
ATOM      1  CA  GLY A   1     -10.803   8.215 127.689  0.00  0.00    +0.000 C 
ENDROOT
BRANCH   1   2
ATOM      2  N   GLY A   1     -11.959   8.951 128.260  0.00  0.00    +0.000 NA
ATOM      3  H1  GLY A   1     -12.539   9.240 127.463  0.00  0.00    +0.000 HD
ATOM      4  H2  GLY A   1     -11.628   9.839 128.645  0.00  0.00    +0.000 HD
ENDBRANCH   1   2
BRANCH   1   5
ATOM      5  C   GLY A   1     -11.134   7.626 126.323  0.00  0.00    +0.000 C 
ATOM      6  OXT GLY A   1     -10.764   8.123 125.264  0.00  0.00    +0.000 OA
BRANCH   5   7
ATOM      7  O   GLY A   1     -11.863   6.486 126.379  0.00  0.00    +0.000 OA
ATOM      8  H   GLY A   1     -11.454   5.823 125.778  0.00  0.00    +0.000 HD
ENDBRANCH   5   7
ENDBRANCH   1   5
TORSDOF 3
ENDMDL
MODEL 3
REMARK VINA RESULT:      -3.1      9.627      9.968
REMARK  Name = Glycine
REMARK  3 active torsions:
REMARK  status: ('A' for Active; 'I' for Inactive)
REMARK    1  A    between atoms: N_1  and  CA_2
REMARK    2  A    between atoms: CA_2  and  C_3
REMARK    3  A    between atoms: C_3  and  O_4
REMARK                            x       y       z     vdW  Elec       q    Type
REMARK                         _______ _______ _______ _____ _____    ______ ____
ROOT
ATOM      1  CA  GLY A   1     -10.952   7.631 126.641  0.00  0.00    +0.000 C 
ENDROOT
BRANCH   1   2
ATOM      2  N   GLY A   1      -9.981   6.517 126.505  0.00  0.00    +0.000 NA
ATOM      3  H1  GLY A   1      -9.172   6.900 125.999  0.00  0.00    +0.000 HD
ATOM      4  H2  GLY A   1     -10.360   5.826 125.853  0.00  0.00    +0.000 HD
ENDBRANCH   1   2
BRANCH   1   5
ATOM      5  C   GLY A   1     -10.815   8.333 127.987  0.00  0.00    +0.000 C 
ATOM      6  OXT GLY A   1      -9.829   8.223 128.710  0.00  0.00    +0.000 OA
BRANCH   5   7
ATOM      7  O   GLY A   1     -11.877   9.108 128.313  0.00  0.00    +0.000 OA
ATOM      8  H   GLY A   1     -12.142   9.624 127.518  0.00  0.00    +0.000 HD
ENDBRANCH   5   7
ENDBRANCH   1   5
TORSDOF 3
ENDMDL
MODEL 4
REMARK VINA RESULT:      -3.0     10.314     10.647
REMARK  Name = Glycine
REMARK  3 active torsions:
REMARK  status: ('A' for Active; 'I' for Inactive)
REMARK    1  A    between atoms: N_1  and  CA_2
REMARK    2  A    between atoms: CA_2  and  C_3
REMARK    3  A    between atoms: C_3  and  O_4
REMARK                            x       y       z     vdW  Elec       q    Type
REMARK                         _______ _______ _______ _____ _____    ______ ____
ROOT
ATOM      1  CA  GLY A   1     -12.529   7.322 127.463  0.00  0.00    +0.000 C 
ENDROOT
BRANCH   1   2
ATOM      2  N   GLY A   1     -11.916   6.738 126.244  0.00  0.00    +0.000 NA
ATOM      3  H1  GLY A   1     -11.047   7.261 126.080  0.00  0.00    +0.000 HD
ATOM      4  H2  GLY A   1     -12.492   6.981 125.435  0.00  0.00    +0.000 HD
ENDBRANCH   1   2
BRANCH   1   5
ATOM      5  C   GLY A   1     -11.691   8.468 128.018  0.00  0.00    +0.000 C 
ATOM      6  OXT GLY A   1     -10.470   8.525 127.913  0.00  0.00    +0.000 OA
BRANCH   5   7
ATOM      7  O   GLY A   1     -12.418   9.433 128.629  0.00  0.00    +0.000 OA
ATOM      8  H   GLY A   1     -12.273  10.282 128.152  0.00  0.00    +0.000 HD
ENDBRANCH   5   7
ENDBRANCH   1   5
TORSDOF 3
ENDMDL
MODEL 5
REMARK VINA RESULT:      -2.8      9.925     10.181
REMARK  Name = Glycine
REMARK  3 active torsions:
REMARK  status: ('A' for Active; 'I' for Inactive)
REMARK    1  A    between atoms: N_1  and  CA_2
REMARK    2  A    between atoms: CA_2  and  C_3
REMARK    3  A    between atoms: C_3  and  O_4
REMARK                            x       y       z     vdW  Elec       q    Type
REMARK                         _______ _______ _______ _____ _____    ______ ____
ROOT
ATOM      1  CA  GLY A   1     -10.839   7.839 127.595  0.00  0.00    +0.000 C 
ENDROOT
BRANCH   1   2
ATOM      2  N   GLY A   1      -9.940   6.659 127.539  0.00  0.00    +0.000 NA
ATOM      3  H1  GLY A   1      -9.390   6.757 126.676  0.00  0.00    +0.000 HD
ATOM      4  H2  GLY A   1     -10.503   5.823 127.364  0.00  0.00    +0.000 HD
ENDBRANCH   1   2
BRANCH   1   5
ATOM      5  C   GLY A   1     -12.283   7.458 127.286  0.00  0.00    +0.000 C 
ATOM      6  OXT GLY A   1     -13.247   7.908 127.898  0.00  0.00    +0.000 OA
BRANCH   5   7
ATOM      7  O   GLY A   1     -12.413   6.586 126.258  0.00  0.00    +0.000 OA
ATOM      8  H   GLY A   1     -12.424   5.672 126.624  0.00  0.00    +0.000 HD
ENDBRANCH   5   7
ENDBRANCH   1   5
TORSDOF 3
ENDMDL
MODEL 6
REMARK VINA RESULT:      -2.8     10.113     10.364
REMARK  Name = Glycine
REMARK  3 active torsions:
REMARK  status: ('A' for Active; 'I' for Inactive)
REMARK    1  A    between atoms: N_1  and  CA_2
REMARK    2  A    between atoms: CA_2  and  C_3
REMARK    3  A    between atoms: C_3  and  O_4
REMARK                            x       y       z     vdW  Elec       q    Type
REMARK                         _______ _______ _______ _____ _____    ______ ____
ROOT
ATOM      1  CA  GLY A   1     -12.738   6.968 128.384  0.00  0.00    +0.000 C 
ENDROOT
BRANCH   1   2
ATOM      2  N   GLY A   1     -12.161   5.864 129.193  0.00  0.00    +0.000 NA
ATOM      3  H1  GLY A   1     -12.287   5.007 128.641  0.00  0.00    +0.000 HD
ATOM      4  H2  GLY A   1     -12.757   5.707 130.009  0.00  0.00    +0.000 HD
ENDBRANCH   1   2
BRANCH   1   5
ATOM      5  C   GLY A   1     -11.790   7.401 127.271  0.00  0.00    +0.000 C 
ATOM      6  OXT GLY A   1     -10.989   8.323 127.385  0.00  0.00    +0.000 OA
BRANCH   5   7
ATOM      7  O   GLY A   1     -11.897   6.662 126.141  0.00  0.00    +0.000 OA
ATOM      8  H   GLY A   1     -11.056   6.168 126.010  0.00  0.00    +0.000 HD
ENDBRANCH   5   7
ENDBRANCH   1   5
TORSDOF 3
ENDMDL
MODEL 7
REMARK VINA RESULT:      -2.7     10.926     11.238
REMARK  Name = Glycine
REMARK  3 active torsions:
REMARK  status: ('A' for Active; 'I' for Inactive)
REMARK    1  A    between atoms: N_1  and  CA_2
REMARK    2  A    between atoms: CA_2  and  C_3
REMARK    3  A    between atoms: C_3  and  O_4
REMARK                            x       y       z     vdW  Elec       q    Type
REMARK                         _______ _______ _______ _____ _____    ______ ____
ROOT
ATOM      1  CA  GLY A   1     -13.146   8.527 128.327  0.00  0.00    +0.000 C 
ENDROOT
BRANCH   1   2
ATOM      2  N   GLY A   1     -12.880   9.875 128.889  0.00  0.00    +0.000 NA
ATOM      3  H1  GLY A   1     -12.402   9.723 129.786  0.00  0.00    +0.000 HD
ATOM      4  H2  GLY A   1     -13.768  10.299 129.165  0.00  0.00    +0.000 HD
ENDBRANCH   1   2
BRANCH   1   5
ATOM      5  C   GLY A   1     -11.895   7.925 127.698  0.00  0.00    +0.000 C 
ATOM      6  OXT GLY A   1     -11.830   6.768 127.294  0.00  0.00    +0.000 OA
BRANCH   5   7
ATOM      7  O   GLY A   1     -10.856   8.789 127.607  0.00  0.00    +0.000 OA
ATOM      8  H   GLY A   1     -10.671   8.956 126.655  0.00  0.00    +0.000 HD
ENDBRANCH   5   7
ENDBRANCH   1   5
TORSDOF 3
ENDMDL
MODEL 8
REMARK VINA RESULT:      -2.7     12.578     12.918
REMARK  Name = Glycine
REMARK  3 active torsions:
REMARK  status: ('A' for Active; 'I' for Inactive)
REMARK    1  A    between atoms: N_1  and  CA_2
REMARK    2  A    between atoms: CA_2  and  C_3
REMARK    3  A    between atoms: C_3  and  O_4
REMARK                            x       y       z     vdW  Elec       q    Type
REMARK                         _______ _______ _______ _____ _____    ______ ____
ROOT
ATOM      1  CA  GLY A   1     -10.687   5.324 130.382  0.00  0.00    +0.000 C 
ENDROOT
BRANCH   1   2
ATOM      2  N   GLY A   1     -11.275   3.961 130.382  0.00  0.00    +0.000 NA
ATOM      3  H1  GLY A   1     -12.257   4.070 130.100  0.00  0.00    +0.000 HD
ATOM      4  H2  GLY A   1     -11.344   3.631 131.348  0.00  0.00    +0.000 HD
ENDBRANCH   1   2
BRANCH   1   5
ATOM      5  C   GLY A   1     -10.957   6.050 131.696  0.00  0.00    +0.000 C 
ATOM      6  OXT GLY A   1     -10.070   6.428 132.454  0.00  0.00    +0.000 OA
BRANCH   5   7
ATOM      7  O   GLY A   1     -12.271   6.258 131.948  0.00  0.00    +0.000 OA
ATOM      8  H   GLY A   1     -12.380   6.444 132.908  0.00  0.00    +0.000 HD
ENDBRANCH   5   7
ENDBRANCH   1   5
TORSDOF 3
ENDMDL
MODEL 9
REMARK VINA RESULT:      -2.7      5.724      6.149
REMARK  Name = Glycine
REMARK  3 active torsions:
REMARK  status: ('A' for Active; 'I' for Inactive)
REMARK    1  A    between atoms: N_1  and  CA_2
REMARK    2  A    between atoms: CA_2  and  C_3
REMARK    3  A    between atoms: C_3  and  O_4
REMARK                            x       y       z     vdW  Elec       q    Type
REMARK                         _______ _______ _______ _____ _____    ______ ____
ROOT
ATOM      1  CA  GLY A   1      -8.204   3.600 125.014  0.00  0.00    +0.000 C 
ENDROOT
BRANCH   1   2
ATOM      2  N   GLY A   1      -8.278   3.575 123.532  0.00  0.00    +0.000 NA
ATOM      3  H1  GLY A   1      -7.370   3.916 123.192  0.00  0.00    +0.000 HD
ATOM      4  H2  GLY A   1      -8.931   4.298 123.222  0.00  0.00    +0.000 HD
ENDBRANCH   1   2
BRANCH   1   5
ATOM      5  C   GLY A   1      -8.082   5.025 125.545  0.00  0.00    +0.000 C 
ATOM      6  OXT GLY A   1      -8.968   5.588 126.180  0.00  0.00    +0.000 OA
BRANCH   5   7
ATOM      7  O   GLY A   1      -6.895   5.614 125.267  0.00  0.00    +0.000 OA
ATOM      8  H   GLY A   1      -7.026   6.246 124.524  0.00  0.00    +0.000 HD
ENDBRANCH   5   7
ENDBRANCH   1   5
TORSDOF 3
ENDMDL
