MODEL 1
REMARK VINA RESULT:      -3.3      0.000      0.000
REMARK  Name = Glycolic acid
REMARK  3 active torsions:
REMARK  status: ('A' for Active; 'I' for Inactive)
REMARK    1  A    between atoms: O_1  and  C_2
REMARK    2  A    between atoms: C_2  and  C_3
REMARK    3  A    between atoms: C_3  and  O_4
REMARK                            x       y       z     vdW  Elec       q    Type
REMARK                         _______ _______ _______ _____ _____    ______ ____
ROOT
ATOM      1  C   UNL     1      -5.405   5.472 119.669  0.00  0.00    +0.000 C 
ATOM      2  O   UNL     1      -4.674   6.157 120.373  0.00  0.00    +0.000 OA
ENDROOT
BRANCH   1   3
ATOM      3  O   UNL     1      -5.644   5.747 118.364  0.00  0.00    +0.000 OA
ATOM      4  H   UNL     1      -5.460   6.699 118.194  0.00  0.00    +0.000 HD
ENDBRANCH   1   3
BRANCH   1   5
ATOM      5  C   UNL     1      -6.136   4.230 120.163  0.00  0.00    +0.000 C 
BRANCH   5   6
ATOM      6  O   UNL     1      -7.508   4.220 119.776  0.00  0.00    +0.000 OA
ATOM      7  H   UNL     1      -7.761   3.277 119.728  0.00  0.00    +0.000 HD
ENDBRANCH   5   6
ENDBRANCH   1   5
TORSDOF 3
ENDMDL
MODEL 2
REMARK VINA RESULT:      -3.2      0.915      2.418
REMARK  Name = Glycolic acid
REMARK  3 active torsions:
REMARK  status: ('A' for Active; 'I' for Inactive)
REMARK    1  A    between atoms: O_1  and  C_2
REMARK    2  A    between atoms: C_2  and  C_3
REMARK    3  A    between atoms: C_3  and  O_4
REMARK                            x       y       z     vdW  Elec       q    Type
REMARK                         _______ _______ _______ _____ _____    ______ ____
ROOT
ATOM      1  C   UNL     1      -5.778   4.904 119.766  0.00  0.00    +0.000 C 
ATOM      2  O   UNL     1      -6.722   4.126 119.714  0.00  0.00    +0.000 OA
ENDROOT
BRANCH   1   3
ATOM      3  O   UNL     1      -5.484   5.777 118.773  0.00  0.00    +0.000 OA
ATOM      4  H   UNL     1      -6.093   5.624 118.015  0.00  0.00    +0.000 HD
ENDBRANCH   1   3
BRANCH   1   5
ATOM      5  C   UNL     1      -4.818   4.992 120.945  0.00  0.00    +0.000 C 
BRANCH   5   6
ATOM      6  O   UNL     1      -4.161   6.256 121.016  0.00  0.00    +0.000 OA
ATOM      7  H   UNL     1      -4.871   6.925 120.949  0.00  0.00    +0.000 HD
ENDBRANCH   5   6
ENDBRANCH   1   5
TORSDOF 3
ENDMDL
MODEL 3
REMARK VINA RESULT:      -3.1      9.063      9.631
REMARK  Name = Glycolic acid
REMARK  3 active torsions:
REMARK  status: ('A' for Active; 'I' for Inactive)
REMARK    1  A    between atoms: O_1  and  C_2
REMARK    2  A    between atoms: C_2  and  C_3
REMARK    3  A    between atoms: C_3  and  O_4
REMARK                            x       y       z     vdW  Elec       q    Type
REMARK                         _______ _______ _______ _____ _____    ______ ____
ROOT
ATOM      1  C   UNL     1     -11.157   7.602 126.407  0.00  0.00    +0.000 C 
ATOM      2  O   UNL     1     -10.784   8.061 125.335  0.00  0.00    +0.000 OA
ENDROOT
BRANCH   1   3
ATOM      3  O   UNL     1     -11.993   6.541 126.505  0.00  0.00    +0.000 OA
ATOM      4  H   UNL     1     -12.335   6.313 125.611  0.00  0.00    +0.000 HD
ENDBRANCH   1   3
BRANCH   1   5
ATOM      5  C   UNL     1     -10.732   8.159 127.760  0.00  0.00    +0.000 C 
BRANCH   5   6
ATOM      6  O   UNL     1     -11.699   9.055 128.304  0.00  0.00    +0.000 OA
ATOM      7  H   UNL     1     -12.564   8.617 128.177  0.00  0.00    +0.000 HD
ENDBRANCH   5   6
ENDBRANCH   1   5
TORSDOF 3
ENDMDL
MODEL 4
REMARK VINA RESULT:      -3.1      9.417      9.838
REMARK  Name = Glycolic acid
REMARK  3 active torsions:
REMARK  status: ('A' for Active; 'I' for Inactive)
REMARK    1  A    between atoms: O_1  and  C_2
REMARK    2  A    between atoms: C_2  and  C_3
REMARK    3  A    between atoms: C_3  and  O_4
REMARK                            x       y       z     vdW  Elec       q    Type
REMARK                         _______ _______ _______ _____ _____    ______ ____
ROOT
ATOM      1  C   UNL     1     -10.796   8.240 127.925  0.00  0.00    +0.000 C 
ATOM      2  O   UNL     1      -9.862   7.889 128.635  0.00  0.00    +0.000 OA
ENDROOT
BRANCH   1   3
ATOM      3  O   UNL     1     -11.758   9.099 128.340  0.00  0.00    +0.000 OA
ATOM      4  H   UNL     1     -12.606   8.610 128.446  0.00  0.00    +0.000 HD
ENDBRANCH   1   3
BRANCH   1   5
ATOM      5  C   UNL     1     -10.998   7.760 126.493  0.00  0.00    +0.000 C 
BRANCH   5   6
ATOM      6  O   UNL     1     -10.528   6.428 126.297  0.00  0.00    +0.000 OA
ATOM      7  H   UNL     1     -10.052   6.441 125.443  0.00  0.00    +0.000 HD
ENDBRANCH   5   6
ENDBRANCH   1   5
TORSDOF 3
ENDMDL
MODEL 5
REMARK VINA RESULT:      -2.8     10.039     10.527
REMARK  Name = Glycolic acid
REMARK  3 active torsions:
REMARK  status: ('A' for Active; 'I' for Inactive)
REMARK    1  A    between atoms: O_1  and  C_2
REMARK    2  A    between atoms: C_2  and  C_3
REMARK    3  A    between atoms: C_3  and  O_4
REMARK                            x       y       z     vdW  Elec       q    Type
REMARK                         _______ _______ _______ _____ _____    ______ ____
ROOT
ATOM      1  C   UNL     1     -12.100   8.421 127.951  0.00  0.00    +0.000 C 
ATOM      2  O   UNL     1     -12.846   9.117 128.629  0.00  0.00    +0.000 OA
ENDROOT
BRANCH   1   3
ATOM      3  O   UNL     1     -10.785   8.696 127.781  0.00  0.00    +0.000 OA
ATOM      4  H   UNL     1     -10.282   7.852 127.719  0.00  0.00    +0.000 HD
ENDBRANCH   1   3
BRANCH   1   5
ATOM      5  C   UNL     1     -12.550   7.165 127.216  0.00  0.00    +0.000 C 
BRANCH   5   6
ATOM      6  O   UNL     1     -11.593   6.729 126.253  0.00  0.00    +0.000 OA
ATOM      7  H   UNL     1     -11.992   6.919 125.381  0.00  0.00    +0.000 HD
ENDBRANCH   5   6
ENDBRANCH   1   5
TORSDOF 3
ENDMDL
MODEL 6
REMARK VINA RESULT:      -2.8     12.257     12.751
REMARK  Name = Glycolic acid
REMARK  3 active torsions:
REMARK  status: ('A' for Active; 'I' for Inactive)
REMARK    1  A    between atoms: O_1  and  C_2
REMARK    2  A    between atoms: C_2  and  C_3
REMARK    3  A    between atoms: C_3  and  O_4
REMARK                            x       y       z     vdW  Elec       q    Type
REMARK                         _______ _______ _______ _____ _____    ______ ____
ROOT
ATOM      1  C   UNL     1     -12.978   9.286 128.720  0.00  0.00    +0.000 C 
ATOM      2  O   UNL     1     -13.801   8.576 128.156  0.00  0.00    +0.000 OA
ENDROOT
BRANCH   1   3
ATOM      3  O   UNL     1     -11.648   9.210 128.480  0.00  0.00    +0.000 OA
ATOM      4  H   UNL     1     -11.249   8.533 129.073  0.00  0.00    +0.000 HD
ENDBRANCH   1   3
BRANCH   1   5
ATOM      5  C   UNL     1     -13.341  10.341 129.758  0.00  0.00    +0.000 C 
BRANCH   5   6
ATOM      6  O   UNL     1     -13.203  11.667 129.253  0.00  0.00    +0.000 OA
ATOM      7  H   UNL     1     -12.458  11.631 128.621  0.00  0.00    +0.000 HD
ENDBRANCH   5   6
ENDBRANCH   1   5
TORSDOF 3
ENDMDL
MODEL 7
REMARK VINA RESULT:      -2.8     10.589     10.914
REMARK  Name = Glycolic acid
REMARK  3 active torsions:
REMARK  status: ('A' for Active; 'I' for Inactive)
REMARK    1  A    between atoms: O_1  and  C_2
REMARK    2  A    between atoms: C_2  and  C_3
REMARK    3  A    between atoms: C_3  and  O_4
REMARK                            x       y       z     vdW  Elec       q    Type
REMARK                         _______ _______ _______ _____ _____    ______ ____
ROOT
ATOM      1  C   UNL     1     -10.773   8.357 128.344  0.00  0.00    +0.000 C 
ATOM      2  O   UNL     1      -9.710   8.173 128.922  0.00  0.00    +0.000 OA
ENDROOT
BRANCH   1   3
ATOM      3  O   UNL     1     -10.884   8.402 126.995  0.00  0.00    +0.000 OA
ATOM      4  H   UNL     1     -11.412   7.631 126.686  0.00  0.00    +0.000 HD
ENDBRANCH   1   3
BRANCH   1   5
ATOM      5  C   UNL     1     -12.102   8.558 129.061  0.00  0.00    +0.000 C 
BRANCH   5   6
ATOM      6  O   UNL     1     -12.722   9.795 128.715  0.00  0.00    +0.000 OA
ATOM      7  H   UNL     1     -12.107  10.491 129.020  0.00  0.00    +0.000 HD
ENDBRANCH   5   6
ENDBRANCH   1   5
TORSDOF 3
ENDMDL
MODEL 8
REMARK VINA RESULT:      -2.7     18.094     18.558
REMARK  Name = Glycolic acid
REMARK  3 active torsions:
REMARK  status: ('A' for Active; 'I' for Inactive)
REMARK    1  A    between atoms: O_1  and  C_2
REMARK    2  A    between atoms: C_2  and  C_3
REMARK    3  A    between atoms: C_3  and  O_4
REMARK                            x       y       z     vdW  Elec       q    Type
REMARK                         _______ _______ _______ _____ _____    ______ ____
ROOT
ATOM      1  C   UNL     1      -9.855   8.790 137.599  0.00  0.00    +0.000 C 
ATOM      2  O   UNL     1     -10.377   9.580 138.375  0.00  0.00    +0.000 OA
ENDROOT
BRANCH   1   3
ATOM      3  O   UNL     1     -10.224   8.675 136.301  0.00  0.00    +0.000 OA
ATOM      4  H   UNL     1     -11.003   9.253 136.132  0.00  0.00    +0.000 HD
ENDBRANCH   1   3
BRANCH   1   5
ATOM      5  C   UNL     1      -8.728   7.841 137.989  0.00  0.00    +0.000 C 
BRANCH   5   6
ATOM      6  O   UNL     1      -8.767   6.623 137.248  0.00  0.00    +0.000 OA
ATOM      7  H   UNL     1      -8.256   6.796 136.432  0.00  0.00    +0.000 HD
ENDBRANCH   5   6
ENDBRANCH   1   5
TORSDOF 3
ENDMDL
MODEL 9
REMARK VINA RESULT:      -2.7     12.527     12.946
REMARK  Name = Glycolic acid
REMARK  3 active torsions:
REMARK  status: ('A' for Active; 'I' for Inactive)
REMARK    1  A    between atoms: O_1  and  C_2
REMARK    2  A    between atoms: C_2  and  C_3
REMARK    3  A    between atoms: C_3  and  O_4
REMARK                            x       y       z     vdW  Elec       q    Type
REMARK                         _______ _______ _______ _____ _____    ______ ____
ROOT
ATOM      1  C   UNL     1     -12.694   8.936 129.703  0.00  0.00    +0.000 C 
ATOM      2  O   UNL     1     -13.123   9.858 130.384  0.00  0.00    +0.000 OA
ENDROOT
BRANCH   1   3
ATOM      3  O   UNL     1     -11.984   9.125 128.565  0.00  0.00    +0.000 OA
ATOM      4  H   UNL     1     -11.310   8.413 128.481  0.00  0.00    +0.000 HD
ENDBRANCH   1   3
BRANCH   1   5
ATOM      5  C   UNL     1     -12.899   7.465 130.044  0.00  0.00    +0.000 C 
BRANCH   5   6
ATOM      6  O   UNL     1     -13.208   7.267 131.422  0.00  0.00    +0.000 OA
ATOM      7  H   UNL     1     -13.341   8.162 131.792  0.00  0.00    +0.000 HD
ENDBRANCH   5   6
ENDBRANCH   1   5
TORSDOF 3
ENDMDL
