MODEL 1
REMARK VINA RESULT:      -6.5      0.000      0.000
REMARK  Name = Glymidine
REMARK  7 active torsions:
REMARK  status: ('A' for Active; 'I' for Inactive)
REMARK    1  A    between atoms: C_1  and  O_2
REMARK    2  A    between atoms: O_2  and  C_3
REMARK    3  A    between atoms: C_3  and  C_4
REMARK    4  A    between atoms: C_4  and  O_5
REMARK    5  A    between atoms: O_5  and  C_6
REMARK    6  A    between atoms: N_10  and  S_11
REMARK    7  A    between atoms: S_11  and  C_14
REMARK                            x       y       z     vdW  Elec       q    Type
REMARK                         _______ _______ _______ _____ _____    ______ ____
ROOT
ATOM      1  C   UNL     1      -5.942   3.709 122.911  0.00  0.00    +0.000 A 
ATOM      2  C   UNL     1      -5.789   3.815 124.278  0.00  0.00    +0.000 A 
ATOM      3  N   UNL     1      -6.257   2.900 125.174  0.00  0.00    +0.000 NA
ATOM      4  C   UNL     1      -6.910   1.850 124.651  0.00  0.00    +0.000 A 
ATOM      5  N   UNL     1      -7.394   0.933 125.592  0.00  0.00    +0.000 N 
ATOM      6  N   UNL     1      -7.147   1.663 123.355  0.00  0.00    +0.000 NA
ATOM      7  C   UNL     1      -6.663   2.605 122.514  0.00  0.00    +0.000 A 
ATOM      8  H   UNL     1      -7.141   1.118 126.548  0.00  0.00    +0.000 HD
ENDROOT
BRANCH   5   9
ATOM      9  S   UNL     1      -8.177  -0.434 125.064  0.00  0.00    +0.000 S 
ATOM     10  O   UNL     1      -9.547  -0.083 124.743  0.00  0.00    +0.000 OA
ATOM     11  O   UNL     1      -7.320  -1.120 124.122  0.00  0.00    +0.000 OA
BRANCH   9  12
ATOM     12  C   UNL     1      -8.303  -1.566 126.457  0.00  0.00    +0.000 A 
ATOM     13  C   UNL     1      -7.728  -1.311 127.701  0.00  0.00    +0.000 A 
ATOM     14  C   UNL     1      -7.731  -2.311 128.683  0.00  0.00    +0.000 A 
ATOM     15  C   UNL     1      -8.383  -3.525 128.462  0.00  0.00    +0.000 A 
ATOM     16  C   UNL     1      -9.002  -3.766 127.237  0.00  0.00    +0.000 A 
ATOM     17  C   UNL     1      -8.953  -2.794 126.231  0.00  0.00    +0.000 A 
ENDBRANCH   9  12
ENDBRANCH   5   9
BRANCH   1  18
ATOM     18  O   UNL     1      -5.549   4.606 121.966  0.00  0.00    +0.000 OA
BRANCH  18  19
ATOM     19  C   UNL     1      -5.652   4.165 120.606  0.00  0.00    +0.000 C 
BRANCH  19  20
ATOM     20  C   UNL     1      -5.349   5.349 119.680  0.00  0.00    +0.000 C 
BRANCH  20  22
ATOM     21  C   UNL     1      -7.356   4.464 118.831  0.00  0.00    +0.000 C 
ATOM     22  O   UNL     1      -6.403   5.519 118.732  0.00  0.00    +0.000 OA
ENDBRANCH  20  22
ENDBRANCH  19  20
ENDBRANCH  18  19
ENDBRANCH   1  18
TORSDOF 6
ENDMDL
MODEL 2
REMARK VINA RESULT:      -6.5      1.982      2.448
REMARK  Name = Glymidine
REMARK  7 active torsions:
REMARK  status: ('A' for Active; 'I' for Inactive)
REMARK    1  A    between atoms: C_1  and  O_2
REMARK    2  A    between atoms: O_2  and  C_3
REMARK    3  A    between atoms: C_3  and  C_4
REMARK    4  A    between atoms: C_4  and  O_5
REMARK    5  A    between atoms: O_5  and  C_6
REMARK    6  A    between atoms: N_10  and  S_11
REMARK    7  A    between atoms: S_11  and  C_14
REMARK                            x       y       z     vdW  Elec       q    Type
REMARK                         _______ _______ _______ _____ _____    ______ ____
ROOT
ATOM      1  C   UNL     1      -5.997   3.872 122.772  0.00  0.00    +0.000 A 
ATOM      2  C   UNL     1      -6.194   4.061 124.123  0.00  0.00    +0.000 A 
ATOM      3  N   UNL     1      -6.889   3.203 124.924  0.00  0.00    +0.000 NA
ATOM      4  C   UNL     1      -7.406   2.123 124.314  0.00  0.00    +0.000 A 
ATOM      5  N   UNL     1      -8.128   1.266 125.153  0.00  0.00    +0.000 N 
ATOM      6  N   UNL     1      -7.310   1.858 123.014  0.00  0.00    +0.000 NA
ATOM      7  C   UNL     1      -6.612   2.746 122.269  0.00  0.00    +0.000 A 
ATOM      8  H   UNL     1      -8.123   1.509 126.129  0.00  0.00    +0.000 HD
ENDROOT
BRANCH   5   9
ATOM      9  S   UNL     1      -8.774  -0.129 124.525  0.00  0.00    +0.000 S 
ATOM     10  O   UNL     1      -9.587  -0.760 125.547  0.00  0.00    +0.000 OA
ATOM     11  O   UNL     1      -9.288   0.156 123.203  0.00  0.00    +0.000 OA
BRANCH   9  12
ATOM     12  C   UNL     1      -7.420  -1.279 124.237  0.00  0.00    +0.000 A 
ATOM     13  C   UNL     1      -6.682  -1.861 125.266  0.00  0.00    +0.000 A 
ATOM     14  C   UNL     1      -5.542  -2.617 124.959  0.00  0.00    +0.000 A 
ATOM     15  C   UNL     1      -5.190  -2.868 123.632  0.00  0.00    +0.000 A 
ATOM     16  C   UNL     1      -5.952  -2.328 122.599  0.00  0.00    +0.000 A 
ATOM     17  C   UNL     1      -7.059  -1.525 122.898  0.00  0.00    +0.000 A 
ENDBRANCH   9  12
ENDBRANCH   5   9
BRANCH   1  18
ATOM     18  O   UNL     1      -5.363   4.708 121.906  0.00  0.00    +0.000 OA
BRANCH  18  19
ATOM     19  C   UNL     1      -5.334   4.286 120.536  0.00  0.00    +0.000 C 
BRANCH  19  20
ATOM     20  C   UNL     1      -5.305   5.528 119.638  0.00  0.00    +0.000 C 
BRANCH  20  22
ATOM     21  C   UNL     1      -7.286   4.456 118.959  0.00  0.00    +0.000 C 
ATOM     22  O   UNL     1      -6.296   5.422 118.615  0.00  0.00    +0.000 OA
ENDBRANCH  20  22
ENDBRANCH  19  20
ENDBRANCH  18  19
ENDBRANCH   1  18
TORSDOF 6
ENDMDL
MODEL 3
REMARK VINA RESULT:      -6.5      9.457     10.607
REMARK  Name = Glymidine
REMARK  7 active torsions:
REMARK  status: ('A' for Active; 'I' for Inactive)
REMARK    1  A    between atoms: C_1  and  O_2
REMARK    2  A    between atoms: O_2  and  C_3
REMARK    3  A    between atoms: C_3  and  C_4
REMARK    4  A    between atoms: C_4  and  O_5
REMARK    5  A    between atoms: O_5  and  C_6
REMARK    6  A    between atoms: N_10  and  S_11
REMARK    7  A    between atoms: S_11  and  C_14
REMARK                            x       y       z     vdW  Elec       q    Type
REMARK                         _______ _______ _______ _____ _____    ______ ____
ROOT
ATOM      1  C   UNL     1     -11.638   5.812 130.232  0.00  0.00    +0.000 A 
ATOM      2  C   UNL     1     -11.797   6.683 131.290  0.00  0.00    +0.000 A 
ATOM      3  N   UNL     1     -11.015   6.684 132.407  0.00  0.00    +0.000 NA
ATOM      4  C   UNL     1     -10.046   5.754 132.443  0.00  0.00    +0.000 A 
ATOM      5  N   UNL     1      -9.266   5.764 133.606  0.00  0.00    +0.000 N 
ATOM      6  N   UNL     1      -9.824   4.842 131.500  0.00  0.00    +0.000 NA
ATOM      7  C   UNL     1     -10.633   4.888 130.417  0.00  0.00    +0.000 A 
ATOM      8  H   UNL     1      -9.466   6.507 134.255  0.00  0.00    +0.000 HD
ENDROOT
BRANCH   5   9
ATOM      9  S   UNL     1      -8.005   4.693 133.746  0.00  0.00    +0.000 S 
ATOM     10  O   UNL     1      -8.551   3.361 133.923  0.00  0.00    +0.000 OA
ATOM     11  O   UNL     1      -7.031   4.993 132.719  0.00  0.00    +0.000 OA
BRANCH   9  12
ATOM     12  C   UNL     1      -7.150   5.052 135.288  0.00  0.00    +0.000 A 
ATOM     13  C   UNL     1      -6.009   4.369 135.704  0.00  0.00    +0.000 A 
ATOM     14  C   UNL     1      -5.497   4.594 136.989  0.00  0.00    +0.000 A 
ATOM     15  C   UNL     1      -6.062   5.560 137.822  0.00  0.00    +0.000 A 
ATOM     16  C   UNL     1      -7.174   6.280 137.392  0.00  0.00    +0.000 A 
ATOM     17  C   UNL     1      -7.726   6.021 136.132  0.00  0.00    +0.000 A 
ENDBRANCH   9  12
ENDBRANCH   5   9
BRANCH   1  18
ATOM     18  O   UNL     1     -12.410   5.721 129.116  0.00  0.00    +0.000 OA
BRANCH  18  19
ATOM     19  C   UNL     1     -13.172   6.890 128.785  0.00  0.00    +0.000 C 
BRANCH  19  20
ATOM     20  C   UNL     1     -13.083   7.125 127.273  0.00  0.00    +0.000 C 
BRANCH  20  22
ATOM     21  C   UNL     1     -10.892   7.741 126.677  0.00  0.00    +0.000 C 
ATOM     22  O   UNL     1     -11.825   6.668 126.774  0.00  0.00    +0.000 OA
ENDBRANCH  20  22
ENDBRANCH  19  20
ENDBRANCH  18  19
ENDBRANCH   1  18
TORSDOF 6
ENDMDL
MODEL 4
REMARK VINA RESULT:      -6.3      1.547      2.048
REMARK  Name = Glymidine
REMARK  7 active torsions:
REMARK  status: ('A' for Active; 'I' for Inactive)
REMARK    1  A    between atoms: C_1  and  O_2
REMARK    2  A    between atoms: O_2  and  C_3
REMARK    3  A    between atoms: C_3  and  C_4
REMARK    4  A    between atoms: C_4  and  O_5
REMARK    5  A    between atoms: O_5  and  C_6
REMARK    6  A    between atoms: N_10  and  S_11
REMARK    7  A    between atoms: S_11  and  C_14
REMARK                            x       y       z     vdW  Elec       q    Type
REMARK                         _______ _______ _______ _____ _____    ______ ____
ROOT
ATOM      1  C   UNL     1      -6.115   3.797 123.580  0.00  0.00    +0.000 A 
ATOM      2  C   UNL     1      -7.144   3.012 123.104  0.00  0.00    +0.000 A 
ATOM      3  N   UNL     1      -7.601   1.888 123.725  0.00  0.00    +0.000 NA
ATOM      4  C   UNL     1      -6.975   1.555 124.866  0.00  0.00    +0.000 A 
ATOM      5  N   UNL     1      -7.452   0.388 125.477  0.00  0.00    +0.000 N 
ATOM      6  N   UNL     1      -5.951   2.215 125.399  0.00  0.00    +0.000 NA
ATOM      7  C   UNL     1      -5.539   3.321 124.737  0.00  0.00    +0.000 A 
ATOM      8  H   UNL     1      -8.253  -0.034 125.039  0.00  0.00    +0.000 HD
ENDROOT
BRANCH   5   9
ATOM      9  S   UNL     1      -6.790  -0.100 126.920  0.00  0.00    +0.000 S 
ATOM     10  O   UNL     1      -5.432  -0.547 126.675  0.00  0.00    +0.000 OA
ATOM     11  O   UNL     1      -7.101   0.891 127.927  0.00  0.00    +0.000 OA
BRANCH   9  12
ATOM     12  C   UNL     1      -7.673  -1.573 127.457  0.00  0.00    +0.000 A 
ATOM     13  C   UNL     1      -7.672  -2.023 128.777  0.00  0.00    +0.000 A 
ATOM     14  C   UNL     1      -8.246  -3.264 129.085  0.00  0.00    +0.000 A 
ATOM     15  C   UNL     1      -8.898  -4.011 128.103  0.00  0.00    +0.000 A 
ATOM     16  C   UNL     1      -8.944  -3.542 126.792  0.00  0.00    +0.000 A 
ATOM     17  C   UNL     1      -8.323  -2.331 126.465  0.00  0.00    +0.000 A 
ENDBRANCH   9  12
ENDBRANCH   5   9
BRANCH   1  18
ATOM     18  O   UNL     1      -5.575   4.897 122.989  0.00  0.00    +0.000 OA
BRANCH  18  19
ATOM     19  C   UNL     1      -4.554   4.644 122.014  0.00  0.00    +0.000 C 
BRANCH  19  20
ATOM     20  C   UNL     1      -5.187   4.673 120.618  0.00  0.00    +0.000 C 
BRANCH  20  22
ATOM     21  C   UNL     1      -5.771   6.077 118.823  0.00  0.00    +0.000 C 
ATOM     22  O   UNL     1      -5.002   5.956 120.017  0.00  0.00    +0.000 OA
ENDBRANCH  20  22
ENDBRANCH  19  20
ENDBRANCH  18  19
ENDBRANCH   1  18
TORSDOF 6
ENDMDL
MODEL 5
REMARK VINA RESULT:      -6.3      8.600     10.302
REMARK  Name = Glymidine
REMARK  7 active torsions:
REMARK  status: ('A' for Active; 'I' for Inactive)
REMARK    1  A    between atoms: C_1  and  O_2
REMARK    2  A    between atoms: O_2  and  C_3
REMARK    3  A    between atoms: C_3  and  C_4
REMARK    4  A    between atoms: C_4  and  O_5
REMARK    5  A    between atoms: O_5  and  C_6
REMARK    6  A    between atoms: N_10  and  S_11
REMARK    7  A    between atoms: S_11  and  C_14
REMARK                            x       y       z     vdW  Elec       q    Type
REMARK                         _______ _______ _______ _____ _____    ______ ____
ROOT
ATOM      1  C   UNL     1     -10.886   6.050 129.935  0.00  0.00    +0.000 A 
ATOM      2  C   UNL     1     -10.772   6.272 131.291  0.00  0.00    +0.000 A 
ATOM      3  N   UNL     1      -9.587   6.447 131.942  0.00  0.00    +0.000 NA
ATOM      4  C   UNL     1      -8.484   6.380 131.178  0.00  0.00    +0.000 A 
ATOM      5  N   UNL     1      -7.279   6.546 131.871  0.00  0.00    +0.000 N 
ATOM      6  N   UNL     1      -8.472   6.135 129.870  0.00  0.00    +0.000 NA
ATOM      7  C   UNL     1      -9.677   5.967 129.279  0.00  0.00    +0.000 A 
ATOM      8  H   UNL     1      -7.368   6.768 132.849  0.00  0.00    +0.000 HD
ENDROOT
BRANCH   5   9
ATOM      9  S   UNL     1      -5.849   6.533 131.027  0.00  0.00    +0.000 S 
ATOM     10  O   UNL     1      -5.652   5.205 130.478  0.00  0.00    +0.000 OA
ATOM     11  O   UNL     1      -5.790   7.720 130.202  0.00  0.00    +0.000 OA
BRANCH   9  12
ATOM     12  C   UNL     1      -4.511   6.747 132.211  0.00  0.00    +0.000 A 
ATOM     13  C   UNL     1      -4.557   6.248 133.512  0.00  0.00    +0.000 A 
ATOM     14  C   UNL     1      -3.550   6.595 134.423  0.00  0.00    +0.000 A 
ATOM     15  C   UNL     1      -2.455   7.359 134.017  0.00  0.00    +0.000 A 
ATOM     16  C   UNL     1      -2.380   7.820 132.705  0.00  0.00    +0.000 A 
ATOM     17  C   UNL     1      -3.411   7.526 131.804  0.00  0.00    +0.000 A 
ENDBRANCH   9  12
ENDBRANCH   5   9
BRANCH   1  18
ATOM     18  O   UNL     1     -12.026   5.816 129.231  0.00  0.00    +0.000 OA
BRANCH  18  19
ATOM     19  C   UNL     1     -12.966   6.898 129.186  0.00  0.00    +0.000 C 
BRANCH  19  20
ATOM     20  C   UNL     1     -13.091   7.383 127.737  0.00  0.00    +0.000 C 
BRANCH  20  22
ATOM     21  C   UNL     1     -11.195   7.541 126.353  0.00  0.00    +0.000 C 
ATOM     22  O   UNL     1     -12.183   6.669 126.896  0.00  0.00    +0.000 OA
ENDBRANCH  20  22
ENDBRANCH  19  20
ENDBRANCH  18  19
ENDBRANCH   1  18
TORSDOF 6
ENDMDL
MODEL 6
REMARK VINA RESULT:      -6.3      9.633     10.977
REMARK  Name = Glymidine
REMARK  7 active torsions:
REMARK  status: ('A' for Active; 'I' for Inactive)
REMARK    1  A    between atoms: C_1  and  O_2
REMARK    2  A    between atoms: O_2  and  C_3
REMARK    3  A    between atoms: C_3  and  C_4
REMARK    4  A    between atoms: C_4  and  O_5
REMARK    5  A    between atoms: O_5  and  C_6
REMARK    6  A    between atoms: N_10  and  S_11
REMARK    7  A    between atoms: S_11  and  C_14
REMARK                            x       y       z     vdW  Elec       q    Type
REMARK                         _______ _______ _______ _____ _____    ______ ____
ROOT
ATOM      1  C   UNL     1      -5.899   5.888 132.408  0.00  0.00    +0.000 A 
ATOM      2  C   UNL     1      -5.922   6.830 131.401  0.00  0.00    +0.000 A 
ATOM      3  N   UNL     1      -7.052   7.230 130.752  0.00  0.00    +0.000 NA
ATOM      4  C   UNL     1      -8.193   6.637 131.143  0.00  0.00    +0.000 A 
ATOM      5  N   UNL     1      -9.337   7.053 130.451  0.00  0.00    +0.000 N 
ATOM      6  N   UNL     1      -8.284   5.692 132.075  0.00  0.00    +0.000 NA
ATOM      7  C   UNL     1      -7.130   5.334 132.683  0.00  0.00    +0.000 A 
ATOM      8  H   UNL     1      -9.197   7.798 129.790  0.00  0.00    +0.000 HD
ENDROOT
BRANCH   5   9
ATOM      9  S   UNL     1     -10.815   6.427 130.878  0.00  0.00    +0.000 S 
ATOM     10  O   UNL     1     -10.818   5.009 130.575  0.00  0.00    +0.000 OA
ATOM     11  O   UNL     1     -11.168   6.932 132.187  0.00  0.00    +0.000 OA
BRANCH   9  12
ATOM     12  C   UNL     1     -12.049   7.138 129.779  0.00  0.00    +0.000 A 
ATOM     13  C   UNL     1     -12.830   6.374 128.913  0.00  0.00    +0.000 A 
ATOM     14  C   UNL     1     -13.651   7.013 127.974  0.00  0.00    +0.000 A 
ATOM     15  C   UNL     1     -13.766   8.403 127.958  0.00  0.00    +0.000 A 
ATOM     16  C   UNL     1     -13.024   9.170 128.853  0.00  0.00    +0.000 A 
ATOM     17  C   UNL     1     -12.158   8.542 129.756  0.00  0.00    +0.000 A 
ENDBRANCH   9  12
ENDBRANCH   5   9
BRANCH   1  18
ATOM     18  O   UNL     1      -4.807   5.405 133.060  0.00  0.00    +0.000 OA
BRANCH  18  19
ATOM     19  C   UNL     1      -3.571   6.082 132.796  0.00  0.00    +0.000 C 
BRANCH  19  20
ATOM     20  C   UNL     1      -2.637   5.128 132.044  0.00  0.00    +0.000 C 
BRANCH  20  22
ATOM     21  C   UNL     1      -0.813   6.613 132.002  0.00  0.00    +0.000 C 
ATOM     22  O   UNL     1      -1.282   5.342 132.444  0.00  0.00    +0.000 OA
ENDBRANCH  20  22
ENDBRANCH  19  20
ENDBRANCH  18  19
ENDBRANCH   1  18
TORSDOF 6
ENDMDL
MODEL 7
REMARK VINA RESULT:      -6.3      8.916     10.423
REMARK  Name = Glymidine
REMARK  7 active torsions:
REMARK  status: ('A' for Active; 'I' for Inactive)
REMARK    1  A    between atoms: C_1  and  O_2
REMARK    2  A    between atoms: O_2  and  C_3
REMARK    3  A    between atoms: C_3  and  C_4
REMARK    4  A    between atoms: C_4  and  O_5
REMARK    5  A    between atoms: O_5  and  C_6
REMARK    6  A    between atoms: N_10  and  S_11
REMARK    7  A    between atoms: S_11  and  C_14
REMARK                            x       y       z     vdW  Elec       q    Type
REMARK                         _______ _______ _______ _____ _____    ______ ____
ROOT
ATOM      1  C   UNL     1     -10.522   6.314 131.133  0.00  0.00    +0.000 A 
ATOM      2  C   UNL     1      -9.960   6.165 132.383  0.00  0.00    +0.000 A 
ATOM      3  N   UNL     1      -8.619   6.179 132.627  0.00  0.00    +0.000 NA
ATOM      4  C   UNL     1      -7.831   6.341 131.551  0.00  0.00    +0.000 A 
ATOM      5  N   UNL     1      -6.457   6.336 131.824  0.00  0.00    +0.000 N 
ATOM      6  N   UNL     1      -8.260   6.457 130.297  0.00  0.00    +0.000 NA
ATOM      7  C   UNL     1      -9.600   6.433 130.116  0.00  0.00    +0.000 A 
ATOM      8  H   UNL     1      -6.209   6.285 132.798  0.00  0.00    +0.000 HD
ENDROOT
BRANCH   5   9
ATOM      9  S   UNL     1      -5.382   6.577 130.582  0.00  0.00    +0.000 S 
ATOM     10  O   UNL     1      -5.552   5.510 129.614  0.00  0.00    +0.000 OA
ATOM     11  O   UNL     1      -5.425   7.972 130.200  0.00  0.00    +0.000 OA
BRANCH   9  12
ATOM     12  C   UNL     1      -3.724   6.345 131.239  0.00  0.00    +0.000 A 
ATOM     13  C   UNL     1      -3.134   5.092 131.397  0.00  0.00    +0.000 A 
ATOM     14  C   UNL     1      -1.907   4.983 132.065  0.00  0.00    +0.000 A 
ATOM     15  C   UNL     1      -1.225   6.123 132.494  0.00  0.00    +0.000 A 
ATOM     16  C   UNL     1      -1.788   7.382 132.295  0.00  0.00    +0.000 A 
ATOM     17  C   UNL     1      -3.040   7.495 131.680  0.00  0.00    +0.000 A 
ENDBRANCH   9  12
ENDBRANCH   5   9
BRANCH   1  18
ATOM     18  O   UNL     1     -11.843   6.257 130.811  0.00  0.00    +0.000 OA
BRANCH  18  19
ATOM     19  C   UNL     1     -12.386   7.430 130.188  0.00  0.00    +0.000 C 
BRANCH  19  20
ATOM     20  C   UNL     1     -13.202   7.005 128.963  0.00  0.00    +0.000 C 
BRANCH  20  22
ATOM     21  C   UNL     1     -11.719   7.605 127.239  0.00  0.00    +0.000 C 
ATOM     22  O   UNL     1     -12.337   6.525 127.933  0.00  0.00    +0.000 OA
ENDBRANCH  20  22
ENDBRANCH  19  20
ENDBRANCH  18  19
ENDBRANCH   1  18
TORSDOF 6
ENDMDL
MODEL 8
REMARK VINA RESULT:      -6.2      8.444     11.471
REMARK  Name = Glymidine
REMARK  7 active torsions:
REMARK  status: ('A' for Active; 'I' for Inactive)
REMARK    1  A    between atoms: C_1  and  O_2
REMARK    2  A    between atoms: O_2  and  C_3
REMARK    3  A    between atoms: C_3  and  C_4
REMARK    4  A    between atoms: C_4  and  O_5
REMARK    5  A    between atoms: O_5  and  C_6
REMARK    6  A    between atoms: N_10  and  S_11
REMARK    7  A    between atoms: S_11  and  C_14
REMARK                            x       y       z     vdW  Elec       q    Type
REMARK                         _______ _______ _______ _____ _____    ______ ____
ROOT
ATOM      1  C   UNL     1      -7.930   1.698 132.934  0.00  0.00    +0.000 A 
ATOM      2  C   UNL     1      -8.885   1.430 131.976  0.00  0.00    +0.000 A 
ATOM      3  N   UNL     1      -9.625   2.385 131.344  0.00  0.00    +0.000 NA
ATOM      4  C   UNL     1      -9.382   3.653 131.713  0.00  0.00    +0.000 A 
ATOM      5  N   UNL     1     -10.165   4.614 131.061  0.00  0.00    +0.000 N 
ATOM      6  N   UNL     1      -8.513   4.025 132.649  0.00  0.00    +0.000 NA
ATOM      7  C   UNL     1      -7.810   3.035 133.244  0.00  0.00    +0.000 A 
ATOM      8  H   UNL     1     -10.770   4.262 130.339  0.00  0.00    +0.000 HD
ENDROOT
BRANCH   5   9
ATOM      9  S   UNL     1      -9.923   6.222 131.398  0.00  0.00    +0.000 S 
ATOM     10  O   UNL     1     -10.571   6.530 132.658  0.00  0.00    +0.000 OA
ATOM     11  O   UNL     1      -8.532   6.538 131.154  0.00  0.00    +0.000 OA
BRANCH   9  12
ATOM     12  C   UNL     1     -10.820   7.181 130.168  0.00  0.00    +0.000 A 
ATOM     13  C   UNL     1     -10.223   7.694 129.018  0.00  0.00    +0.000 A 
ATOM     14  C   UNL     1     -10.947   8.566 128.193  0.00  0.00    +0.000 A 
ATOM     15  C   UNL     1     -12.286   8.853 128.461  0.00  0.00    +0.000 A 
ATOM     16  C   UNL     1     -12.902   8.303 129.583  0.00  0.00    +0.000 A 
ATOM     17  C   UNL     1     -12.169   7.478 130.443  0.00  0.00    +0.000 A 
ENDBRANCH   9  12
ENDBRANCH   5   9
BRANCH   1  18
ATOM     18  O   UNL     1      -7.195   0.797 133.640  0.00  0.00    +0.000 OA
BRANCH  18  19
ATOM     19  C   UNL     1      -6.373  -0.086 132.864  0.00  0.00    +0.000 C 
BRANCH  19  20
ATOM     20  C   UNL     1      -6.595  -1.522 133.351  0.00  0.00    +0.000 C 
BRANCH  20  22
ATOM     21  C   UNL     1      -8.224  -3.018 134.154  0.00  0.00    +0.000 C 
ATOM     22  O   UNL     1      -7.993  -1.802 133.447  0.00  0.00    +0.000 OA
ENDBRANCH  20  22
ENDBRANCH  19  20
ENDBRANCH  18  19
ENDBRANCH   1  18
TORSDOF 6
ENDMDL
MODEL 9
REMARK VINA RESULT:      -6.2      6.363      8.011
REMARK  Name = Glymidine
REMARK  7 active torsions:
REMARK  status: ('A' for Active; 'I' for Inactive)
REMARK    1  A    between atoms: C_1  and  O_2
REMARK    2  A    between atoms: O_2  and  C_3
REMARK    3  A    between atoms: C_3  and  C_4
REMARK    4  A    between atoms: C_4  and  O_5
REMARK    5  A    between atoms: O_5  and  C_6
REMARK    6  A    between atoms: N_10  and  S_11
REMARK    7  A    between atoms: S_11  and  C_14
REMARK                            x       y       z     vdW  Elec       q    Type
REMARK                         _______ _______ _______ _____ _____    ______ ____
ROOT
ATOM      1  C   UNL     1      -7.823   2.928 127.194  0.00  0.00    +0.000 A 
ATOM      2  C   UNL     1      -8.398   2.191 128.208  0.00  0.00    +0.000 A 
ATOM      3  N   UNL     1      -8.971   2.734 129.320  0.00  0.00    +0.000 NA
ATOM      4  C   UNL     1      -8.943   4.074 129.397  0.00  0.00    +0.000 A 
ATOM      5  N   UNL     1      -9.523   4.607 130.555  0.00  0.00    +0.000 N 
ATOM      6  N   UNL     1      -8.385   4.882 128.499  0.00  0.00    +0.000 NA
ATOM      7  C   UNL     1      -7.829   4.287 127.419  0.00  0.00    +0.000 A 
ATOM      8  H   UNL     1      -9.961   3.939 131.167  0.00  0.00    +0.000 HD
ENDROOT
BRANCH   5   9
ATOM      9  S   UNL     1      -9.593   6.256 130.742  0.00  0.00    +0.000 S 
ATOM     10  O   UNL     1     -10.093   6.546 132.072  0.00  0.00    +0.000 OA
ATOM     11  O   UNL     1      -8.361   6.828 130.245  0.00  0.00    +0.000 OA
BRANCH   9  12
ATOM     12  C   UNL     1     -10.857   6.882 129.625  0.00  0.00    +0.000 A 
ATOM     13  C   UNL     1     -12.144   6.351 129.556  0.00  0.00    +0.000 A 
ATOM     14  C   UNL     1     -13.019   6.783 128.550  0.00  0.00    +0.000 A 
ATOM     15  C   UNL     1     -12.648   7.804 127.674  0.00  0.00    +0.000 A 
ATOM     16  C   UNL     1     -11.379   8.372 127.770  0.00  0.00    +0.000 A 
ATOM     17  C   UNL     1     -10.480   7.906 128.736  0.00  0.00    +0.000 A 
ENDBRANCH   9  12
ENDBRANCH   5   9
BRANCH   1  18
ATOM     18  O   UNL     1      -7.190   2.454 126.087  0.00  0.00    +0.000 OA
BRANCH  18  19
ATOM     19  C   UNL     1      -7.976   1.618 125.227  0.00  0.00    +0.000 C 
BRANCH  19  20
ATOM     20  C   UNL     1      -9.049   2.477 124.550  0.00  0.00    +0.000 C 
BRANCH  20  22
ATOM     21  C   UNL     1      -8.078   2.949 122.459  0.00  0.00    +0.000 C 
ATOM     22  O   UNL     1      -8.439   3.478 123.733  0.00  0.00    +0.000 OA
ENDBRANCH  20  22
ENDBRANCH  19  20
ENDBRANCH  18  19
ENDBRANCH   1  18
TORSDOF 6
ENDMDL
