MODEL 1
REMARK VINA RESULT:      -8.0      0.000      0.000
REMARK  Name = Granisetron
REMARK  4 active torsions:
REMARK  status: ('A' for Active; 'I' for Inactive)
REMARK    1  A    between atoms: C_1  and  N_2
REMARK    2  A    between atoms: C_4  and  C_5
REMARK    3  A    between atoms: N_7  and  C_8
REMARK    4  A    between atoms: N_16  and  C_17
REMARK                            x       y       z     vdW  Elec       q    Type
REMARK                         _______ _______ _______ _____ _____    ______ ____
ROOT
ATOM      1  C   UNL     1      -9.219   5.689 132.098  0.00  0.00    +0.000 C 
ATOM      2  O   UNL     1      -9.639   6.435 132.984  0.00  0.00    +0.000 OA
ATOM      3  N   UNL     1      -9.597   5.856 130.775  0.00  0.00    +0.000 N 
ATOM      4  H   UNL     1      -9.210   5.206 130.098  0.00  0.00    +0.000 HD
ENDROOT
BRANCH   1   8
ATOM      5  C   UNL     1      -5.299   3.155 133.582  0.00  0.00    +0.000 C 
ATOM      6  N   UNL     1      -6.604   3.432 133.025  0.00  0.00    +0.000 N 
ATOM      7  N   UNL     1      -7.043   4.711 132.881  0.00  0.00    +0.000 NA
ATOM      8  C   UNL     1      -8.303   4.566 132.408  0.00  0.00    +0.000 A 
ATOM      9  C   UNL     1      -8.634   3.181 132.245  0.00  0.00    +0.000 A 
ATOM     10  C   UNL     1      -7.506   2.473 132.637  0.00  0.00    +0.000 A 
ATOM     11  C   UNL     1      -7.442   1.069 132.601  0.00  0.00    +0.000 A 
ATOM     12  C   UNL     1      -8.574   0.379 132.154  0.00  0.00    +0.000 A 
ATOM     13  C   UNL     1      -9.723   1.063 131.769  0.00  0.00    +0.000 A 
ATOM     14  C   UNL     1      -9.767   2.461 131.808  0.00  0.00    +0.000 A 
ENDBRANCH   1   8
BRANCH   3  15
ATOM     15  C   UNL     1     -10.531   6.920 130.377  0.00  0.00    +0.000 C 
ATOM     16  C   UNL     1     -11.971   6.387 130.235  0.00  0.00    +0.000 C 
ATOM     17  C   UNL     1     -12.953   7.432 129.657  0.00  0.00    +0.000 C 
ATOM     18  C   UNL     1     -13.556   6.944 128.322  0.00  0.00    +0.000 C 
ATOM     19  C   UNL     1     -12.512   6.888 127.208  0.00  0.00    +0.000 C 
ATOM     20  C   UNL     1     -11.697   8.179 127.146  0.00  0.00    +0.000 C 
ATOM     21  C   UNL     1     -11.175   8.607 128.535  0.00  0.00    +0.000 C 
ATOM     22  C   UNL     1     -10.104   7.616 129.072  0.00  0.00    +0.000 C 
ATOM     23  N   UNL     1     -12.264   8.724 129.515  0.00  0.00    +0.000 NA
ATOM     24  C   UNL     1     -13.174   9.838 129.264  0.00  0.00    +0.000 C 
ENDBRANCH   3  15
TORSDOF 2
ENDMDL
MODEL 2
REMARK VINA RESULT:      -7.8      1.255      2.388
REMARK  Name = Granisetron
REMARK  4 active torsions:
REMARK  status: ('A' for Active; 'I' for Inactive)
REMARK    1  A    between atoms: C_1  and  N_2
REMARK    2  A    between atoms: C_4  and  C_5
REMARK    3  A    between atoms: N_7  and  C_8
REMARK    4  A    between atoms: N_16  and  C_17
REMARK                            x       y       z     vdW  Elec       q    Type
REMARK                         _______ _______ _______ _____ _____    ______ ____
ROOT
ATOM      1  C   UNL     1      -9.720   5.566 132.200  0.00  0.00    +0.000 C 
ATOM      2  O   UNL     1     -10.050   6.436 133.008  0.00  0.00    +0.000 OA
ATOM      3  N   UNL     1     -10.091   5.642 130.867  0.00  0.00    +0.000 N 
ATOM      4  H   UNL     1      -9.781   4.892 130.257  0.00  0.00    +0.000 HD
ENDROOT
BRANCH   1   8
ATOM      5  C   UNL     1      -7.951   1.008 132.489  0.00  0.00    +0.000 C 
ATOM      6  N   UNL     1      -8.147   2.409 132.789  0.00  0.00    +0.000 N 
ATOM      7  N   UNL     1      -9.088   3.138 132.130  0.00  0.00    +0.000 NA
ATOM      8  C   UNL     1      -8.926   4.388 132.621  0.00  0.00    +0.000 A 
ATOM      9  C   UNL     1      -7.882   4.423 133.604  0.00  0.00    +0.000 A 
ATOM     10  C   UNL     1      -7.410   3.121 133.702  0.00  0.00    +0.000 A 
ATOM     11  C   UNL     1      -6.382   2.753 134.586  0.00  0.00    +0.000 A 
ATOM     12  C   UNL     1      -5.823   3.756 135.386  0.00  0.00    +0.000 A 
ATOM     13  C   UNL     1      -6.268   5.071 135.298  0.00  0.00    +0.000 A 
ATOM     14  C   UNL     1      -7.295   5.418 134.414  0.00  0.00    +0.000 A 
ENDBRANCH   1   8
BRANCH   3  15
ATOM     15  C   UNL     1     -10.911   6.756 130.365  0.00  0.00    +0.000 C 
ATOM     16  C   UNL     1     -12.303   6.275 129.910  0.00  0.00    +0.000 C 
ATOM     17  C   UNL     1     -13.135   7.382 129.221  0.00  0.00    +0.000 C 
ATOM     18  C   UNL     1     -13.471   6.994 127.765  0.00  0.00    +0.000 C 
ATOM     19  C   UNL     1     -12.229   6.976 126.875  0.00  0.00    +0.000 C 
ATOM     20  C   UNL     1     -11.397   8.244 127.059  0.00  0.00    +0.000 C 
ATOM     21  C   UNL     1     -11.150   8.570 128.548  0.00  0.00    +0.000 C 
ATOM     22  C   UNL     1     -10.223   7.517 129.217  0.00  0.00    +0.000 C 
ATOM     23  N   UNL     1     -12.409   8.659 129.302  0.00  0.00    +0.000 NA
ATOM     24  C   UNL     1     -13.233   9.812 128.952  0.00  0.00    +0.000 C 
ENDBRANCH   3  15
TORSDOF 2
ENDMDL
MODEL 3
REMARK VINA RESULT:      -7.7      2.781      4.315
REMARK  Name = Granisetron
REMARK  4 active torsions:
REMARK  status: ('A' for Active; 'I' for Inactive)
REMARK    1  A    between atoms: C_1  and  N_2
REMARK    2  A    between atoms: C_4  and  C_5
REMARK    3  A    between atoms: N_7  and  C_8
REMARK    4  A    between atoms: N_16  and  C_17
REMARK                            x       y       z     vdW  Elec       q    Type
REMARK                         _______ _______ _______ _____ _____    ______ ____
ROOT
ATOM      1  C   UNL     1      -7.608   5.837 130.574  0.00  0.00    +0.000 C 
ATOM      2  O   UNL     1      -7.324   5.340 129.483  0.00  0.00    +0.000 OA
ATOM      3  N   UNL     1      -8.834   6.447 130.793  0.00  0.00    +0.000 N 
ATOM      4  H   UNL     1      -9.001   6.832 131.717  0.00  0.00    +0.000 HD
ENDROOT
BRANCH   1   8
ATOM      5  C   UNL     1      -5.487   4.825 134.871  0.00  0.00    +0.000 C 
ATOM      6  N   UNL     1      -5.702   5.421 133.571  0.00  0.00    +0.000 N 
ATOM      7  N   UNL     1      -6.835   5.161 132.865  0.00  0.00    +0.000 NA
ATOM      8  C   UNL     1      -6.645   5.822 131.700  0.00  0.00    +0.000 A 
ATOM      9  C   UNL     1      -5.386   6.509 131.699  0.00  0.00    +0.000 A 
ATOM     10  C   UNL     1      -4.808   6.243 132.933  0.00  0.00    +0.000 A 
ATOM     11  C   UNL     1      -3.559   6.764 133.313  0.00  0.00    +0.000 A 
ATOM     12  C   UNL     1      -2.888   7.577 132.392  0.00  0.00    +0.000 A 
ATOM     13  C   UNL     1      -3.438   7.849 131.144  0.00  0.00    +0.000 A 
ATOM     14  C   UNL     1      -4.684   7.324 130.784  0.00  0.00    +0.000 A 
ENDBRANCH   1   8
BRANCH   3  15
ATOM     15  C   UNL     1      -9.839   6.542 129.723  0.00  0.00    +0.000 C 
ATOM     16  C   UNL     1      -9.962   7.981 129.185  0.00  0.00    +0.000 C 
ATOM     17  C   UNL     1     -11.123   8.160 128.180  0.00  0.00    +0.000 C 
ATOM     18  C   UNL     1     -12.153   9.184 128.703  0.00  0.00    +0.000 C 
ATOM     19  C   UNL     1     -12.910   8.662 129.923  0.00  0.00    +0.000 C 
ATOM     20  C   UNL     1     -13.430   7.244 129.689  0.00  0.00    +0.000 C 
ATOM     21  C   UNL     1     -12.338   6.309 129.126  0.00  0.00    +0.000 C 
ATOM     22  C   UNL     1     -11.222   6.038 130.175  0.00  0.00    +0.000 C 
ATOM     23  N   UNL     1     -11.733   6.851 127.901  0.00  0.00    +0.000 NA
ATOM     24  C   UNL     1     -12.630   6.867 126.750  0.00  0.00    +0.000 C 
ENDBRANCH   3  15
TORSDOF 2
ENDMDL
MODEL 4
REMARK VINA RESULT:      -7.5      2.686      3.510
REMARK  Name = Granisetron
REMARK  4 active torsions:
REMARK  status: ('A' for Active; 'I' for Inactive)
REMARK    1  A    between atoms: C_1  and  N_2
REMARK    2  A    between atoms: C_4  and  C_5
REMARK    3  A    between atoms: N_7  and  C_8
REMARK    4  A    between atoms: N_16  and  C_17
REMARK                            x       y       z     vdW  Elec       q    Type
REMARK                         _______ _______ _______ _____ _____    ______ ____
ROOT
ATOM      1  C   UNL     1      -7.594   5.962 130.616  0.00  0.00    +0.000 C 
ATOM      2  O   UNL     1      -7.416   5.226 129.644  0.00  0.00    +0.000 OA
ATOM      3  N   UNL     1      -8.724   6.759 130.720  0.00  0.00    +0.000 N 
ATOM      4  H   UNL     1      -8.807   7.338 131.549  0.00  0.00    +0.000 HD
ENDROOT
BRANCH   1   8
ATOM      5  C   UNL     1      -3.463   6.838 133.096  0.00  0.00    +0.000 C 
ATOM      6  N   UNL     1      -4.810   6.391 132.818  0.00  0.00    +0.000 N 
ATOM      7  N   UNL     1      -5.328   6.480 131.564  0.00  0.00    +0.000 NA
ATOM      8  C   UNL     1      -6.601   6.043 131.712  0.00  0.00    +0.000 A 
ATOM      9  C   UNL     1      -6.860   5.668 133.071  0.00  0.00    +0.000 A 
ATOM     10  C   UNL     1      -5.674   5.889 133.758  0.00  0.00    +0.000 A 
ATOM     11  C   UNL     1      -5.532   5.619 135.130  0.00  0.00    +0.000 A 
ATOM     12  C   UNL     1      -6.645   5.113 135.811  0.00  0.00    +0.000 A 
ATOM     13  C   UNL     1      -7.849   4.895 135.150  0.00  0.00    +0.000 A 
ATOM     14  C   UNL     1      -7.971   5.167 133.783  0.00  0.00    +0.000 A 
ENDBRANCH   1   8
BRANCH   3  15
ATOM     15  C   UNL     1      -9.748   6.772 129.664  0.00  0.00    +0.000 C 
ATOM     16  C   UNL     1      -9.991   8.197 129.127  0.00  0.00    +0.000 C 
ATOM     17  C   UNL     1     -11.176   8.282 128.137  0.00  0.00    +0.000 C 
ATOM     18  C   UNL     1     -12.278   9.220 128.673  0.00  0.00    +0.000 C 
ATOM     19  C   UNL     1     -12.975   8.641 129.903  0.00  0.00    +0.000 C 
ATOM     20  C   UNL     1     -13.383   7.186 129.675  0.00  0.00    +0.000 C 
ATOM     21  C   UNL     1     -12.227   6.340 129.099  0.00  0.00    +0.000 C 
ATOM     22  C   UNL     1     -11.080   6.160 130.133  0.00  0.00    +0.000 C 
ATOM     23  N   UNL     1     -11.683   6.927 127.866  0.00  0.00    +0.000 NA
ATOM     24  C   UNL     1     -12.594   6.871 126.727  0.00  0.00    +0.000 C 
ENDBRANCH   3  15
TORSDOF 2
ENDMDL
MODEL 5
REMARK VINA RESULT:      -7.4      8.067     11.038
REMARK  Name = Granisetron
REMARK  4 active torsions:
REMARK  status: ('A' for Active; 'I' for Inactive)
REMARK    1  A    between atoms: C_1  and  N_2
REMARK    2  A    between atoms: C_4  and  C_5
REMARK    3  A    between atoms: N_7  and  C_8
REMARK    4  A    between atoms: N_16  and  C_17
REMARK                            x       y       z     vdW  Elec       q    Type
REMARK                         _______ _______ _______ _____ _____    ______ ____
ROOT
ATOM      1  C   UNL     1      -8.378  -2.731 127.132  0.00  0.00    +0.000 C 
ATOM      2  O   UNL     1      -9.034  -3.722 127.458  0.00  0.00    +0.000 OA
ATOM      3  N   UNL     1      -7.675  -1.990 128.069  0.00  0.00    +0.000 N 
ATOM      4  H   UNL     1      -7.154  -1.188 127.728  0.00  0.00    +0.000 HD
ENDROOT
BRANCH   1   8
ATOM      5  C   UNL     1      -9.599  -0.690 122.850  0.00  0.00    +0.000 C 
ATOM      6  N   UNL     1      -8.830  -1.416 123.837  0.00  0.00    +0.000 N 
ATOM      7  N   UNL     1      -9.335  -1.650 125.078  0.00  0.00    +0.000 NA
ATOM      8  C   UNL     1      -8.323  -2.275 125.723  0.00  0.00    +0.000 A 
ATOM      9  C   UNL     1      -7.189  -2.440 124.861  0.00  0.00    +0.000 A 
ATOM     10  C   UNL     1      -7.557  -1.888 123.641  0.00  0.00    +0.000 A 
ATOM     11  C   UNL     1      -6.701  -1.876 122.527  0.00  0.00    +0.000 A 
ATOM     12  C   UNL     1      -5.431  -2.443 122.677  0.00  0.00    +0.000 A 
ATOM     13  C   UNL     1      -5.032  -2.991 123.892  0.00  0.00    +0.000 A 
ATOM     14  C   UNL     1      -5.899  -2.997 124.990  0.00  0.00    +0.000 A 
ENDBRANCH   1   8
BRANCH   3  15
ATOM     15  C   UNL     1      -7.700  -2.345 129.496  0.00  0.00    +0.000 C 
ATOM     16  C   UNL     1      -7.698  -1.092 130.393  0.00  0.00    +0.000 C 
ATOM     17  C   UNL     1      -7.554  -1.418 131.898  0.00  0.00    +0.000 C 
ATOM     18  C   UNL     1      -6.272  -0.786 132.480  0.00  0.00    +0.000 C 
ATOM     19  C   UNL     1      -5.008  -1.439 131.924  0.00  0.00    +0.000 C 
ATOM     20  C   UNL     1      -5.096  -2.963 131.990  0.00  0.00    +0.000 C 
ATOM     21  C   UNL     1      -6.430  -3.495 131.424  0.00  0.00    +0.000 C 
ATOM     22  C   UNL     1      -6.531  -3.267 129.890  0.00  0.00    +0.000 C 
ATOM     23  N   UNL     1      -7.588  -2.877 132.086  0.00  0.00    +0.000 NA
ATOM     24  C   UNL     1      -7.760  -3.274 133.480  0.00  0.00    +0.000 C 
ENDBRANCH   3  15
TORSDOF 2
ENDMDL
MODEL 6
REMARK VINA RESULT:      -7.3      2.249      7.735
REMARK  Name = Granisetron
REMARK  4 active torsions:
REMARK  status: ('A' for Active; 'I' for Inactive)
REMARK    1  A    between atoms: C_1  and  N_2
REMARK    2  A    between atoms: C_4  and  C_5
REMARK    3  A    between atoms: N_7  and  C_8
REMARK    4  A    between atoms: N_16  and  C_17
REMARK                            x       y       z     vdW  Elec       q    Type
REMARK                         _______ _______ _______ _____ _____    ______ ____
ROOT
ATOM      1  C   UNL     1      -8.466   4.951 129.442  0.00  0.00    +0.000 C 
ATOM      2  O   UNL     1      -7.308   5.341 129.602  0.00  0.00    +0.000 OA
ATOM      3  N   UNL     1      -8.808   3.618 129.604  0.00  0.00    +0.000 N 
ATOM      4  H   UNL     1      -9.781   3.369 129.460  0.00  0.00    +0.000 HD
ENDROOT
BRANCH   1   8
ATOM      5  C   UNL     1     -11.331   7.902 126.782  0.00  0.00    +0.000 C 
ATOM      6  N   UNL     1     -10.801   7.197 127.928  0.00  0.00    +0.000 N 
ATOM      7  N   UNL     1      -9.684   6.430 127.819  0.00  0.00    +0.000 NA
ATOM      8  C   UNL     1      -9.545   5.888 129.051  0.00  0.00    +0.000 A 
ATOM      9  C   UNL     1     -10.583   6.342 129.931  0.00  0.00    +0.000 A 
ATOM     10  C   UNL     1     -11.369   7.203 129.177  0.00  0.00    +0.000 A 
ATOM     11  C   UNL     1     -12.489   7.866 129.708  0.00  0.00    +0.000 A 
ATOM     12  C   UNL     1     -12.808   7.630 131.050  0.00  0.00    +0.000 A 
ATOM     13  C   UNL     1     -12.044   6.762 131.824  0.00  0.00    +0.000 A 
ATOM     14  C   UNL     1     -10.931   6.113 131.280  0.00  0.00    +0.000 A 
ENDBRANCH   1   8
BRANCH   3  15
ATOM     15  C   UNL     1      -7.796   2.609 129.956  0.00  0.00    +0.000 C 
ATOM     16  C   UNL     1      -8.139   1.230 129.359  0.00  0.00    +0.000 C 
ATOM     17  C   UNL     1      -7.195   0.104 129.841  0.00  0.00    +0.000 C 
ATOM     18  C   UNL     1      -7.978  -0.985 130.603  0.00  0.00    +0.000 C 
ATOM     19  C   UNL     1      -8.519  -0.475 131.938  0.00  0.00    +0.000 C 
ATOM     20  C   UNL     1      -7.437   0.254 132.732  0.00  0.00    +0.000 C 
ATOM     21  C   UNL     1      -6.682   1.292 131.873  0.00  0.00    +0.000 C 
ATOM     22  C   UNL     1      -7.601   2.482 131.478  0.00  0.00    +0.000 C 
ATOM     23  N   UNL     1      -6.118   0.687 130.658  0.00  0.00    +0.000 NA
ATOM     24  C   UNL     1      -5.019  -0.240 130.908  0.00  0.00    +0.000 C 
ENDBRANCH   3  15
TORSDOF 2
ENDMDL
MODEL 7
REMARK VINA RESULT:      -7.3      7.019      9.334
REMARK  Name = Granisetron
REMARK  4 active torsions:
REMARK  status: ('A' for Active; 'I' for Inactive)
REMARK    1  A    between atoms: C_1  and  N_2
REMARK    2  A    between atoms: C_4  and  C_5
REMARK    3  A    between atoms: N_7  and  C_8
REMARK    4  A    between atoms: N_16  and  C_17
REMARK                            x       y       z     vdW  Elec       q    Type
REMARK                         _______ _______ _______ _____ _____    ______ ____
ROOT
ATOM      1  C   UNL     1      -5.166   3.582 125.799  0.00  0.00    +0.000 C 
ATOM      2  O   UNL     1      -4.161   2.880 125.929  0.00  0.00    +0.000 OA
ATOM      3  N   UNL     1      -5.464   4.590 126.702  0.00  0.00    +0.000 N 
ATOM      4  H   UNL     1      -6.306   5.131 126.531  0.00  0.00    +0.000 HD
ENDROOT
BRANCH   1   8
ATOM      5  C   UNL     1      -9.154   2.319 123.252  0.00  0.00    +0.000 C 
ATOM      6  N   UNL     1      -7.824   2.812 123.535  0.00  0.00    +0.000 N 
ATOM      7  N   UNL     1      -7.318   2.768 124.796  0.00  0.00    +0.000 NA
ATOM      8  C   UNL     1      -6.112   3.369 124.679  0.00  0.00    +0.000 A 
ATOM      9  C   UNL     1      -5.869   3.773 123.325  0.00  0.00    +0.000 A 
ATOM     10  C   UNL     1      -6.990   3.382 122.606  0.00  0.00    +0.000 A 
ATOM     11  C   UNL     1      -7.116   3.595 121.222  0.00  0.00    +0.000 A 
ATOM     12  C   UNL     1      -6.059   4.235 120.565  0.00  0.00    +0.000 A 
ATOM     13  C   UNL     1      -4.929   4.650 121.264  0.00  0.00    +0.000 A 
ATOM     14  C   UNL     1      -4.821   4.425 122.641  0.00  0.00    +0.000 A 
ENDBRANCH   1   8
BRANCH   3  15
ATOM     15  C   UNL     1      -4.602   4.851 127.865  0.00  0.00    +0.000 C 
ATOM     16  C   UNL     1      -5.388   4.753 129.188  0.00  0.00    +0.000 C 
ATOM     17  C   UNL     1      -4.563   5.183 130.422  0.00  0.00    +0.000 C 
ATOM     18  C   UNL     1      -5.211   6.396 131.124  0.00  0.00    +0.000 C 
ATOM     19  C   UNL     1      -5.131   7.661 130.271  0.00  0.00    +0.000 C 
ATOM     20  C   UNL     1      -3.719   7.875 129.727  0.00  0.00    +0.000 C 
ATOM     21  C   UNL     1      -3.143   6.595 129.083  0.00  0.00    +0.000 C 
ATOM     22  C   UNL     1      -3.902   6.220 127.779  0.00  0.00    +0.000 C 
ATOM     23  N   UNL     1      -3.176   5.455 130.011  0.00  0.00    +0.000 NA
ATOM     24  C   UNL     1      -2.256   5.576 131.137  0.00  0.00    +0.000 C 
ENDBRANCH   3  15
TORSDOF 2
ENDMDL
MODEL 8
REMARK VINA RESULT:      -7.2      6.337      8.651
REMARK  Name = Granisetron
REMARK  4 active torsions:
REMARK  status: ('A' for Active; 'I' for Inactive)
REMARK    1  A    between atoms: C_1  and  N_2
REMARK    2  A    between atoms: C_4  and  C_5
REMARK    3  A    between atoms: N_7  and  C_8
REMARK    4  A    between atoms: N_16  and  C_17
REMARK                            x       y       z     vdW  Elec       q    Type
REMARK                         _______ _______ _______ _____ _____    ______ ____
ROOT
ATOM      1  C   UNL     1      -7.240   1.520 127.548  0.00  0.00    +0.000 C 
ATOM      2  O   UNL     1      -6.035   1.684 127.348  0.00  0.00    +0.000 OA
ATOM      3  N   UNL     1      -7.957   0.545 126.872  0.00  0.00    +0.000 N 
ATOM      4  H   UNL     1      -8.945   0.464 127.089  0.00  0.00    +0.000 HD
ENDROOT
BRANCH   1   8
ATOM      5  C   UNL     1      -9.514   5.353 129.578  0.00  0.00    +0.000 C 
ATOM      6  N   UNL     1      -8.962   4.025 129.431  0.00  0.00    +0.000 N 
ATOM      7  N   UNL     1      -8.269   3.677 128.313  0.00  0.00    +0.000 NA
ATOM      8  C   UNL     1      -7.982   2.369 128.508  0.00  0.00    +0.000 A 
ATOM      9  C   UNL     1      -8.491   1.914 129.768  0.00  0.00    +0.000 A 
ATOM     10  C   UNL     1      -9.105   3.015 130.350  0.00  0.00    +0.000 A 
ATOM     11  C   UNL     1      -9.714   2.963 131.615  0.00  0.00    +0.000 A 
ATOM     12  C   UNL     1      -9.694   1.740 132.295  0.00  0.00    +0.000 A 
ATOM     13  C   UNL     1      -9.099   0.617 131.729  0.00  0.00    +0.000 A 
ATOM     14  C   UNL     1      -8.494   0.689 130.470  0.00  0.00    +0.000 A 
ENDBRANCH   1   8
BRANCH   3  15
ATOM     15  C   UNL     1      -7.312  -0.322 125.874  0.00  0.00    +0.000 C 
ATOM     16  C   UNL     1      -7.909  -0.111 124.469  0.00  0.00    +0.000 C 
ATOM     17  C   UNL     1      -7.379  -1.118 123.423  0.00  0.00    +0.000 C 
ATOM     18  C   UNL     1      -8.529  -1.971 122.845  0.00  0.00    +0.000 C 
ATOM     19  C   UNL     1      -9.115  -2.922 123.886  0.00  0.00    +0.000 C 
ATOM     20  C   UNL     1      -8.015  -3.687 124.621  0.00  0.00    +0.000 C 
ATOM     21  C   UNL     1      -6.892  -2.754 125.123  0.00  0.00    +0.000 C 
ATOM     22  C   UNL     1      -7.394  -1.812 126.253  0.00  0.00    +0.000 C 
ATOM     23  N   UNL     1      -6.326  -1.946 124.032  0.00  0.00    +0.000 NA
ATOM     24  C   UNL     1      -5.561  -2.715 123.056  0.00  0.00    +0.000 C 
ENDBRANCH   3  15
TORSDOF 2
ENDMDL
MODEL 9
REMARK VINA RESULT:      -7.1      2.866      7.689
REMARK  Name = Granisetron
REMARK  4 active torsions:
REMARK  status: ('A' for Active; 'I' for Inactive)
REMARK    1  A    between atoms: C_1  and  N_2
REMARK    2  A    between atoms: C_4  and  C_5
REMARK    3  A    between atoms: N_7  and  C_8
REMARK    4  A    between atoms: N_16  and  C_17
REMARK                            x       y       z     vdW  Elec       q    Type
REMARK                         _______ _______ _______ _____ _____    ______ ____
ROOT
ATOM      1  C   UNL     1      -8.431   5.319 129.836  0.00  0.00    +0.000 C 
ATOM      2  O   UNL     1      -8.313   4.100 129.691  0.00  0.00    +0.000 OA
ATOM      3  N   UNL     1      -7.502   6.053 130.557  0.00  0.00    +0.000 N 
ATOM      4  H   UNL     1      -7.661   7.053 130.633  0.00  0.00    +0.000 HD
ENDROOT
BRANCH   1   8
ATOM      5  C   UNL     1     -11.438   7.482 126.632  0.00  0.00    +0.000 C 
ATOM      6  N   UNL     1     -10.904   7.023 127.895  0.00  0.00    +0.000 N 
ATOM      7  N   UNL     1      -9.705   6.384 127.953  0.00  0.00    +0.000 NA
ATOM      8  C   UNL     1      -9.581   6.053 129.260  0.00  0.00    +0.000 A 
ATOM      9  C   UNL     1     -10.712   6.509 130.014  0.00  0.00    +0.000 A 
ATOM     10  C   UNL     1     -11.542   7.149 129.103  0.00  0.00    +0.000 A 
ATOM     11  C   UNL     1     -12.757   7.749 129.477  0.00  0.00    +0.000 A 
ATOM     12  C   UNL     1     -13.127   7.681 130.825  0.00  0.00    +0.000 A 
ATOM     13  C   UNL     1     -12.321   7.034 131.756  0.00  0.00    +0.000 A 
ATOM     14  C   UNL     1     -11.113   6.446 131.366  0.00  0.00    +0.000 A 
ENDBRANCH   1   8
BRANCH   3  15
ATOM     15  C   UNL     1      -6.347   5.404 131.196  0.00  0.00    +0.000 C 
ATOM     16  C   UNL     1      -5.970   6.095 132.522  0.00  0.00    +0.000 C 
ATOM     17  C   UNL     1      -4.661   5.552 133.141  0.00  0.00    +0.000 C 
ATOM     18  C   UNL     1      -3.599   6.667 133.252  0.00  0.00    +0.000 C 
ATOM     19  C   UNL     1      -3.099   7.120 131.881  0.00  0.00    +0.000 C 
ATOM     20  C   UNL     1      -2.731   5.925 131.003  0.00  0.00    +0.000 C 
ATOM     21  C   UNL     1      -3.837   4.848 130.991  0.00  0.00    +0.000 C 
ATOM     22  C   UNL     1      -5.119   5.353 130.270  0.00  0.00    +0.000 C 
ATOM     23  N   UNL     1      -4.184   4.408 132.350  0.00  0.00    +0.000 NA
ATOM     24  C   UNL     1      -3.133   3.645 133.016  0.00  0.00    +0.000 C 
ENDBRANCH   3  15
TORSDOF 2
ENDMDL
