MODEL 1
REMARK VINA RESULT:      -7.2      0.000      0.000
REMARK  Name = Grepafloxacin
REMARK  6 active torsions:
REMARK  status: ('A' for Active; 'I' for Inactive)
REMARK    1  A    between atoms: C_1  and  C_2
REMARK    2  A    between atoms: N_4  and  C_8
REMARK    3  A    between atoms: C_11  and  C_12
REMARK    4  A    between atoms: C_16  and  C_24
REMARK    5  A    between atoms: N_18  and  C_19
REMARK    6  A    between atoms: C_24  and  O_25
REMARK                            x       y       z     vdW  Elec       q    Type
REMARK                         _______ _______ _______ _____ _____    ______ ____
ROOT
ATOM      1  C   UNL     1      -6.393  -1.997 129.079  0.00  0.00    +0.000 A 
ATOM      2  C   UNL     1      -6.567  -0.685 129.529  0.00  0.00    +0.000 A 
ATOM      3  F   UNL     1      -5.986  -0.316 130.684  0.00  0.00    +0.000 F 
ATOM      4  C   UNL     1      -7.275   0.271 128.792  0.00  0.00    +0.000 A 
ATOM      5  C   UNL     1      -7.366   1.674 129.319  0.00  0.00    +0.000 C 
ATOM      6  C   UNL     1      -7.876  -0.112 127.571  0.00  0.00    +0.000 A 
ATOM      7  C   UNL     1      -8.647   0.876 126.761  0.00  0.00    +0.000 A 
ATOM      8  O   UNL     1      -8.751   2.036 127.139  0.00  0.00    +0.000 OA
ATOM      9  C   UNL     1      -9.280   0.449 125.489  0.00  0.00    +0.000 A 
ATOM     10  C   UNL     1      -9.103  -0.840 125.164  0.00  0.00    +0.000 A 
ATOM     11  N   UNL     1      -8.414  -1.807 125.878  0.00  0.00    +0.000 N 
ATOM     12  C   UNL     1      -7.757  -1.428 127.090  0.00  0.00    +0.000 A 
ATOM     13  C   UNL     1      -6.988  -2.325 127.849  0.00  0.00    +0.000 A 
ENDROOT
BRANCH   1  17
ATOM     14  C   UNL     1      -6.757  -2.803 132.663  0.00  0.00    +0.000 C 
ATOM     15  C   UNL     1      -6.002  -3.969 132.016  0.00  0.00    +0.000 C 
ATOM     16  C   UNL     1      -6.295  -4.049 130.493  0.00  0.00    +0.000 C 
ATOM     17  N   UNL     1      -5.669  -2.925 129.795  0.00  0.00    +0.000 N 
ATOM     18  C   UNL     1      -4.227  -2.778 130.033  0.00  0.00    +0.000 C 
ATOM     19  C   UNL     1      -3.949  -2.735 131.562  0.00  0.00    +0.000 C 
ATOM     20  N   UNL     1      -4.550  -3.870 132.301  0.00  0.00    +0.000 NA
ATOM     21  H   UNL     1      -4.401  -3.748 133.300  0.00  0.00    +0.000 HD
ENDBRANCH   1  17
BRANCH  11  22
ATOM     22  C   UNL     1      -8.313  -3.191 125.332  0.00  0.00    +0.000 C 
ATOM     23  C   UNL     1      -8.714  -3.615 123.942  0.00  0.00    +0.000 C 
ATOM     24  C   UNL     1      -7.259  -3.518 124.304  0.00  0.00    +0.000 C 
ENDBRANCH  11  22
BRANCH   9  25
ATOM     25  C   UNL     1     -10.041   1.438 124.681  0.00  0.00    +0.000 C 
ATOM     26  O   UNL     1     -11.065   1.172 124.061  0.00  0.00    +0.000 OA
BRANCH  25  27
ATOM     27  O   UNL     1      -9.560   2.698 124.637  0.00  0.00    +0.000 OA
ATOM     28  H   UNL     1      -9.207   3.043 123.806  0.00  0.00    +0.000 HD
ENDBRANCH  25  27
ENDBRANCH   9  25
TORSDOF 4
ENDMDL
MODEL 2
REMARK VINA RESULT:      -6.8      2.265      3.611
REMARK  Name = Grepafloxacin
REMARK  6 active torsions:
REMARK  status: ('A' for Active; 'I' for Inactive)
REMARK    1  A    between atoms: C_1  and  C_2
REMARK    2  A    between atoms: N_4  and  C_8
REMARK    3  A    between atoms: C_11  and  C_12
REMARK    4  A    between atoms: C_16  and  C_24
REMARK    5  A    between atoms: N_18  and  C_19
REMARK    6  A    between atoms: C_24  and  O_25
REMARK                            x       y       z     vdW  Elec       q    Type
REMARK                         _______ _______ _______ _____ _____    ______ ____
ROOT
ATOM      1  C   UNL     1      -6.735  -1.706 129.536  0.00  0.00    +0.000 A 
ATOM      2  C   UNL     1      -7.592  -2.779 129.275  0.00  0.00    +0.000 A 
ATOM      3  F   UNL     1      -7.846  -3.657 130.261  0.00  0.00    +0.000 F 
ATOM      4  C   UNL     1      -8.237  -2.939 128.044  0.00  0.00    +0.000 A 
ATOM      5  C   UNL     1      -9.187  -4.088 127.864  0.00  0.00    +0.000 C 
ATOM      6  C   UNL     1      -7.981  -2.009 127.010  0.00  0.00    +0.000 A 
ATOM      7  C   UNL     1      -8.642  -2.151 125.680  0.00  0.00    +0.000 A 
ATOM      8  O   UNL     1      -9.430  -3.066 125.477  0.00  0.00    +0.000 OA
ATOM      9  C   UNL     1      -8.349  -1.171 124.605  0.00  0.00    +0.000 A 
ATOM     10  C   UNL     1      -7.476  -0.206 124.930  0.00  0.00    +0.000 A 
ATOM     11  N   UNL     1      -6.819  -0.031 126.137  0.00  0.00    +0.000 N 
ATOM     12  C   UNL     1      -7.103  -0.930 127.212  0.00  0.00    +0.000 A 
ATOM     13  C   UNL     1      -6.529  -0.795 128.487  0.00  0.00    +0.000 A 
ENDROOT
BRANCH   1  17
ATOM     14  C   UNL     1      -5.067  -4.307 131.555  0.00  0.00    +0.000 C 
ATOM     15  C   UNL     1      -4.578  -2.953 132.078  0.00  0.00    +0.000 C 
ATOM     16  C   UNL     1      -4.716  -1.851 130.993  0.00  0.00    +0.000 C 
ATOM     17  N   UNL     1      -6.126  -1.538 130.761  0.00  0.00    +0.000 N 
ATOM     18  C   UNL     1      -6.881  -1.167 131.965  0.00  0.00    +0.000 C 
ATOM     19  C   UNL     1      -6.704  -2.264 133.053  0.00  0.00    +0.000 C 
ATOM     20  N   UNL     1      -5.287  -2.593 133.331  0.00  0.00    +0.000 NA
ATOM     21  H   UNL     1      -5.235  -3.366 133.991  0.00  0.00    +0.000 HD
ENDBRANCH   1  17
BRANCH  11  22
ATOM     22  C   UNL     1      -5.895   1.128 126.309  0.00  0.00    +0.000 C 
ATOM     23  C   UNL     1      -5.819   2.329 125.401  0.00  0.00    +0.000 C 
ATOM     24  C   UNL     1      -6.436   2.459 126.766  0.00  0.00    +0.000 C 
ENDBRANCH  11  22
BRANCH   9  25
ATOM     25  C   UNL     1      -9.015  -1.312 123.284  0.00  0.00    +0.000 C 
ATOM     26  O   UNL     1      -9.895  -0.560 122.878  0.00  0.00    +0.000 OA
BRANCH  25  27
ATOM     27  O   UNL     1      -8.618  -2.335 122.500  0.00  0.00    +0.000 OA
ATOM     28  H   UNL     1      -7.784  -2.268 122.016  0.00  0.00    +0.000 HD
ENDBRANCH  25  27
ENDBRANCH   9  25
TORSDOF 4
ENDMDL
MODEL 3
REMARK VINA RESULT:      -6.8      1.700      2.256
REMARK  Name = Grepafloxacin
REMARK  6 active torsions:
REMARK  status: ('A' for Active; 'I' for Inactive)
REMARK    1  A    between atoms: C_1  and  C_2
REMARK    2  A    between atoms: N_4  and  C_8
REMARK    3  A    between atoms: C_11  and  C_12
REMARK    4  A    between atoms: C_16  and  C_24
REMARK    5  A    between atoms: N_18  and  C_19
REMARK    6  A    between atoms: C_24  and  O_25
REMARK                            x       y       z     vdW  Elec       q    Type
REMARK                         _______ _______ _______ _____ _____    ______ ____
ROOT
ATOM      1  C   UNL     1      -7.108  -0.740 129.022  0.00  0.00    +0.000 A 
ATOM      2  C   UNL     1      -7.619   0.515 129.365  0.00  0.00    +0.000 A 
ATOM      3  F   UNL     1      -7.708   0.844 130.665  0.00  0.00    +0.000 F 
ATOM      4  C   UNL     1      -7.989   1.460 128.401  0.00  0.00    +0.000 A 
ATOM      5  C   UNL     1      -8.477   2.807 128.852  0.00  0.00    +0.000 C 
ATOM      6  C   UNL     1      -7.885   1.121 127.032  0.00  0.00    +0.000 A 
ATOM      7  C   UNL     1      -8.278   2.098 125.975  0.00  0.00    +0.000 A 
ATOM      8  O   UNL     1      -8.678   3.213 126.284  0.00  0.00    +0.000 OA
ATOM      9  C   UNL     1      -8.173   1.716 124.546  0.00  0.00    +0.000 A 
ATOM     10  C   UNL     1      -7.720   0.474 124.315  0.00  0.00    +0.000 A 
ATOM     11  N   UNL     1      -7.356  -0.481 125.249  0.00  0.00    +0.000 N 
ATOM     12  C   UNL     1      -7.405  -0.140 126.637  0.00  0.00    +0.000 A 
ATOM     13  C   UNL     1      -7.000  -1.024 127.651  0.00  0.00    +0.000 A 
ENDROOT
BRANCH   1  17
ATOM     14  C   UNL     1      -4.137  -2.928 128.910  0.00  0.00    +0.000 C 
ATOM     15  C   UNL     1      -4.600  -2.877 130.369  0.00  0.00    +0.000 C 
ATOM     16  C   UNL     1      -5.421  -1.589 130.651  0.00  0.00    +0.000 C 
ATOM     17  N   UNL     1      -6.718  -1.655 129.976  0.00  0.00    +0.000 N 
ATOM     18  C   UNL     1      -7.515  -2.848 130.288  0.00  0.00    +0.000 C 
ATOM     19  C   UNL     1      -6.667  -4.126 130.033  0.00  0.00    +0.000 C 
ATOM     20  N   UNL     1      -5.354  -4.106 130.719  0.00  0.00    +0.000 NA
ATOM     21  H   UNL     1      -4.815  -4.929 130.455  0.00  0.00    +0.000 HD
ENDBRANCH   1  17
BRANCH  11  22
ATOM     22  C   UNL     1      -6.853  -1.807 124.786  0.00  0.00    +0.000 C 
ATOM     23  C   UNL     1      -6.422  -2.137 123.379  0.00  0.00    +0.000 C 
ATOM     24  C   UNL     1      -5.390  -1.985 124.462  0.00  0.00    +0.000 C 
ENDBRANCH  11  22
BRANCH   9  25
ATOM     25  C   UNL     1      -8.558   2.695 123.495  0.00  0.00    +0.000 C 
ATOM     26  O   UNL     1      -9.253   2.418 122.524  0.00  0.00    +0.000 OA
BRANCH  25  27
ATOM     27  O   UNL     1      -8.104   3.957 123.634  0.00  0.00    +0.000 OA
ATOM     28  H   UNL     1      -8.725   4.696 123.573  0.00  0.00    +0.000 HD
ENDBRANCH  25  27
ENDBRANCH   9  25
TORSDOF 4
ENDMDL
MODEL 4
REMARK VINA RESULT:      -6.8      3.046      4.592
REMARK  Name = Grepafloxacin
REMARK  6 active torsions:
REMARK  status: ('A' for Active; 'I' for Inactive)
REMARK    1  A    between atoms: C_1  and  C_2
REMARK    2  A    between atoms: N_4  and  C_8
REMARK    3  A    between atoms: C_11  and  C_12
REMARK    4  A    between atoms: C_16  and  C_24
REMARK    5  A    between atoms: N_18  and  C_19
REMARK    6  A    between atoms: C_24  and  O_25
REMARK                            x       y       z     vdW  Elec       q    Type
REMARK                         _______ _______ _______ _____ _____    ______ ____
ROOT
ATOM      1  C   UNL     1      -7.545  -0.249 129.409  0.00  0.00    +0.000 A 
ATOM      2  C   UNL     1      -7.803  -1.621 129.473  0.00  0.00    +0.000 A 
ATOM      3  F   UNL     1      -7.766  -2.231 130.670  0.00  0.00    +0.000 F 
ATOM      4  C   UNL     1      -8.154  -2.369 128.343  0.00  0.00    +0.000 A 
ATOM      5  C   UNL     1      -8.472  -3.828 128.507  0.00  0.00    +0.000 C 
ATOM      6  C   UNL     1      -8.206  -1.727 127.085  0.00  0.00    +0.000 A 
ATOM      7  C   UNL     1      -8.567  -2.493 125.856  0.00  0.00    +0.000 A 
ATOM      8  O   UNL     1      -8.840  -3.684 125.930  0.00  0.00    +0.000 OA
ATOM      9  C   UNL     1      -8.603  -1.802 124.544  0.00  0.00    +0.000 A 
ATOM     10  C   UNL     1      -8.291  -0.497 124.573  0.00  0.00    +0.000 A 
ATOM     11  N   UNL     1      -7.934   0.263 125.674  0.00  0.00    +0.000 N 
ATOM     12  C   UNL     1      -7.924  -0.355 126.963  0.00  0.00    +0.000 A 
ATOM     13  C   UNL     1      -7.632   0.350 128.142  0.00  0.00    +0.000 A 
ENDROOT
BRANCH   1  17
ATOM     14  C   UNL     1      -8.888   3.063 130.336  0.00  0.00    +0.000 C 
ATOM     15  C   UNL     1      -8.285   2.454 131.605  0.00  0.00    +0.000 C 
ATOM     16  C   UNL     1      -8.232   0.904 131.512  0.00  0.00    +0.000 C 
ATOM     17  N   UNL     1      -7.229   0.488 130.531  0.00  0.00    +0.000 N 
ATOM     18  C   UNL     1      -5.884   1.033 130.754  0.00  0.00    +0.000 C 
ATOM     19  C   UNL     1      -5.961   2.581 130.880  0.00  0.00    +0.000 C 
ATOM     20  N   UNL     1      -6.951   3.041 131.881  0.00  0.00    +0.000 NA
ATOM     21  H   UNL     1      -7.012   4.057 131.864  0.00  0.00    +0.000 HD
ENDBRANCH   1  17
BRANCH  11  22
ATOM     22  C   UNL     1      -7.642   1.715 125.500  0.00  0.00    +0.000 C 
ATOM     23  C   UNL     1      -7.482   2.424 124.179  0.00  0.00    +0.000 C 
ATOM     24  C   UNL     1      -8.721   2.644 125.002  0.00  0.00    +0.000 C 
ENDBRANCH  11  22
BRANCH   9  25
ATOM     25  C   UNL     1      -8.970  -2.566 123.323  0.00  0.00    +0.000 C 
ATOM     26  O   UNL     1      -8.340  -2.521 122.272  0.00  0.00    +0.000 OA
BRANCH  25  27
ATOM     27  O   UNL     1     -10.067  -3.348 123.393  0.00  0.00    +0.000 OA
ATOM     28  H   UNL     1     -10.944  -2.942 123.347  0.00  0.00    +0.000 HD
ENDBRANCH  25  27
ENDBRANCH   9  25
TORSDOF 4
ENDMDL
MODEL 5
REMARK VINA RESULT:      -6.7      1.923      3.701
REMARK  Name = Grepafloxacin
REMARK  6 active torsions:
REMARK  status: ('A' for Active; 'I' for Inactive)
REMARK    1  A    between atoms: C_1  and  C_2
REMARK    2  A    between atoms: N_4  and  C_8
REMARK    3  A    between atoms: C_11  and  C_12
REMARK    4  A    between atoms: C_16  and  C_24
REMARK    5  A    between atoms: N_18  and  C_19
REMARK    6  A    between atoms: C_24  and  O_25
REMARK                            x       y       z     vdW  Elec       q    Type
REMARK                         _______ _______ _______ _____ _____    ______ ____
ROOT
ATOM      1  C   UNL     1      -7.198  -1.801 129.201  0.00  0.00    +0.000 A 
ATOM      2  C   UNL     1      -7.758  -2.695 128.283  0.00  0.00    +0.000 A 
ATOM      3  F   UNL     1      -7.724  -4.010 128.559  0.00  0.00    +0.000 F 
ATOM      4  C   UNL     1      -8.400  -2.265 127.116  0.00  0.00    +0.000 A 
ATOM      5  C   UNL     1      -9.025  -3.288 126.212  0.00  0.00    +0.000 C 
ATOM      6  C   UNL     1      -8.448  -0.882 126.830  0.00  0.00    +0.000 A 
ATOM      7  C   UNL     1      -9.116  -0.385 125.592  0.00  0.00    +0.000 A 
ATOM      8  O   UNL     1      -9.646  -1.172 124.819  0.00  0.00    +0.000 OA
ATOM      9  C   UNL     1      -9.143   1.071 125.305  0.00  0.00    +0.000 A 
ATOM     10  C   UNL     1      -8.537   1.847 126.216  0.00  0.00    +0.000 A 
ATOM     11  N   UNL     1      -7.888   1.446 127.372  0.00  0.00    +0.000 N 
ATOM     12  C   UNL     1      -7.873   0.056 127.706  0.00  0.00    +0.000 A 
ATOM     13  C   UNL     1      -7.291  -0.435 128.886  0.00  0.00    +0.000 A 
ENDROOT
BRANCH   1  17
ATOM     14  C   UNL     1      -7.522  -0.292 132.555  0.00  0.00    +0.000 C 
ATOM     15  C   UNL     1      -6.983  -1.712 132.753  0.00  0.00    +0.000 C 
ATOM     16  C   UNL     1      -7.352  -2.624 131.550  0.00  0.00    +0.000 C 
ATOM     17  N   UNL     1      -6.593  -2.230 130.362  0.00  0.00    +0.000 N 
ATOM     18  C   UNL     1      -5.137  -2.189 130.546  0.00  0.00    +0.000 C 
ATOM     19  C   UNL     1      -4.788  -1.301 131.774  0.00  0.00    +0.000 C 
ATOM     20  N   UNL     1      -5.522  -1.684 133.003  0.00  0.00    +0.000 NA
ATOM     21  H   UNL     1      -5.312  -1.024 133.750  0.00  0.00    +0.000 HD
ENDBRANCH   1  17
BRANCH  11  22
ATOM     22  C   UNL     1      -7.291   2.474 128.273  0.00  0.00    +0.000 C 
ATOM     23  C   UNL     1      -7.537   3.960 128.190  0.00  0.00    +0.000 C 
ATOM     24  C   UNL     1      -8.151   3.160 129.305  0.00  0.00    +0.000 C 
ENDBRANCH  11  22
BRANCH   9  25
ATOM     25  C   UNL     1      -9.816   1.562 124.074  0.00  0.00    +0.000 C 
ATOM     26  O   UNL     1      -9.236   2.142 123.163  0.00  0.00    +0.000 OA
BRANCH  25  27
ATOM     27  O   UNL     1     -11.144   1.351 123.973  0.00  0.00    +0.000 OA
ATOM     28  H   UNL     1     -11.492   0.454 124.067  0.00  0.00    +0.000 HD
ENDBRANCH  25  27
ENDBRANCH   9  25
TORSDOF 4
ENDMDL
MODEL 6
REMARK VINA RESULT:      -6.6      7.839     10.263
REMARK  Name = Grepafloxacin
REMARK  6 active torsions:
REMARK  status: ('A' for Active; 'I' for Inactive)
REMARK    1  A    between atoms: C_1  and  C_2
REMARK    2  A    between atoms: N_4  and  C_8
REMARK    3  A    between atoms: C_11  and  C_12
REMARK    4  A    between atoms: C_16  and  C_24
REMARK    5  A    between atoms: N_18  and  C_19
REMARK    6  A    between atoms: C_24  and  O_25
REMARK                            x       y       z     vdW  Elec       q    Type
REMARK                         _______ _______ _______ _____ _____    ______ ____
ROOT
ATOM      1  C   UNL     1      -7.431   5.376 131.038  0.00  0.00    +0.000 A 
ATOM      2  C   UNL     1      -7.477   5.385 132.435  0.00  0.00    +0.000 A 
ATOM      3  F   UNL     1      -8.612   5.005 133.047  0.00  0.00    +0.000 F 
ATOM      4  C   UNL     1      -6.365   5.720 133.217  0.00  0.00    +0.000 A 
ATOM      5  C   UNL     1      -6.481   5.648 134.713  0.00  0.00    +0.000 C 
ATOM      6  C   UNL     1      -5.167   6.107 132.575  0.00  0.00    +0.000 A 
ATOM      7  C   UNL     1      -3.963   6.479 133.375  0.00  0.00    +0.000 A 
ATOM      8  O   UNL     1      -3.998   6.436 134.598  0.00  0.00    +0.000 OA
ATOM      9  C   UNL     1      -2.720   6.895 132.680  0.00  0.00    +0.000 A 
ATOM     10  C   UNL     1      -2.786   6.905 131.341  0.00  0.00    +0.000 A 
ATOM     11  N   UNL     1      -3.874   6.587 130.545  0.00  0.00    +0.000 N 
ATOM     12  C   UNL     1      -5.080   6.144 131.173  0.00  0.00    +0.000 A 
ATOM     13  C   UNL     1      -6.212   5.745 130.445  0.00  0.00    +0.000 A 
ENDROOT
BRANCH   1  17
ATOM     14  C   UNL     1     -10.954   6.312 131.625  0.00  0.00    +0.000 C 
ATOM     15  C   UNL     1     -10.850   5.851 130.168  0.00  0.00    +0.000 C 
ATOM     16  C   UNL     1      -9.398   5.999 129.636  0.00  0.00    +0.000 C 
ATOM     17  N   UNL     1      -8.521   5.017 130.274  0.00  0.00    +0.000 N 
ATOM     18  C   UNL     1      -8.969   3.623 130.159  0.00  0.00    +0.000 C 
ATOM     19  C   UNL     1     -10.435   3.500 130.662  0.00  0.00    +0.000 C 
ATOM     20  N   UNL     1     -11.359   4.466 130.022  0.00  0.00    +0.000 NA
ATOM     21  H   UNL     1     -12.282   4.391 130.444  0.00  0.00    +0.000 HD
ENDBRANCH   1  17
BRANCH  11  22
ATOM     22  C   UNL     1      -3.738   6.641 129.060  0.00  0.00    +0.000 C 
ATOM     23  C   UNL     1      -2.442   6.782 128.304  0.00  0.00    +0.000 C 
ATOM     24  C   UNL     1      -3.162   5.463 128.315  0.00  0.00    +0.000 C 
ENDBRANCH  11  22
BRANCH   9  25
ATOM     25  C   UNL     1      -1.520   7.258 133.480  0.00  0.00    +0.000 C 
ATOM     26  O   UNL     1      -0.928   8.327 133.378  0.00  0.00    +0.000 OA
BRANCH  25  27
ATOM     27  O   UNL     1      -1.070   6.344 134.364  0.00  0.00    +0.000 OA
ATOM     28  H   UNL     1      -0.641   5.541 134.040  0.00  0.00    +0.000 HD
ENDBRANCH  25  27
ENDBRANCH   9  25
TORSDOF 4
ENDMDL
MODEL 7
REMARK VINA RESULT:      -6.4      3.045      5.098
REMARK  Name = Grepafloxacin
REMARK  6 active torsions:
REMARK  status: ('A' for Active; 'I' for Inactive)
REMARK    1  A    between atoms: C_1  and  C_2
REMARK    2  A    between atoms: N_4  and  C_8
REMARK    3  A    between atoms: C_11  and  C_12
REMARK    4  A    between atoms: C_16  and  C_24
REMARK    5  A    between atoms: N_18  and  C_19
REMARK    6  A    between atoms: C_24  and  O_25
REMARK                            x       y       z     vdW  Elec       q    Type
REMARK                         _______ _______ _______ _____ _____    ______ ____
ROOT
ATOM      1  C   UNL     1      -7.567   1.783 128.287  0.00  0.00    +0.000 A 
ATOM      2  C   UNL     1      -7.998   2.488 127.159  0.00  0.00    +0.000 A 
ATOM      3  F   UNL     1      -8.016   3.831 127.204  0.00  0.00    +0.000 F 
ATOM      4  C   UNL     1      -8.357   1.846 125.968  0.00  0.00    +0.000 A 
ATOM      5  C   UNL     1      -8.754   2.680 124.785  0.00  0.00    +0.000 C 
ATOM      6  C   UNL     1      -8.326   0.434 125.915  0.00  0.00    +0.000 A 
ATOM      7  C   UNL     1      -8.710  -0.287 124.666  0.00  0.00    +0.000 A 
ATOM      8  O   UNL     1      -9.039   0.341 123.668  0.00  0.00    +0.000 OA
ATOM      9  C   UNL     1      -8.683  -1.770 124.636  0.00  0.00    +0.000 A 
ATOM     10  C   UNL     1      -8.306  -2.361 125.780  0.00  0.00    +0.000 A 
ATOM     11  N   UNL     1      -7.954  -1.750 126.972  0.00  0.00    +0.000 N 
ATOM     12  C   UNL     1      -7.930  -0.322 127.031  0.00  0.00    +0.000 A 
ATOM     13  C   UNL     1      -7.530   0.383 128.179  0.00  0.00    +0.000 A 
ENDROOT
BRANCH   1  17
ATOM     14  C   UNL     1      -9.415   4.443 130.058  0.00  0.00    +0.000 C 
ATOM     15  C   UNL     1      -8.406   3.861 131.052  0.00  0.00    +0.000 C 
ATOM     16  C   UNL     1      -8.004   2.413 130.660  0.00  0.00    +0.000 C 
ATOM     17  N   UNL     1      -7.186   2.423 129.447  0.00  0.00    +0.000 N 
ATOM     18  C   UNL     1      -5.998   3.284 129.511  0.00  0.00    +0.000 C 
ATOM     19  C   UNL     1      -6.413   4.719 129.938  0.00  0.00    +0.000 C 
ATOM     20  N   UNL     1      -7.226   4.752 131.177  0.00  0.00    +0.000 NA
ATOM     21  H   UNL     1      -7.532   5.705 131.364  0.00  0.00    +0.000 HD
ENDBRANCH   1  17
BRANCH  11  22
ATOM     22  C   UNL     1      -7.540  -2.590 128.133  0.00  0.00    +0.000 C 
ATOM     23  C   UNL     1      -8.150  -2.540 129.511  0.00  0.00    +0.000 C 
ATOM     24  C   UNL     1      -8.434  -3.708 128.608  0.00  0.00    +0.000 C 
ENDBRANCH  11  22
BRANCH   9  25
ATOM     25  C   UNL     1      -9.060  -2.485 123.387  0.00  0.00    +0.000 C 
ATOM     26  O   UNL     1      -9.964  -3.309 123.318  0.00  0.00    +0.000 OA
BRANCH  25  27
ATOM     27  O   UNL     1      -8.350  -2.198 122.277  0.00  0.00    +0.000 OA
ATOM     28  H   UNL     1      -7.426  -2.476 122.218  0.00  0.00    +0.000 HD
ENDBRANCH  25  27
ENDBRANCH   9  25
TORSDOF 4
ENDMDL
MODEL 8
REMARK VINA RESULT:      -6.4      5.429      7.675
REMARK  Name = Grepafloxacin
REMARK  6 active torsions:
REMARK  status: ('A' for Active; 'I' for Inactive)
REMARK    1  A    between atoms: C_1  and  C_2
REMARK    2  A    between atoms: N_4  and  C_8
REMARK    3  A    between atoms: C_11  and  C_12
REMARK    4  A    between atoms: C_16  and  C_24
REMARK    5  A    between atoms: N_18  and  C_19
REMARK    6  A    between atoms: C_24  and  O_25
REMARK                            x       y       z     vdW  Elec       q    Type
REMARK                         _______ _______ _______ _____ _____    ______ ____
ROOT
ATOM      1  C   UNL     1      -7.099   4.399 130.341  0.00  0.00    +0.000 A 
ATOM      2  C   UNL     1      -6.192   5.458 130.438  0.00  0.00    +0.000 A 
ATOM      3  F   UNL     1      -6.494   6.497 131.235  0.00  0.00    +0.000 F 
ATOM      4  C   UNL     1      -4.956   5.447 129.780  0.00  0.00    +0.000 A 
ATOM      5  C   UNL     1      -4.015   6.599 129.983  0.00  0.00    +0.000 C 
ATOM      6  C   UNL     1      -4.631   4.348 128.952  0.00  0.00    +0.000 A 
ATOM      7  C   UNL     1      -3.327   4.304 128.227  0.00  0.00    +0.000 A 
ATOM      8  O   UNL     1      -2.518   5.214 128.358  0.00  0.00    +0.000 OA
ATOM      9  C   UNL     1      -3.011   3.148 127.353  0.00  0.00    +0.000 A 
ATOM     10  C   UNL     1      -3.963   2.205 127.281  0.00  0.00    +0.000 A 
ATOM     11  N   UNL     1      -5.195   2.196 127.915  0.00  0.00    +0.000 N 
ATOM     12  C   UNL     1      -5.522   3.273 128.797  0.00  0.00    +0.000 A 
ATOM     13  C   UNL     1      -6.722   3.319 129.526  0.00  0.00    +0.000 A 
ENDROOT
BRANCH   1  17
ATOM     14  C   UNL     1      -9.622   7.094 130.356  0.00  0.00    +0.000 C 
ATOM     15  C   UNL     1     -10.323   5.822 130.841  0.00  0.00    +0.000 C 
ATOM     16  C   UNL     1      -9.589   4.550 130.336  0.00  0.00    +0.000 C 
ATOM     17  N   UNL     1      -8.301   4.403 131.015  0.00  0.00    +0.000 N 
ATOM     18  C   UNL     1      -8.374   4.403 132.482  0.00  0.00    +0.000 C 
ATOM     19  C   UNL     1      -9.143   5.664 132.969  0.00  0.00    +0.000 C 
ATOM     20  N   UNL     1     -10.463   5.835 132.318  0.00  0.00    +0.000 NA
ATOM     21  H   UNL     1     -10.883   6.713 132.617  0.00  0.00    +0.000 HD
ENDBRANCH   1  17
BRANCH  11  22
ATOM     22  C   UNL     1      -6.111   1.035 127.722  0.00  0.00    +0.000 C 
ATOM     23  C   UNL     1      -5.772  -0.234 126.983  0.00  0.00    +0.000 C 
ATOM     24  C   UNL     1      -5.873  -0.245 128.483  0.00  0.00    +0.000 C 
ENDBRANCH  11  22
BRANCH   9  25
ATOM     25  C   UNL     1      -1.708   3.104 126.638  0.00  0.00    +0.000 C 
ATOM     26  O   UNL     1      -0.816   2.302 126.890  0.00  0.00    +0.000 OA
BRANCH  25  27
ATOM     27  O   UNL     1      -1.513   4.011 125.659  0.00  0.00    +0.000 OA
ATOM     28  H   UNL     1      -1.874   4.903 125.758  0.00  0.00    +0.000 HD
ENDBRANCH  25  27
ENDBRANCH   9  25
TORSDOF 4
ENDMDL
MODEL 9
REMARK VINA RESULT:      -6.4      4.138      6.268
REMARK  Name = Grepafloxacin
REMARK  6 active torsions:
REMARK  status: ('A' for Active; 'I' for Inactive)
REMARK    1  A    between atoms: C_1  and  C_2
REMARK    2  A    between atoms: N_4  and  C_8
REMARK    3  A    between atoms: C_11  and  C_12
REMARK    4  A    between atoms: C_16  and  C_24
REMARK    5  A    between atoms: N_18  and  C_19
REMARK    6  A    between atoms: C_24  and  O_25
REMARK                            x       y       z     vdW  Elec       q    Type
REMARK                         _______ _______ _______ _____ _____    ______ ____
ROOT
ATOM      1  C   UNL     1      -6.754  -0.375 125.161  0.00  0.00    +0.000 A 
ATOM      2  C   UNL     1      -6.194  -0.597 126.422  0.00  0.00    +0.000 A 
ATOM      3  F   UNL     1      -6.301  -1.819 126.971  0.00  0.00    +0.000 F 
ATOM      4  C   UNL     1      -5.478   0.392 127.106  0.00  0.00    +0.000 A 
ATOM      5  C   UNL     1      -4.859   0.055 128.432  0.00  0.00    +0.000 C 
ATOM      6  C   UNL     1      -5.353   1.675 126.525  0.00  0.00    +0.000 A 
ATOM      7  C   UNL     1      -4.604   2.758 127.228  0.00  0.00    +0.000 A 
ATOM      8  O   UNL     1      -4.075   2.539 128.310  0.00  0.00    +0.000 OA
ATOM      9  C   UNL     1      -4.497   4.100 126.605  0.00  0.00    +0.000 A 
ATOM     10  C   UNL     1      -5.109   4.233 125.419  0.00  0.00    +0.000 A 
ATOM     11  N   UNL     1      -5.829   3.275 124.725  0.00  0.00    +0.000 N 
ATOM     12  C   UNL     1      -5.925   1.957 125.272  0.00  0.00    +0.000 A 
ATOM     13  C   UNL     1      -6.584   0.907 124.612  0.00  0.00    +0.000 A 
ENDROOT
BRANCH   1  17
ATOM     14  C   UNL     1      -8.990  -2.930 126.609  0.00  0.00    +0.000 C 
ATOM     15  C   UNL     1      -9.298  -2.864 125.111  0.00  0.00    +0.000 C 
ATOM     16  C   UNL     1      -8.890  -1.489 124.515  0.00  0.00    +0.000 C 
ATOM     17  N   UNL     1      -7.433  -1.362 124.479  0.00  0.00    +0.000 N 
ATOM     18  C   UNL     1      -6.737  -2.449 123.780  0.00  0.00    +0.000 C 
ATOM     19  C   UNL     1      -7.182  -3.819 124.364  0.00  0.00    +0.000 C 
ATOM     20  N   UNL     1      -8.653  -3.993 124.396  0.00  0.00    +0.000 NA
ATOM     21  H   UNL     1      -8.887  -4.871 124.857  0.00  0.00    +0.000 HD
ENDBRANCH   1  17
BRANCH  11  22
ATOM     22  C   UNL     1      -6.420   3.617 123.399  0.00  0.00    +0.000 C 
ATOM     23  C   UNL     1      -5.672   4.218 122.236  0.00  0.00    +0.000 C 
ATOM     24  C   UNL     1      -6.094   2.776 122.191  0.00  0.00    +0.000 C 
ENDBRANCH  11  22
BRANCH   9  25
ATOM     25  C   UNL     1      -3.744   5.174 127.305  0.00  0.00    +0.000 C 
ATOM     26  O   UNL     1      -4.234   6.248 127.635  0.00  0.00    +0.000 OA
BRANCH  25  27
ATOM     27  O   UNL     1      -2.445   4.936 127.581  0.00  0.00    +0.000 OA
ATOM     28  H   UNL     1      -1.823   4.796 126.854  0.00  0.00    +0.000 HD
ENDBRANCH  25  27
ENDBRANCH   9  25
TORSDOF 4
ENDMDL
