MODEL 1
REMARK VINA RESULT:      -6.7      0.000      0.000
REMARK  Name = Griseofulvin
REMARK  7 active torsions:
REMARK  status: ('A' for Active; 'I' for Inactive)
REMARK    1  A    between atoms: C_1  and  O_2
REMARK    2  A    between atoms: O_2  and  C_3
REMARK    3  A    between atoms: C_5  and  O_6
REMARK    4  A    between atoms: O_6  and  C_7
REMARK    5  A    between atoms: C_16  and  C_17
REMARK    6  A    between atoms: C_22  and  O_23
REMARK    7  A    between atoms: O_23  and  C_24
REMARK                            x       y       z     vdW  Elec       q    Type
REMARK                         _______ _______ _______ _____ _____    ______ ____
ROOT
ATOM      1  C   UNL     1      -7.875   2.384 129.600  0.00  0.00    +0.000 A 
ATOM      2  C   UNL     1      -6.532   2.196 129.218  0.00  0.00    +0.000 A 
ATOM      3  C   UNL     1      -5.630   3.273 129.097  0.00  0.00    +0.000 A 
ATOM      4  C   UNL     1      -6.081   4.573 129.374  0.00  0.00    +0.000 A 
ATOM      5 CL   UNL     1      -5.023   5.938 129.288  0.00  0.00    +0.000 Cl
ATOM      6  C   UNL     1      -7.410   4.756 129.744  0.00  0.00    +0.000 A 
ATOM      7  C   UNL     1      -8.286   3.681 129.854  0.00  0.00    +0.000 A 
ATOM      8  C   UNL     1      -9.520   4.270 130.331  0.00  0.00    +0.000 C 
ATOM      9  O   UNL     1     -10.537   3.694 130.677  0.00  0.00    +0.000 OA
ATOM     10  C   UNL     1      -9.325   5.765 130.404  0.00  0.00    +0.000 C 
ATOM     11  O   UNL     1      -7.940   5.990 130.058  0.00  0.00    +0.000 OA
ATOM     12  C   UNL     1      -9.584   6.284 131.838  0.00  0.00    +0.000 C 
ATOM     13  C   UNL     1      -8.798   5.520 132.915  0.00  0.00    +0.000 C 
ATOM     14  C   UNL     1     -11.075   6.257 132.192  0.00  0.00    +0.000 C 
ATOM     15  C   UNL     1     -11.945   6.860 131.120  0.00  0.00    +0.000 C 
ATOM     16  O   UNL     1     -13.083   7.262 131.355  0.00  0.00    +0.000 OA
ATOM     17  C   UNL     1     -11.450   6.915 129.730  0.00  0.00    +0.000 C 
ATOM     18  C   UNL     1     -10.258   6.404 129.375  0.00  0.00    +0.000 C 
ENDROOT
BRANCH   1  20
ATOM     19  C   UNL     1      -8.606   0.678 131.093  0.00  0.00    +0.000 C 
ATOM     20  O   UNL     1      -8.576   1.229 129.782  0.00  0.00    +0.000 OA
ENDBRANCH   1  20
BRANCH   3  21
ATOM     21  O   UNL     1      -4.313   3.139 128.732  0.00  0.00    +0.000 OA
ATOM     22  C   UNL     1      -4.032   2.797 127.380  0.00  0.00    +0.000 C 
ENDBRANCH   3  21
BRANCH  18  23
ATOM     23  O   UNL     1      -9.779   6.385 128.071  0.00  0.00    +0.000 OA
ATOM     24  C   UNL     1     -10.504   7.142 127.103  0.00  0.00    +0.000 C 
ENDBRANCH  18  23
TORSDOF 3
ENDMDL
MODEL 2
REMARK VINA RESULT:      -6.6      5.760      7.589
REMARK  Name = Griseofulvin
REMARK  7 active torsions:
REMARK  status: ('A' for Active; 'I' for Inactive)
REMARK    1  A    between atoms: C_1  and  O_2
REMARK    2  A    between atoms: O_2  and  C_3
REMARK    3  A    between atoms: C_5  and  O_6
REMARK    4  A    between atoms: O_6  and  C_7
REMARK    5  A    between atoms: C_16  and  C_17
REMARK    6  A    between atoms: C_22  and  O_23
REMARK    7  A    between atoms: O_23  and  C_24
REMARK                            x       y       z     vdW  Elec       q    Type
REMARK                         _______ _______ _______ _____ _____    ______ ____
ROOT
ATOM      1  C   UNL     1      -7.178  -1.734 125.845  0.00  0.00    +0.000 A 
ATOM      2  C   UNL     1      -7.278  -2.117 127.198  0.00  0.00    +0.000 A 
ATOM      3  C   UNL     1      -7.593  -1.193 128.216  0.00  0.00    +0.000 A 
ATOM      4  C   UNL     1      -7.824   0.147 127.871  0.00  0.00    +0.000 A 
ATOM      5 CL   UNL     1      -8.257   1.327 129.059  0.00  0.00    +0.000 Cl
ATOM      6  C   UNL     1      -7.719   0.523 126.536  0.00  0.00    +0.000 A 
ATOM      7  C   UNL     1      -7.402  -0.402 125.546  0.00  0.00    +0.000 A 
ATOM      8  C   UNL     1      -7.470   0.354 124.312  0.00  0.00    +0.000 C 
ATOM      9  O   UNL     1      -7.375  -0.068 123.172  0.00  0.00    +0.000 OA
ATOM     10  C   UNL     1      -7.760   1.794 124.664  0.00  0.00    +0.000 C 
ATOM     11  O   UNL     1      -7.950   1.810 126.096  0.00  0.00    +0.000 OA
ATOM     12  C   UNL     1      -9.056   2.278 123.972  0.00  0.00    +0.000 C 
ATOM     13  C   UNL     1     -10.256   1.348 124.202  0.00  0.00    +0.000 C 
ATOM     14  C   UNL     1      -8.856   2.474 122.464  0.00  0.00    +0.000 C 
ATOM     15  C   UNL     1      -7.614   3.258 122.132  0.00  0.00    +0.000 C 
ATOM     16  O   UNL     1      -7.472   3.826 121.051  0.00  0.00    +0.000 OA
ATOM     17  C   UNL     1      -6.501   3.299 123.102  0.00  0.00    +0.000 C 
ATOM     18  C   UNL     1      -6.539   2.621 124.262  0.00  0.00    +0.000 C 
ENDROOT
BRANCH   1  20
ATOM     19  C   UNL     1      -8.115  -3.556 124.629  0.00  0.00    +0.000 C 
ATOM     20  O   UNL     1      -6.983  -2.770 124.980  0.00  0.00    +0.000 OA
ENDBRANCH   1  20
BRANCH   3  21
ATOM     21  O   UNL     1      -7.704  -1.520 129.545  0.00  0.00    +0.000 OA
ATOM     22  C   UNL     1      -7.938  -2.884 129.874  0.00  0.00    +0.000 C 
ENDBRANCH   3  21
BRANCH  18  23
ATOM     23  O   UNL     1      -5.493   2.588 125.176  0.00  0.00    +0.000 OA
ATOM     24  C   UNL     1      -4.849   3.827 125.470  0.00  0.00    +0.000 C 
ENDBRANCH  18  23
TORSDOF 3
ENDMDL
MODEL 3
REMARK VINA RESULT:      -6.3      4.849      7.160
REMARK  Name = Griseofulvin
REMARK  7 active torsions:
REMARK  status: ('A' for Active; 'I' for Inactive)
REMARK    1  A    between atoms: C_1  and  O_2
REMARK    2  A    between atoms: O_2  and  C_3
REMARK    3  A    between atoms: C_5  and  O_6
REMARK    4  A    between atoms: O_6  and  C_7
REMARK    5  A    between atoms: C_16  and  C_17
REMARK    6  A    between atoms: C_22  and  O_23
REMARK    7  A    between atoms: O_23  and  C_24
REMARK                            x       y       z     vdW  Elec       q    Type
REMARK                         _______ _______ _______ _____ _____    ______ ____
ROOT
ATOM      1  C   UNL     1      -8.475   1.612 128.192  0.00  0.00    +0.000 A 
ATOM      2  C   UNL     1      -7.962   0.672 129.108  0.00  0.00    +0.000 A 
ATOM      3  C   UNL     1      -7.130  -0.392 128.703  0.00  0.00    +0.000 A 
ATOM      4  C   UNL     1      -6.793  -0.514 127.346  0.00  0.00    +0.000 A 
ATOM      5 CL   UNL     1      -5.744  -1.767 126.782  0.00  0.00    +0.000 Cl
ATOM      6  C   UNL     1      -7.306   0.412 126.443  0.00  0.00    +0.000 A 
ATOM      7  C   UNL     1      -8.130   1.452 126.861  0.00  0.00    +0.000 A 
ATOM      8  C   UNL     1      -8.375   2.222 125.659  0.00  0.00    +0.000 C 
ATOM      9  O   UNL     1      -8.958   3.289 125.562  0.00  0.00    +0.000 OA
ATOM     10  C   UNL     1      -7.713   1.508 124.506  0.00  0.00    +0.000 C 
ATOM     11  O   UNL     1      -7.014   0.389 125.095  0.00  0.00    +0.000 OA
ATOM     12  C   UNL     1      -6.693   2.432 123.800  0.00  0.00    +0.000 C 
ATOM     13  C   UNL     1      -5.688   3.082 124.764  0.00  0.00    +0.000 C 
ATOM     14  C   UNL     1      -7.388   3.530 122.987  0.00  0.00    +0.000 C 
ATOM     15  C   UNL     1      -8.495   3.003 122.111  0.00  0.00    +0.000 C 
ATOM     16  O   UNL     1      -8.911   3.630 121.140  0.00  0.00    +0.000 OA
ATOM     17  C   UNL     1      -9.148   1.724 122.460  0.00  0.00    +0.000 C 
ATOM     18  C   UNL     1      -8.817   1.030 123.563  0.00  0.00    +0.000 C 
ENDROOT
BRANCH   1  20
ATOM     19  C   UNL     1      -8.693   3.130 130.014  0.00  0.00    +0.000 C 
ATOM     20  O   UNL     1      -9.163   2.640 128.765  0.00  0.00    +0.000 OA
ENDBRANCH   1  20
BRANCH   3  21
ATOM     21  O   UNL     1      -6.605  -1.328 129.559  0.00  0.00    +0.000 OA
ATOM     22  C   UNL     1      -7.454  -2.389 129.981  0.00  0.00    +0.000 C 
ENDBRANCH   3  21
BRANCH  18  23
ATOM     23  O   UNL     1      -9.443  -0.146 123.956  0.00  0.00    +0.000 OA
ATOM     24  C   UNL     1      -9.255  -1.290 123.125  0.00  0.00    +0.000 C 
ENDBRANCH  18  23
TORSDOF 3
ENDMDL
MODEL 4
REMARK VINA RESULT:      -6.3      3.581      6.452
REMARK  Name = Griseofulvin
REMARK  7 active torsions:
REMARK  status: ('A' for Active; 'I' for Inactive)
REMARK    1  A    between atoms: C_1  and  O_2
REMARK    2  A    between atoms: O_2  and  C_3
REMARK    3  A    between atoms: C_5  and  O_6
REMARK    4  A    between atoms: O_6  and  C_7
REMARK    5  A    between atoms: C_16  and  C_17
REMARK    6  A    between atoms: C_22  and  O_23
REMARK    7  A    between atoms: O_23  and  C_24
REMARK                            x       y       z     vdW  Elec       q    Type
REMARK                         _______ _______ _______ _____ _____    ______ ____
ROOT
ATOM      1  C   UNL     1      -8.505   4.516 129.072  0.00  0.00    +0.000 A 
ATOM      2  C   UNL     1      -8.817   3.804 130.248  0.00  0.00    +0.000 A 
ATOM      3  C   UNL     1      -8.670   2.405 130.338  0.00  0.00    +0.000 A 
ATOM      4  C   UNL     1      -8.188   1.699 129.224  0.00  0.00    +0.000 A 
ATOM      5 CL   UNL     1      -7.941  -0.012 129.274  0.00  0.00    +0.000 Cl
ATOM      6  C   UNL     1      -7.887   2.404 128.064  0.00  0.00    +0.000 A 
ATOM      7  C   UNL     1      -8.044   3.784 127.993  0.00  0.00    +0.000 A 
ATOM      8  C   UNL     1      -7.556   4.134 126.675  0.00  0.00    +0.000 C 
ATOM      9  O   UNL     1      -7.398   5.250 126.209  0.00  0.00    +0.000 OA
ATOM     10  C   UNL     1      -7.191   2.856 125.959  0.00  0.00    +0.000 C 
ATOM     11  O   UNL     1      -7.387   1.803 126.927  0.00  0.00    +0.000 OA
ATOM     12  C   UNL     1      -5.708   2.877 125.520  0.00  0.00    +0.000 C 
ATOM     13  C   UNL     1      -4.738   3.227 126.659  0.00  0.00    +0.000 C 
ATOM     14  C   UNL     1      -5.473   3.839 124.350  0.00  0.00    +0.000 C 
ATOM     15  C   UNL     1      -6.474   3.666 123.237  0.00  0.00    +0.000 C 
ATOM     16  O   UNL     1      -6.251   4.060 122.094  0.00  0.00    +0.000 OA
ATOM     17  C   UNL     1      -7.790   3.064 123.532  0.00  0.00    +0.000 C 
ATOM     18  C   UNL     1      -8.147   2.701 124.776  0.00  0.00    +0.000 C 
ENDROOT
BRANCH   1  20
ATOM     19  C   UNL     1      -9.892   6.438 129.313  0.00  0.00    +0.000 C 
ATOM     20  O   UNL     1      -8.593   5.871 129.194  0.00  0.00    +0.000 OA
ENDBRANCH   1  20
BRANCH   3  21
ATOM     21  O   UNL     1      -8.957   1.670 131.461  0.00  0.00    +0.000 OA
ATOM     22  C   UNL     1      -9.452   2.367 132.599  0.00  0.00    +0.000 C 
ENDBRANCH   3  21
BRANCH  18  23
ATOM     23  O   UNL     1      -9.393   2.183 125.106  0.00  0.00    +0.000 OA
ATOM     24  C   UNL     1      -9.979   1.266 124.183  0.00  0.00    +0.000 C 
ENDBRANCH  18  23
TORSDOF 3
ENDMDL
MODEL 5
REMARK VINA RESULT:      -6.2      4.715      7.578
REMARK  Name = Griseofulvin
REMARK  7 active torsions:
REMARK  status: ('A' for Active; 'I' for Inactive)
REMARK    1  A    between atoms: C_1  and  O_2
REMARK    2  A    between atoms: O_2  and  C_3
REMARK    3  A    between atoms: C_5  and  O_6
REMARK    4  A    between atoms: O_6  and  C_7
REMARK    5  A    between atoms: C_16  and  C_17
REMARK    6  A    between atoms: C_22  and  O_23
REMARK    7  A    between atoms: O_23  and  C_24
REMARK                            x       y       z     vdW  Elec       q    Type
REMARK                         _______ _______ _______ _____ _____    ______ ____
ROOT
ATOM      1  C   UNL     1      -8.029   2.556 127.657  0.00  0.00    +0.000 A 
ATOM      2  C   UNL     1      -7.269   3.695 127.988  0.00  0.00    +0.000 A 
ATOM      3  C   UNL     1      -6.210   4.152 127.177  0.00  0.00    +0.000 A 
ATOM      4  C   UNL     1      -5.909   3.455 125.996  0.00  0.00    +0.000 A 
ATOM      5 CL   UNL     1      -4.652   3.979 124.930  0.00  0.00    +0.000 Cl
ATOM      6  C   UNL     1      -6.657   2.327 125.675  0.00  0.00    +0.000 A 
ATOM      7  C   UNL     1      -7.695   1.889 126.491  0.00  0.00    +0.000 A 
ATOM      8  C   UNL     1      -8.261   0.761 125.780  0.00  0.00    +0.000 C 
ATOM      9  O   UNL     1      -9.263   0.127 126.063  0.00  0.00    +0.000 OA
ATOM     10  C   UNL     1      -7.425   0.523 124.546  0.00  0.00    +0.000 C 
ATOM     11  O   UNL     1      -6.452   1.590 124.527  0.00  0.00    +0.000 OA
ATOM     12  C   UNL     1      -8.295   0.603 123.269  0.00  0.00    +0.000 C 
ATOM     13  C   UNL     1      -9.141   1.883 123.186  0.00  0.00    +0.000 C 
ATOM     14  C   UNL     1      -9.215  -0.615 123.130  0.00  0.00    +0.000 C 
ATOM     15  C   UNL     1      -8.496  -1.923 123.340  0.00  0.00    +0.000 C 
ATOM     16  O   UNL     1      -8.945  -2.987 122.921  0.00  0.00    +0.000 OA
ATOM     17  C   UNL     1      -7.246  -1.944 124.127  0.00  0.00    +0.000 C 
ATOM     18  C   UNL     1      -6.746  -0.838 124.704  0.00  0.00    +0.000 C 
ENDROOT
BRANCH   1  20
ATOM     19  C   UNL     1      -8.948   2.698 129.850  0.00  0.00    +0.000 C 
ATOM     20  O   UNL     1      -9.087   2.323 128.485  0.00  0.00    +0.000 OA
ENDBRANCH   1  20
BRANCH   3  21
ATOM     21  O   UNL     1      -5.446   5.257 127.457  0.00  0.00    +0.000 OA
ATOM     22  C   UNL     1      -4.427   5.125 128.442  0.00  0.00    +0.000 C 
ENDBRANCH   3  21
BRANCH  18  23
ATOM     23  O   UNL     1      -5.605  -0.824 125.497  0.00  0.00    +0.000 OA
ATOM     24  C   UNL     1      -5.649  -1.579 126.707  0.00  0.00    +0.000 C 
ENDBRANCH  18  23
TORSDOF 3
ENDMDL
MODEL 6
REMARK VINA RESULT:      -6.1      3.459      6.706
REMARK  Name = Griseofulvin
REMARK  7 active torsions:
REMARK  status: ('A' for Active; 'I' for Inactive)
REMARK    1  A    between atoms: C_1  and  O_2
REMARK    2  A    between atoms: O_2  and  C_3
REMARK    3  A    between atoms: C_5  and  O_6
REMARK    4  A    between atoms: O_6  and  C_7
REMARK    5  A    between atoms: C_16  and  C_17
REMARK    6  A    between atoms: C_22  and  O_23
REMARK    7  A    between atoms: O_23  and  C_24
REMARK                            x       y       z     vdW  Elec       q    Type
REMARK                         _______ _______ _______ _____ _____    ______ ____
ROOT
ATOM      1  C   UNL     1      -6.074   4.359 128.325  0.00  0.00    +0.000 A 
ATOM      2  C   UNL     1      -4.853   4.961 128.686  0.00  0.00    +0.000 A 
ATOM      3  C   UNL     1      -3.620   4.534 128.151  0.00  0.00    +0.000 A 
ATOM      4  C   UNL     1      -3.610   3.482 127.222  0.00  0.00    +0.000 A 
ATOM      5 CL   UNL     1      -2.142   2.932 126.491  0.00  0.00    +0.000 Cl
ATOM      6  C   UNL     1      -4.817   2.885 126.873  0.00  0.00    +0.000 A 
ATOM      7  C   UNL     1      -6.023   3.317 127.415  0.00  0.00    +0.000 A 
ATOM      8  C   UNL     1      -7.026   2.514 126.748  0.00  0.00    +0.000 C 
ATOM      9  O   UNL     1      -8.239   2.619 126.825  0.00  0.00    +0.000 OA
ATOM     10  C   UNL     1      -6.314   1.530 125.852  0.00  0.00    +0.000 C 
ATOM     11  O   UNL     1      -4.912   1.862 125.952  0.00  0.00    +0.000 OA
ATOM     12  C   UNL     1      -6.773   1.692 124.384  0.00  0.00    +0.000 C 
ATOM     13  C   UNL     1      -6.691   3.139 123.874  0.00  0.00    +0.000 C 
ATOM     14  C   UNL     1      -8.197   1.167 124.171  0.00  0.00    +0.000 C 
ATOM     15  C   UNL     1      -8.416  -0.199 124.769  0.00  0.00    +0.000 C 
ATOM     16  O   UNL     1      -9.332  -0.931 124.402  0.00  0.00    +0.000 OA
ATOM     17  C   UNL     1      -7.546  -0.655 125.872  0.00  0.00    +0.000 C 
ATOM     18  C   UNL     1      -6.587   0.128 126.397  0.00  0.00    +0.000 C 
ENDROOT
BRANCH   1  20
ATOM     19  C   UNL     1      -7.801   4.357 129.966  0.00  0.00    +0.000 C 
ATOM     20  O   UNL     1      -7.178   4.969 128.844  0.00  0.00    +0.000 OA
ENDBRANCH   1  20
BRANCH   3  21
ATOM     21  O   UNL     1      -2.407   5.092 128.469  0.00  0.00    +0.000 OA
ATOM     22  C   UNL     1      -2.294   6.509 128.413  0.00  0.00    +0.000 C 
ENDBRANCH   3  21
BRANCH  18  23
ATOM     23  O   UNL     1      -5.786  -0.240 127.470  0.00  0.00    +0.000 OA
ATOM     24  C   UNL     1      -6.448  -0.558 128.694  0.00  0.00    +0.000 C 
ENDBRANCH  18  23
TORSDOF 3
ENDMDL
MODEL 7
REMARK VINA RESULT:      -6.1      2.149      3.169
REMARK  Name = Griseofulvin
REMARK  7 active torsions:
REMARK  status: ('A' for Active; 'I' for Inactive)
REMARK    1  A    between atoms: C_1  and  O_2
REMARK    2  A    between atoms: O_2  and  C_3
REMARK    3  A    between atoms: C_5  and  O_6
REMARK    4  A    between atoms: O_6  and  C_7
REMARK    5  A    between atoms: C_16  and  C_17
REMARK    6  A    between atoms: C_22  and  O_23
REMARK    7  A    between atoms: O_23  and  C_24
REMARK                            x       y       z     vdW  Elec       q    Type
REMARK                         _______ _______ _______ _____ _____    ______ ____
ROOT
ATOM      1  C   UNL     1      -4.619   2.374 130.061  0.00  0.00    +0.000 A 
ATOM      2  C   UNL     1      -3.802   2.132 128.939  0.00  0.00    +0.000 A 
ATOM      3  C   UNL     1      -3.928   2.873 127.746  0.00  0.00    +0.000 A 
ATOM      4  C   UNL     1      -4.892   3.891 127.677  0.00  0.00    +0.000 A 
ATOM      5 CL   UNL     1      -5.077   4.870 126.263  0.00  0.00    +0.000 Cl
ATOM      6  C   UNL     1      -5.701   4.123 128.784  0.00  0.00    +0.000 A 
ATOM      7  C   UNL     1      -5.565   3.378 129.951  0.00  0.00    +0.000 A 
ATOM      8  C   UNL     1      -6.513   3.971 130.871  0.00  0.00    +0.000 C 
ATOM      9  O   UNL     1      -6.667   3.715 132.053  0.00  0.00    +0.000 OA
ATOM     10  C   UNL     1      -7.268   5.049 130.130  0.00  0.00    +0.000 C 
ATOM     11  O   UNL     1      -6.660   5.115 128.821  0.00  0.00    +0.000 OA
ATOM     12  C   UNL     1      -7.107   6.416 130.836  0.00  0.00    +0.000 C 
ATOM     13  C   UNL     1      -5.644   6.790 131.119  0.00  0.00    +0.000 C 
ATOM     14  C   UNL     1      -7.901   6.476 132.146  0.00  0.00    +0.000 C 
ATOM     15  C   UNL     1      -9.319   5.988 131.998  0.00  0.00    +0.000 C 
ATOM     16  O   UNL     1     -10.199   6.291 132.801  0.00  0.00    +0.000 OA
ATOM     17  C   UNL     1      -9.657   5.066 130.894  0.00  0.00    +0.000 C 
ATOM     18  C   UNL     1      -8.728   4.608 130.036  0.00  0.00    +0.000 C 
ENDROOT
BRANCH   1  20
ATOM     19  C   UNL     1      -4.284   0.232 131.048  0.00  0.00    +0.000 C 
ATOM     20  O   UNL     1      -4.286   1.649 131.167  0.00  0.00    +0.000 OA
ENDBRANCH   1  20
BRANCH   3  21
ATOM     21  O   UNL     1      -3.154   2.676 126.630  0.00  0.00    +0.000 OA
ATOM     22  C   UNL     1      -1.804   3.123 126.673  0.00  0.00    +0.000 C 
ENDBRANCH   3  21
BRANCH  18  23
ATOM     23  O   UNL     1      -8.992   3.698 129.020  0.00  0.00    +0.000 OA
ATOM     24  C   UNL     1      -9.088   2.323 129.390  0.00  0.00    +0.000 C 
ENDBRANCH  18  23
TORSDOF 3
ENDMDL
MODEL 8
REMARK VINA RESULT:      -6.0      4.079      6.192
REMARK  Name = Griseofulvin
REMARK  7 active torsions:
REMARK  status: ('A' for Active; 'I' for Inactive)
REMARK    1  A    between atoms: C_1  and  O_2
REMARK    2  A    between atoms: O_2  and  C_3
REMARK    3  A    between atoms: C_5  and  O_6
REMARK    4  A    between atoms: O_6  and  C_7
REMARK    5  A    between atoms: C_16  and  C_17
REMARK    6  A    between atoms: C_22  and  O_23
REMARK    7  A    between atoms: O_23  and  C_24
REMARK                            x       y       z     vdW  Elec       q    Type
REMARK                         _______ _______ _______ _____ _____    ______ ____
ROOT
ATOM      1  C   UNL     1      -4.306   3.150 127.030  0.00  0.00    +0.000 A 
ATOM      2  C   UNL     1      -4.011   4.309 127.774  0.00  0.00    +0.000 A 
ATOM      3  C   UNL     1      -4.954   4.904 128.638  0.00  0.00    +0.000 A 
ATOM      4  C   UNL     1      -6.222   4.317 128.769  0.00  0.00    +0.000 A 
ATOM      5 CL   UNL     1      -7.415   4.965 129.841  0.00  0.00    +0.000 Cl
ATOM      6  C   UNL     1      -6.512   3.176 128.027  0.00  0.00    +0.000 A 
ATOM      7  C   UNL     1      -5.570   2.607 127.176  0.00  0.00    +0.000 A 
ATOM      8  C   UNL     1      -6.219   1.417 126.666  0.00  0.00    +0.000 C 
ATOM      9  O   UNL     1      -5.733   0.543 125.968  0.00  0.00    +0.000 OA
ATOM     10  C   UNL     1      -7.627   1.385 127.210  0.00  0.00    +0.000 C 
ATOM     11  O   UNL     1      -7.720   2.515 128.105  0.00  0.00    +0.000 OA
ATOM     12  C   UNL     1      -7.879   0.082 128.005  0.00  0.00    +0.000 C 
ATOM     13  C   UNL     1      -6.814  -0.197 129.076  0.00  0.00    +0.000 C 
ATOM     14  C   UNL     1      -7.991  -1.136 127.081  0.00  0.00    +0.000 C 
ATOM     15  C   UNL     1      -8.912  -0.905 125.911  0.00  0.00    +0.000 C 
ATOM     16  O   UNL     1      -9.414  -1.835 125.284  0.00  0.00    +0.000 OA
ATOM     17  C   UNL     1      -9.174   0.476 125.457  0.00  0.00    +0.000 C 
ATOM     18  C   UNL     1      -8.582   1.541 126.026  0.00  0.00    +0.000 C 
ENDROOT
BRANCH   1  20
ATOM     19  C   UNL     1      -1.950   3.113 126.680  0.00  0.00    +0.000 C 
ATOM     20  O   UNL     1      -3.247   2.641 126.337  0.00  0.00    +0.000 OA
ENDBRANCH   1  20
BRANCH   3  21
ATOM     21  O   UNL     1      -4.712   6.030 129.385  0.00  0.00    +0.000 OA
ATOM     22  C   UNL     1      -3.749   6.955 128.895  0.00  0.00    +0.000 C 
ENDBRANCH   3  21
BRANCH  18  23
ATOM     23  O   UNL     1      -8.757   2.850 125.595  0.00  0.00    +0.000 OA
ATOM     24  C   UNL     1      -8.371   3.147 124.254  0.00  0.00    +0.000 C 
ENDBRANCH  18  23
TORSDOF 3
ENDMDL
MODEL 9
REMARK VINA RESULT:      -6.0      4.299      6.692
REMARK  Name = Griseofulvin
REMARK  7 active torsions:
REMARK  status: ('A' for Active; 'I' for Inactive)
REMARK    1  A    between atoms: C_1  and  O_2
REMARK    2  A    between atoms: O_2  and  C_3
REMARK    3  A    between atoms: C_5  and  O_6
REMARK    4  A    between atoms: O_6  and  C_7
REMARK    5  A    between atoms: C_16  and  C_17
REMARK    6  A    between atoms: C_22  and  O_23
REMARK    7  A    between atoms: O_23  and  C_24
REMARK                            x       y       z     vdW  Elec       q    Type
REMARK                         _______ _______ _______ _____ _____    ______ ____
ROOT
ATOM      1  C   UNL     1      -7.400   1.654 128.790  0.00  0.00    +0.000 A 
ATOM      2  C   UNL     1      -6.213   2.014 129.457  0.00  0.00    +0.000 A 
ATOM      3  C   UNL     1      -5.004   2.241 128.766  0.00  0.00    +0.000 A 
ATOM      4  C   UNL     1      -4.986   2.114 127.368  0.00  0.00    +0.000 A 
ATOM      5 CL   UNL     1      -3.553   2.417 126.449  0.00  0.00    +0.000 Cl
ATOM      6  C   UNL     1      -6.159   1.752 126.713  0.00  0.00    +0.000 A 
ATOM      7  C   UNL     1      -7.340   1.528 127.413  0.00  0.00    +0.000 A 
ATOM      8  C   UNL     1      -8.323   1.261 126.383  0.00  0.00    +0.000 C 
ATOM      9  O   UNL     1      -9.526   1.115 126.520  0.00  0.00    +0.000 OA
ATOM     10  C   UNL     1      -7.613   1.258 125.051  0.00  0.00    +0.000 C 
ATOM     11  O   UNL     1      -6.246   1.625 125.342  0.00  0.00    +0.000 OA
ATOM     12  C   UNL     1      -8.231   2.308 124.098  0.00  0.00    +0.000 C 
ATOM     13  C   UNL     1      -8.341   3.709 124.719  0.00  0.00    +0.000 C 
ATOM     14  C   UNL     1      -9.612   1.875 123.592  0.00  0.00    +0.000 C 
ATOM     15  C   UNL     1      -9.636   0.453 123.092  0.00  0.00    +0.000 C 
ATOM     16  O   UNL     1     -10.510   0.047 122.329  0.00  0.00    +0.000 OA
ATOM     17  C   UNL     1      -8.620  -0.503 123.576  0.00  0.00    +0.000 C 
ATOM     18  C   UNL     1      -7.693  -0.161 124.488  0.00  0.00    +0.000 C 
ENDROOT
BRANCH   1  20
ATOM     19  C   UNL     1      -9.204   2.798 129.844  0.00  0.00    +0.000 C 
ATOM     20  O   UNL     1      -8.500   1.588 129.593  0.00  0.00    +0.000 OA
ENDBRANCH   1  20
BRANCH   3  21
ATOM     21  O   UNL     1      -3.825   2.596 129.372  0.00  0.00    +0.000 OA
ATOM     22  C   UNL     1      -3.675   3.948 129.789  0.00  0.00    +0.000 C 
ENDBRANCH   3  21
BRANCH  18  23
ATOM     23  O   UNL     1      -6.756  -1.043 125.011  0.00  0.00    +0.000 OA
ATOM     24  C   UNL     1      -7.246  -2.282 125.520  0.00  0.00    +0.000 C 
ENDBRANCH  18  23
TORSDOF 3
ENDMDL
