MODEL 1
REMARK VINA RESULT:      -4.8      0.000      0.000
REMARK  Name = Guaiacol
REMARK  3 active torsions:
REMARK  status: ('A' for Active; 'I' for Inactive)
REMARK    1  A    between atoms: C_1  and  O_2
REMARK    2  A    between atoms: O_2  and  C_3
REMARK    3  A    between atoms: C_4  and  O_5
REMARK                            x       y       z     vdW  Elec       q    Type
REMARK                         _______ _______ _______ _____ _____    ______ ____
ROOT
ATOM      1  C   UNL     1     -10.834   7.938 128.734  0.00  0.00    +0.000 A 
ATOM      2  C   UNL     1     -11.001   7.238 127.533  0.00  0.00    +0.000 A 
ATOM      3  C   UNL     1     -12.246   7.126 126.924  0.00  0.00    +0.000 A 
ATOM      4  C   UNL     1     -13.354   7.728 127.519  0.00  0.00    +0.000 A 
ATOM      5  C   UNL     1     -13.204   8.437 128.710  0.00  0.00    +0.000 A 
ATOM      6  C   UNL     1     -11.948   8.544 129.317  0.00  0.00    +0.000 A 
ENDROOT
BRANCH   1   8
ATOM      7  C   UNL     1      -9.312   7.117 130.357  0.00  0.00    +0.000 C 
ATOM      8  O   UNL     1      -9.556   7.962 129.236  0.00  0.00    +0.000 OA
ENDBRANCH   1   8
BRANCH   2   9
ATOM      9  O   UNL     1      -9.934   6.639 126.918  0.00  0.00    +0.000 OA
ATOM     10  H   UNL     1      -9.147   7.100 127.264  0.00  0.00    +0.000 HD
ENDBRANCH   2   9
TORSDOF 2
ENDMDL
MODEL 2
REMARK VINA RESULT:      -4.8      1.953      2.975
REMARK  Name = Guaiacol
REMARK  3 active torsions:
REMARK  status: ('A' for Active; 'I' for Inactive)
REMARK    1  A    between atoms: C_1  and  O_2
REMARK    2  A    between atoms: O_2  and  C_3
REMARK    3  A    between atoms: C_4  and  O_5
REMARK                            x       y       z     vdW  Elec       q    Type
REMARK                         _______ _______ _______ _____ _____    ______ ____
ROOT
ATOM      1  C   UNL     1     -12.072   7.320 128.493  0.00  0.00    +0.000 A 
ATOM      2  C   UNL     1     -12.136   6.492 129.620  0.00  0.00    +0.000 A 
ATOM      3  C   UNL     1     -12.545   6.978 130.857  0.00  0.00    +0.000 A 
ATOM      4  C   UNL     1     -12.903   8.320 130.979  0.00  0.00    +0.000 A 
ATOM      5  C   UNL     1     -12.854   9.157 129.866  0.00  0.00    +0.000 A 
ATOM      6  C   UNL     1     -12.441   8.661 128.624  0.00  0.00    +0.000 A 
ENDROOT
BRANCH   1   8
ATOM      7  C   UNL     1     -10.985   7.570 126.400  0.00  0.00    +0.000 C 
ATOM      8  O   UNL     1     -11.642   6.720 127.335  0.00  0.00    +0.000 OA
ENDBRANCH   1   8
BRANCH   2   9
ATOM      9  O   UNL     1     -11.797   5.168 129.535  0.00  0.00    +0.000 OA
ATOM     10  H   UNL     1     -11.414   4.945 130.404  0.00  0.00    +0.000 HD
ENDBRANCH   2   9
TORSDOF 2
ENDMDL
MODEL 3
REMARK VINA RESULT:      -4.7      2.086      2.340
REMARK  Name = Guaiacol
REMARK  3 active torsions:
REMARK  status: ('A' for Active; 'I' for Inactive)
REMARK    1  A    between atoms: C_1  and  O_2
REMARK    2  A    between atoms: O_2  and  C_3
REMARK    3  A    between atoms: C_4  and  O_5
REMARK                            x       y       z     vdW  Elec       q    Type
REMARK                         _______ _______ _______ _____ _____    ______ ____
ROOT
ATOM      1  C   UNL     1     -12.267   6.580 129.527  0.00  0.00    +0.000 A 
ATOM      2  C   UNL     1     -12.172   7.259 128.306  0.00  0.00    +0.000 A 
ATOM      3  C   UNL     1     -12.452   8.618 128.207  0.00  0.00    +0.000 A 
ATOM      4  C   UNL     1     -12.833   9.322 129.349  0.00  0.00    +0.000 A 
ATOM      5  C   UNL     1     -12.924   8.663 130.574  0.00  0.00    +0.000 A 
ATOM      6  C   UNL     1     -12.642   7.296 130.666  0.00  0.00    +0.000 A 
ENDROOT
BRANCH   1   8
ATOM      7  C   UNL     1     -11.016   4.781 130.435  0.00  0.00    +0.000 C 
ATOM      8  O   UNL     1     -11.976   5.239 129.486  0.00  0.00    +0.000 OA
ENDBRANCH   1   8
BRANCH   2   9
ATOM      9  O   UNL     1     -11.796   6.601 127.166  0.00  0.00    +0.000 OA
ATOM     10  H   UNL     1     -11.171   7.201 126.718  0.00  0.00    +0.000 HD
ENDBRANCH   2   9
TORSDOF 2
ENDMDL
MODEL 4
REMARK VINA RESULT:      -4.6      2.153      3.428
REMARK  Name = Guaiacol
REMARK  3 active torsions:
REMARK  status: ('A' for Active; 'I' for Inactive)
REMARK    1  A    between atoms: C_1  and  O_2
REMARK    2  A    between atoms: O_2  and  C_3
REMARK    3  A    between atoms: C_4  and  O_5
REMARK                            x       y       z     vdW  Elec       q    Type
REMARK                         _______ _______ _______ _____ _____    ______ ____
ROOT
ATOM      1  C   UNL     1     -12.443   8.529 129.743  0.00  0.00    +0.000 A 
ATOM      2  C   UNL     1     -11.193   8.216 129.196  0.00  0.00    +0.000 A 
ATOM      3  C   UNL     1     -10.375   7.243 129.761  0.00  0.00    +0.000 A 
ATOM      4  C   UNL     1     -10.809   6.562 130.898  0.00  0.00    +0.000 A 
ATOM      5  C   UNL     1     -12.055   6.855 131.451  0.00  0.00    +0.000 A 
ATOM      6  C   UNL     1     -12.872   7.835 130.877  0.00  0.00    +0.000 A 
ENDROOT
BRANCH   1   8
ATOM      7  C   UNL     1     -13.416  10.689 129.859  0.00  0.00    +0.000 C 
ATOM      8  O   UNL     1     -13.146   9.516 129.097  0.00  0.00    +0.000 OA
ENDBRANCH   1   8
BRANCH   2   9
ATOM      9  O   UNL     1     -10.738   8.861 128.077  0.00  0.00    +0.000 OA
ATOM     10  H   UNL     1     -11.501   8.892 127.470  0.00  0.00    +0.000 HD
ENDBRANCH   2   9
TORSDOF 2
ENDMDL
MODEL 5
REMARK VINA RESULT:      -4.6      2.190      3.041
REMARK  Name = Guaiacol
REMARK  3 active torsions:
REMARK  status: ('A' for Active; 'I' for Inactive)
REMARK    1  A    between atoms: C_1  and  O_2
REMARK    2  A    between atoms: O_2  and  C_3
REMARK    3  A    between atoms: C_4  and  O_5
REMARK                            x       y       z     vdW  Elec       q    Type
REMARK                         _______ _______ _______ _____ _____    ______ ____
ROOT
ATOM      1  C   UNL     1     -11.414   6.467 129.565  0.00  0.00    +0.000 A 
ATOM      2  C   UNL     1     -12.106   6.885 130.707  0.00  0.00    +0.000 A 
ATOM      3  C   UNL     1     -12.755   8.114 130.755  0.00  0.00    +0.000 A 
ATOM      4  C   UNL     1     -12.720   8.949 129.638  0.00  0.00    +0.000 A 
ATOM      5  C   UNL     1     -12.043   8.545 128.489  0.00  0.00    +0.000 A 
ATOM      6  C   UNL     1     -11.391   7.307 128.449  0.00  0.00    +0.000 A 
ENDROOT
BRANCH   1   8
ATOM      7  C   UNL     1      -9.384   5.252 129.734  0.00  0.00    +0.000 C 
ATOM      8  O   UNL     1     -10.806   5.239 129.652  0.00  0.00    +0.000 OA
ENDBRANCH   1   8
BRANCH   2   9
ATOM      9  O   UNL     1     -12.166   6.089 131.820  0.00  0.00    +0.000 OA
ATOM     10  H   UNL     1     -12.994   6.340 132.270  0.00  0.00    +0.000 HD
ENDBRANCH   2   9
TORSDOF 2
ENDMDL
MODEL 6
REMARK VINA RESULT:      -4.6      1.978      3.274
REMARK  Name = Guaiacol
REMARK  3 active torsions:
REMARK  status: ('A' for Active; 'I' for Inactive)
REMARK    1  A    between atoms: C_1  and  O_2
REMARK    2  A    between atoms: O_2  and  C_3
REMARK    3  A    between atoms: C_4  and  O_5
REMARK                            x       y       z     vdW  Elec       q    Type
REMARK                         _______ _______ _______ _____ _____    ______ ____
ROOT
ATOM      1  C   UNL     1     -11.194   8.079 129.053  0.00  0.00    +0.000 A 
ATOM      2  C   UNL     1     -12.340   8.765 129.474  0.00  0.00    +0.000 A 
ATOM      3  C   UNL     1     -13.030   8.393 130.622  0.00  0.00    +0.000 A 
ATOM      4  C   UNL     1     -12.569   7.313 131.376  0.00  0.00    +0.000 A 
ATOM      5  C   UNL     1     -11.425   6.625 130.977  0.00  0.00    +0.000 A 
ATOM      6  C   UNL     1     -10.737   7.005 129.819  0.00  0.00    +0.000 A 
ENDROOT
BRANCH   1   8
ATOM      7  C   UNL     1     -10.849   7.759 126.729  0.00  0.00    +0.000 C 
ATOM      8  O   UNL     1     -10.614   8.540 127.897  0.00  0.00    +0.000 OA
ENDBRANCH   1   8
BRANCH   2   9
ATOM      9  O   UNL     1     -12.817   9.833 128.761  0.00  0.00    +0.000 OA
ATOM     10  H   UNL     1     -13.466   9.456 128.138  0.00  0.00    +0.000 HD
ENDBRANCH   2   9
TORSDOF 2
ENDMDL
MODEL 7
REMARK VINA RESULT:      -4.4     10.673     11.951
REMARK  Name = Guaiacol
REMARK  3 active torsions:
REMARK  status: ('A' for Active; 'I' for Inactive)
REMARK    1  A    between atoms: C_1  and  O_2
REMARK    2  A    between atoms: O_2  and  C_3
REMARK    3  A    between atoms: C_4  and  O_5
REMARK                            x       y       z     vdW  Elec       q    Type
REMARK                         _______ _______ _______ _____ _____    ______ ____
ROOT
ATOM      1  C   UNL     1      -8.297  -1.822 123.087  0.00  0.00    +0.000 A 
ATOM      2  C   UNL     1      -8.630  -2.926 123.880  0.00  0.00    +0.000 A 
ATOM      3  C   UNL     1      -7.652  -3.752 124.424  0.00  0.00    +0.000 A 
ATOM      4  C   UNL     1      -6.308  -3.474 124.176  0.00  0.00    +0.000 A 
ATOM      5  C   UNL     1      -5.958  -2.373 123.396  0.00  0.00    +0.000 A 
ATOM      6  C   UNL     1      -6.948  -1.548 122.852  0.00  0.00    +0.000 A 
ENDROOT
BRANCH   1   8
ATOM      7  C   UNL     1      -9.474   0.237 123.091  0.00  0.00    +0.000 C 
ATOM      8  O   UNL     1      -9.357  -1.096 122.602  0.00  0.00    +0.000 OA
ENDBRANCH   1   8
BRANCH   2   9
ATOM      9  O   UNL     1      -9.939  -3.226 124.149  0.00  0.00    +0.000 OA
ATOM     10  H   UNL     1     -10.433  -2.951 123.354  0.00  0.00    +0.000 HD
ENDBRANCH   2   9
TORSDOF 2
ENDMDL
MODEL 8
REMARK VINA RESULT:      -4.4     11.669     12.125
REMARK  Name = Guaiacol
REMARK  3 active torsions:
REMARK  status: ('A' for Active; 'I' for Inactive)
REMARK    1  A    between atoms: C_1  and  O_2
REMARK    2  A    between atoms: O_2  and  C_3
REMARK    3  A    between atoms: C_4  and  O_5
REMARK                            x       y       z     vdW  Elec       q    Type
REMARK                         _______ _______ _______ _____ _____    ______ ____
ROOT
ATOM      1  C   UNL     1      -7.841  -3.308 124.635  0.00  0.00    +0.000 A 
ATOM      2  C   UNL     1      -8.642  -2.858 123.579  0.00  0.00    +0.000 A 
ATOM      3  C   UNL     1      -8.113  -2.117 122.529  0.00  0.00    +0.000 A 
ATOM      4  C   UNL     1      -6.751  -1.816 122.523  0.00  0.00    +0.000 A 
ATOM      5  C   UNL     1      -5.936  -2.264 123.562  0.00  0.00    +0.000 A 
ATOM      6  C   UNL     1      -6.477  -3.009 124.616  0.00  0.00    +0.000 A 
ENDROOT
BRANCH   1   8
ATOM      7  C   UNL     1      -8.680  -3.343 126.853  0.00  0.00    +0.000 C 
ATOM      8  O   UNL     1      -8.489  -4.020 125.614  0.00  0.00    +0.000 OA
ENDBRANCH   1   8
BRANCH   2   9
ATOM      9  O   UNL     1      -9.982  -3.140 123.548  0.00  0.00    +0.000 OA
ATOM     10  H   UNL     1     -10.397  -2.367 123.122  0.00  0.00    +0.000 HD
ENDBRANCH   2   9
TORSDOF 2
ENDMDL
MODEL 9
REMARK VINA RESULT:      -4.4      1.676      2.153
REMARK  Name = Guaiacol
REMARK  3 active torsions:
REMARK  status: ('A' for Active; 'I' for Inactive)
REMARK    1  A    between atoms: C_1  and  O_2
REMARK    2  A    between atoms: O_2  and  C_3
REMARK    3  A    between atoms: C_4  and  O_5
REMARK                            x       y       z     vdW  Elec       q    Type
REMARK                         _______ _______ _______ _____ _____    ______ ____
ROOT
ATOM      1  C   UNL     1     -11.340   6.732 129.873  0.00  0.00    +0.000 A 
ATOM      2  C   UNL     1     -10.517   7.668 129.235  0.00  0.00    +0.000 A 
ATOM      3  C   UNL     1     -11.013   8.525 128.258  0.00  0.00    +0.000 A 
ATOM      4  C   UNL     1     -12.360   8.455 127.907  0.00  0.00    +0.000 A 
ATOM      5  C   UNL     1     -13.196   7.535 128.539  0.00  0.00    +0.000 A 
ATOM      6  C   UNL     1     -12.690   6.675 129.520  0.00  0.00    +0.000 A 
ENDROOT
BRANCH   1   8
ATOM      7  C   UNL     1     -10.982   6.269 132.171  0.00  0.00    +0.000 C 
ATOM      8  O   UNL     1     -10.725   5.938 130.809  0.00  0.00    +0.000 OA
ENDBRANCH   1   8
BRANCH   2   9
ATOM      9  O   UNL     1      -9.191   7.769 129.559  0.00  0.00    +0.000 OA
ATOM     10  H   UNL     1      -9.175   8.015 130.503  0.00  0.00    +0.000 HD
ENDBRANCH   2   9
TORSDOF 2
ENDMDL
