MODEL 1
REMARK VINA RESULT:      -5.6      0.000      0.000
REMARK  Name = Guaifenesin
REMARK  8 active torsions:
REMARK  status: ('A' for Active; 'I' for Inactive)
REMARK    1  A    between atoms: C_1  and  O_2
REMARK    2  A    between atoms: O_2  and  C_3
REMARK    3  A    between atoms: C_8  and  O_9
REMARK    4  A    between atoms: O_9  and  C_10
REMARK    5  A    between atoms: C_10  and  C_11
REMARK    6  A    between atoms: C_11  and  O_12
REMARK    7  A    between atoms: C_11  and  C_13
REMARK    8  A    between atoms: C_13  and  O_14
REMARK                            x       y       z     vdW  Elec       q    Type
REMARK                         _______ _______ _______ _____ _____    ______ ____
ROOT
ATOM      1  C   UNL     1     -12.339   7.153 128.229  0.00  0.00    +0.000 A 
ATOM      2  C   UNL     1     -12.684   8.520 128.359  0.00  0.00    +0.000 A 
ATOM      3  C   UNL     1     -12.901   9.100 129.615  0.00  0.00    +0.000 A 
ATOM      4  C   UNL     1     -12.831   8.328 130.759  0.00  0.00    +0.000 A 
ATOM      5  C   UNL     1     -12.484   6.975 130.657  0.00  0.00    +0.000 A 
ATOM      6  C   UNL     1     -12.197   6.384 129.412  0.00  0.00    +0.000 A 
ENDROOT
BRANCH   1   8
ATOM      7  C   UNL     1     -10.914   7.586 126.307  0.00  0.00    +0.000 C 
ATOM      8  O   UNL     1     -11.947   6.831 126.944  0.00  0.00    +0.000 OA
ENDBRANCH   1   8
BRANCH   6   9
ATOM      9  O   UNL     1     -11.737   5.079 129.597  0.00  0.00    +0.000 OA
BRANCH   9  10
ATOM     10  C   UNL     1     -10.659   5.032 130.497  0.00  0.00    +0.000 C 
BRANCH  10  11
ATOM     11  C   UNL     1      -9.225   5.299 130.049  0.00  0.00    +0.000 C 
BRANCH  11  12
ATOM     12  O   UNL     1      -9.193   5.420 128.620  0.00  0.00    +0.000 OA
ATOM     13  H   UNL     1      -9.778   6.159 128.371  0.00  0.00    +0.000 HD
ENDBRANCH  11  12
BRANCH  11  14
ATOM     14  C   UNL     1      -8.747   6.645 130.666  0.00  0.00    +0.000 C 
BRANCH  14  15
ATOM     15  O   UNL     1      -9.039   7.748 129.818  0.00  0.00    +0.000 OA
ATOM     16  H   UNL     1      -8.634   8.536 130.219  0.00  0.00    +0.000 HD
ENDBRANCH  14  15
ENDBRANCH  11  14
ENDBRANCH  10  11
ENDBRANCH   9  10
ENDBRANCH   6   9
TORSDOF 7
ENDMDL
MODEL 2
REMARK VINA RESULT:      -5.5      2.199      3.091
REMARK  Name = Guaifenesin
REMARK  8 active torsions:
REMARK  status: ('A' for Active; 'I' for Inactive)
REMARK    1  A    between atoms: C_1  and  O_2
REMARK    2  A    between atoms: O_2  and  C_3
REMARK    3  A    between atoms: C_8  and  O_9
REMARK    4  A    between atoms: O_9  and  C_10
REMARK    5  A    between atoms: C_10  and  C_11
REMARK    6  A    between atoms: C_11  and  O_12
REMARK    7  A    between atoms: C_11  and  C_13
REMARK    8  A    between atoms: C_13  and  O_14
REMARK                            x       y       z     vdW  Elec       q    Type
REMARK                         _______ _______ _______ _____ _____    ______ ____
ROOT
ATOM      1  C   UNL     1     -12.996   9.047 129.931  0.00  0.00    +0.000 A 
ATOM      2  C   UNL     1     -13.388   9.237 128.584  0.00  0.00    +0.000 A 
ATOM      3  C   UNL     1     -13.522   8.154 127.706  0.00  0.00    +0.000 A 
ATOM      4  C   UNL     1     -13.223   6.874 128.130  0.00  0.00    +0.000 A 
ATOM      5  C   UNL     1     -12.840   6.659 129.460  0.00  0.00    +0.000 A 
ATOM      6  C   UNL     1     -12.761   7.723 130.380  0.00  0.00    +0.000 A 
ENDROOT
BRANCH   1   8
ATOM      7  C   UNL     1     -13.620  11.394 130.071  0.00  0.00    +0.000 C 
ATOM      8  O   UNL     1     -13.141  10.195 130.686  0.00  0.00    +0.000 OA
ENDBRANCH   1   8
BRANCH   6   9
ATOM      9  O   UNL     1     -12.507   7.228 131.660  0.00  0.00    +0.000 OA
BRANCH   9  10
ATOM     10  C   UNL     1     -11.599   6.155 131.631  0.00  0.00    +0.000 C 
BRANCH  10  11
ATOM     11  C   UNL     1     -10.337   6.146 132.487  0.00  0.00    +0.000 C 
BRANCH  11  12
ATOM     12  O   UNL     1     -10.206   4.866 133.121  0.00  0.00    +0.000 OA
ATOM     13  H   UNL     1     -10.489   4.964 134.049  0.00  0.00    +0.000 HD
ENDBRANCH  11  12
BRANCH  11  14
ATOM     14  C   UNL     1      -9.102   6.366 131.565  0.00  0.00    +0.000 C 
BRANCH  14  15
ATOM     15  O   UNL     1      -9.399   7.245 130.486  0.00  0.00    +0.000 OA
ATOM     16  H   UNL     1      -9.853   6.721 129.803  0.00  0.00    +0.000 HD
ENDBRANCH  14  15
ENDBRANCH  11  14
ENDBRANCH  10  11
ENDBRANCH   9  10
ENDBRANCH   6   9
TORSDOF 7
ENDMDL
MODEL 3
REMARK VINA RESULT:      -5.5      1.444      3.936
REMARK  Name = Guaifenesin
REMARK  8 active torsions:
REMARK  status: ('A' for Active; 'I' for Inactive)
REMARK    1  A    between atoms: C_1  and  O_2
REMARK    2  A    between atoms: O_2  and  C_3
REMARK    3  A    between atoms: C_8  and  O_9
REMARK    4  A    between atoms: O_9  and  C_10
REMARK    5  A    between atoms: C_10  and  C_11
REMARK    6  A    between atoms: C_11  and  O_12
REMARK    7  A    between atoms: C_11  and  C_13
REMARK    8  A    between atoms: C_13  and  O_14
REMARK                            x       y       z     vdW  Elec       q    Type
REMARK                         _______ _______ _______ _____ _____    ______ ____
ROOT
ATOM      1  C   UNL     1      -9.747   5.912 129.628  0.00  0.00    +0.000 A 
ATOM      2  C   UNL     1      -8.835   5.976 130.710  0.00  0.00    +0.000 A 
ATOM      3  C   UNL     1      -9.282   6.119 132.030  0.00  0.00    +0.000 A 
ATOM      4  C   UNL     1     -10.631   6.253 132.297  0.00  0.00    +0.000 A 
ATOM      5  C   UNL     1     -11.553   6.185 131.245  0.00  0.00    +0.000 A 
ATOM      6  C   UNL     1     -11.134   5.976 129.916  0.00  0.00    +0.000 A 
ENDROOT
BRANCH   1   8
ATOM      7  C   UNL     1      -8.210   4.452 128.437  0.00  0.00    +0.000 C 
ATOM      8  O   UNL     1      -9.132   5.543 128.447  0.00  0.00    +0.000 OA
ENDBRANCH   1   8
BRANCH   6   9
ATOM      9  O   UNL     1     -12.243   5.800 129.088  0.00  0.00    +0.000 OA
BRANCH   9  10
ATOM     10  C   UNL     1     -12.963   6.996 128.924  0.00  0.00    +0.000 C 
BRANCH  10  11
ATOM     11  C   UNL     1     -12.753   7.901 127.713  0.00  0.00    +0.000 C 
BRANCH  11  12
ATOM     12  O   UNL     1     -11.605   8.730 127.938  0.00  0.00    +0.000 OA
ATOM     13  H   UNL     1     -11.201   8.921 127.072  0.00  0.00    +0.000 HD
ENDBRANCH  11  12
BRANCH  11  14
ATOM     14  C   UNL     1     -12.481   7.014 126.464  0.00  0.00    +0.000 C 
BRANCH  14  15
ATOM     15  O   UNL     1     -11.128   6.577 126.411  0.00  0.00    +0.000 OA
ATOM     16  H   UNL     1     -10.994   5.961 127.152  0.00  0.00    +0.000 HD
ENDBRANCH  14  15
ENDBRANCH  11  14
ENDBRANCH  10  11
ENDBRANCH   9  10
ENDBRANCH   6   9
TORSDOF 7
ENDMDL
MODEL 4
REMARK VINA RESULT:      -5.3      1.044      1.528
REMARK  Name = Guaifenesin
REMARK  8 active torsions:
REMARK  status: ('A' for Active; 'I' for Inactive)
REMARK    1  A    between atoms: C_1  and  O_2
REMARK    2  A    between atoms: O_2  and  C_3
REMARK    3  A    between atoms: C_8  and  O_9
REMARK    4  A    between atoms: O_9  and  C_10
REMARK    5  A    between atoms: C_10  and  C_11
REMARK    6  A    between atoms: C_11  and  O_12
REMARK    7  A    between atoms: C_11  and  C_13
REMARK    8  A    between atoms: C_13  and  O_14
REMARK                            x       y       z     vdW  Elec       q    Type
REMARK                         _______ _______ _______ _____ _____    ______ ____
ROOT
ATOM      1  C   UNL     1     -12.361   7.406 128.603  0.00  0.00    +0.000 A 
ATOM      2  C   UNL     1     -12.764   8.725 128.283  0.00  0.00    +0.000 A 
ATOM      3  C   UNL     1     -13.112   9.642 129.283  0.00  0.00    +0.000 A 
ATOM      4  C   UNL     1     -13.116   9.256 130.609  0.00  0.00    +0.000 A 
ATOM      5  C   UNL     1     -12.714   7.959 130.952  0.00  0.00    +0.000 A 
ATOM      6  C   UNL     1     -12.297   7.039 129.971  0.00  0.00    +0.000 A 
ENDROOT
BRANCH   1   8
ATOM      7  C   UNL     1     -11.153   7.463 126.493  0.00  0.00    +0.000 C 
ATOM      8  O   UNL     1     -11.845   6.735 127.510  0.00  0.00    +0.000 OA
ENDBRANCH   1   8
BRANCH   6   9
ATOM      9  O   UNL     1     -11.810   5.881 130.580  0.00  0.00    +0.000 OA
BRANCH   9  10
ATOM     10  C   UNL     1     -10.799   6.172 131.513  0.00  0.00    +0.000 C 
BRANCH  10  11
ATOM     11  C   UNL     1      -9.371   6.491 131.078  0.00  0.00    +0.000 C 
BRANCH  11  12
ATOM     12  O   UNL     1      -8.516   6.489 132.229  0.00  0.00    +0.000 OA
ATOM     13  H   UNL     1      -7.642   6.817 131.951  0.00  0.00    +0.000 HD
ENDBRANCH  11  12
BRANCH  11  14
ATOM     14  C   UNL     1      -8.884   5.382 130.101  0.00  0.00    +0.000 C 
BRANCH  14  15
ATOM     15  O   UNL     1      -9.317   5.624 128.768  0.00  0.00    +0.000 OA
ATOM     16  H   UNL     1      -9.465   6.582 128.682  0.00  0.00    +0.000 HD
ENDBRANCH  14  15
ENDBRANCH  11  14
ENDBRANCH  10  11
ENDBRANCH   9  10
ENDBRANCH   6   9
TORSDOF 7
ENDMDL
MODEL 5
REMARK VINA RESULT:      -5.3      1.639      3.307
REMARK  Name = Guaifenesin
REMARK  8 active torsions:
REMARK  status: ('A' for Active; 'I' for Inactive)
REMARK    1  A    between atoms: C_1  and  O_2
REMARK    2  A    between atoms: O_2  and  C_3
REMARK    3  A    between atoms: C_8  and  O_9
REMARK    4  A    between atoms: O_9  and  C_10
REMARK    5  A    between atoms: C_10  and  C_11
REMARK    6  A    between atoms: C_11  and  O_12
REMARK    7  A    between atoms: C_11  and  C_13
REMARK    8  A    between atoms: C_13  and  O_14
REMARK                            x       y       z     vdW  Elec       q    Type
REMARK                         _______ _______ _______ _____ _____    ______ ____
ROOT
ATOM      1  C   UNL     1     -12.131   7.134 129.309  0.00  0.00    +0.000 A 
ATOM      2  C   UNL     1     -13.117   6.941 128.312  0.00  0.00    +0.000 A 
ATOM      3  C   UNL     1     -12.808   7.061 126.951  0.00  0.00    +0.000 A 
ATOM      4  C   UNL     1     -11.534   7.424 126.556  0.00  0.00    +0.000 A 
ATOM      5  C   UNL     1     -10.539   7.613 127.524  0.00  0.00    +0.000 A 
ATOM      6  C   UNL     1     -10.808   7.434 128.895  0.00  0.00    +0.000 A 
ENDROOT
BRANCH   1   8
ATOM      7  C   UNL     1     -13.018   7.741 131.491  0.00  0.00    +0.000 C 
ATOM      8  O   UNL     1     -12.571   6.751 130.562  0.00  0.00    +0.000 OA
ENDBRANCH   1   8
BRANCH   6   9
ATOM      9  O   UNL     1      -9.626   7.534 129.630  0.00  0.00    +0.000 OA
BRANCH   9  10
ATOM     10  C   UNL     1      -9.095   6.269 129.933  0.00  0.00    +0.000 C 
BRANCH  10  11
ATOM     11  C   UNL     1      -9.100   5.713 131.354  0.00  0.00    +0.000 C 
BRANCH  11  12
ATOM     12  O   UNL     1      -9.920   6.548 132.183  0.00  0.00    +0.000 OA
ATOM     13  H   UNL     1     -10.373   7.189 131.605  0.00  0.00    +0.000 HD
ENDBRANCH  11  12
BRANCH  11  14
ATOM     14  C   UNL     1      -9.718   4.284 131.333  0.00  0.00    +0.000 C 
BRANCH  14  15
ATOM     15  O   UNL     1     -11.108   4.315 131.035  0.00  0.00    +0.000 OA
ATOM     16  H   UNL     1     -11.287   5.152 130.574  0.00  0.00    +0.000 HD
ENDBRANCH  14  15
ENDBRANCH  11  14
ENDBRANCH  10  11
ENDBRANCH   9  10
ENDBRANCH   6   9
TORSDOF 7
ENDMDL
MODEL 6
REMARK VINA RESULT:      -5.3      1.914      2.275
REMARK  Name = Guaifenesin
REMARK  8 active torsions:
REMARK  status: ('A' for Active; 'I' for Inactive)
REMARK    1  A    between atoms: C_1  and  O_2
REMARK    2  A    between atoms: O_2  and  C_3
REMARK    3  A    between atoms: C_8  and  O_9
REMARK    4  A    between atoms: O_9  and  C_10
REMARK    5  A    between atoms: C_10  and  C_11
REMARK    6  A    between atoms: C_11  and  O_12
REMARK    7  A    between atoms: C_11  and  C_13
REMARK    8  A    between atoms: C_13  and  O_14
REMARK                            x       y       z     vdW  Elec       q    Type
REMARK                         _______ _______ _______ _____ _____    ______ ____
ROOT
ATOM      1  C   UNL     1     -12.237   7.299 128.633  0.00  0.00    +0.000 A 
ATOM      2  C   UNL     1     -12.661   8.605 128.286  0.00  0.00    +0.000 A 
ATOM      3  C   UNL     1     -13.039   9.531 129.267  0.00  0.00    +0.000 A 
ATOM      4  C   UNL     1     -13.055   9.166 130.599  0.00  0.00    +0.000 A 
ATOM      5  C   UNL     1     -12.633   7.882 130.968  0.00  0.00    +0.000 A 
ATOM      6  C   UNL     1     -12.185   6.954 130.007  0.00  0.00    +0.000 A 
ENDROOT
BRANCH   1   8
ATOM      7  C   UNL     1     -10.683   7.247 126.763  0.00  0.00    +0.000 C 
ATOM      8  O   UNL     1     -11.694   6.622 127.557  0.00  0.00    +0.000 OA
ENDBRANCH   1   8
BRANCH   6   9
ATOM      9  O   UNL     1     -11.685   5.816 130.640  0.00  0.00    +0.000 OA
BRANCH   9  10
ATOM     10  C   UNL     1     -10.282   5.846 130.730  0.00  0.00    +0.000 C 
BRANCH  10  11
ATOM     11  C   UNL     1      -9.561   5.784 132.074  0.00  0.00    +0.000 C 
BRANCH  11  12
ATOM     12  O   UNL     1     -10.346   6.465 133.062  0.00  0.00    +0.000 OA
ATOM     13  H   UNL     1      -9.757   7.082 133.535  0.00  0.00    +0.000 HD
ENDBRANCH  11  12
BRANCH  11  14
ATOM     14  C   UNL     1      -9.421   4.293 132.499  0.00  0.00    +0.000 C 
BRANCH  14  15
ATOM     15  O   UNL     1      -9.860   4.083 133.836  0.00  0.00    +0.000 OA
ATOM     16  H   UNL     1      -9.636   3.166 134.073  0.00  0.00    +0.000 HD
ENDBRANCH  14  15
ENDBRANCH  11  14
ENDBRANCH  10  11
ENDBRANCH   9  10
ENDBRANCH   6   9
TORSDOF 7
ENDMDL
MODEL 7
REMARK VINA RESULT:      -5.1      7.981      9.950
REMARK  Name = Guaifenesin
REMARK  8 active torsions:
REMARK  status: ('A' for Active; 'I' for Inactive)
REMARK    1  A    between atoms: C_1  and  O_2
REMARK    2  A    between atoms: O_2  and  C_3
REMARK    3  A    between atoms: C_8  and  O_9
REMARK    4  A    between atoms: O_9  and  C_10
REMARK    5  A    between atoms: C_10  and  C_11
REMARK    6  A    between atoms: C_11  and  O_12
REMARK    7  A    between atoms: C_11  and  C_13
REMARK    8  A    between atoms: C_13  and  O_14
REMARK                            x       y       z     vdW  Elec       q    Type
REMARK                         _______ _______ _______ _____ _____    ______ ____
ROOT
ATOM      1  C   UNL     1      -9.008  -2.623 126.022  0.00  0.00    +0.000 A 
ATOM      2  C   UNL     1      -9.057  -3.643 127.003  0.00  0.00    +0.000 A 
ATOM      3  C   UNL     1      -8.467  -3.471 128.262  0.00  0.00    +0.000 A 
ATOM      4  C   UNL     1      -7.777  -2.310 128.553  0.00  0.00    +0.000 A 
ATOM      5  C   UNL     1      -7.721  -1.283 127.603  0.00  0.00    +0.000 A 
ATOM      6  C   UNL     1      -8.361  -1.405 126.354  0.00  0.00    +0.000 A 
ENDROOT
BRANCH   1   8
ATOM      7  C   UNL     1      -9.263  -3.149 123.661  0.00  0.00    +0.000 C 
ATOM      8  O   UNL     1      -9.833  -2.890 124.946  0.00  0.00    +0.000 OA
ENDBRANCH   1   8
BRANCH   6   9
ATOM      9  O   UNL     1      -8.282  -0.198 125.658  0.00  0.00    +0.000 OA
BRANCH   9  10
ATOM     10  C   UNL     1      -9.473   0.542 125.767  0.00  0.00    +0.000 C 
BRANCH  10  11
ATOM     11  C   UNL     1     -10.057   1.304 124.581  0.00  0.00    +0.000 C 
BRANCH  11  12
ATOM     12  O   UNL     1      -9.550   2.645 124.586  0.00  0.00    +0.000 OA
ATOM     13  H   UNL     1      -9.465   2.935 123.659  0.00  0.00    +0.000 HD
ENDBRANCH  11  12
BRANCH  11  14
ATOM     14  C   UNL     1      -9.600   0.612 123.264  0.00  0.00    +0.000 C 
BRANCH  14  15
ATOM     15  O   UNL     1     -10.708   0.210 122.467  0.00  0.00    +0.000 OA
ATOM     16  H   UNL     1     -11.144   1.019 122.150  0.00  0.00    +0.000 HD
ENDBRANCH  14  15
ENDBRANCH  11  14
ENDBRANCH  10  11
ENDBRANCH   9  10
ENDBRANCH   6   9
TORSDOF 7
ENDMDL
MODEL 8
REMARK VINA RESULT:      -5.1      8.776     10.745
REMARK  Name = Guaifenesin
REMARK  8 active torsions:
REMARK  status: ('A' for Active; 'I' for Inactive)
REMARK    1  A    between atoms: C_1  and  O_2
REMARK    2  A    between atoms: O_2  and  C_3
REMARK    3  A    between atoms: C_8  and  O_9
REMARK    4  A    between atoms: O_9  and  C_10
REMARK    5  A    between atoms: C_10  and  C_11
REMARK    6  A    between atoms: C_11  and  O_12
REMARK    7  A    between atoms: C_11  and  C_13
REMARK    8  A    between atoms: C_13  and  O_14
REMARK                            x       y       z     vdW  Elec       q    Type
REMARK                         _______ _______ _______ _____ _____    ______ ____
ROOT
ATOM      1  C   UNL     1      -8.372  -2.743 124.014  0.00  0.00    +0.000 A 
ATOM      2  C   UNL     1      -7.390  -3.704 124.356  0.00  0.00    +0.000 A 
ATOM      3  C   UNL     1      -6.050  -3.539 123.983  0.00  0.00    +0.000 A 
ATOM      4  C   UNL     1      -5.669  -2.450 123.223  0.00  0.00    +0.000 A 
ATOM      5  C   UNL     1      -6.621  -1.481 122.878  0.00  0.00    +0.000 A 
ATOM      6  C   UNL     1      -7.961  -1.590 123.297  0.00  0.00    +0.000 A 
ENDROOT
BRANCH   1   8
ATOM      7  C   UNL     1      -9.611  -3.015 126.089  0.00  0.00    +0.000 C 
ATOM      8  O   UNL     1      -9.573  -2.967 124.661  0.00  0.00    +0.000 OA
ENDBRANCH   1   8
BRANCH   6   9
ATOM      9  O   UNL     1      -8.664  -0.435 122.954  0.00  0.00    +0.000 OA
BRANCH   9  10
ATOM     10  C   UNL     1      -8.441   0.601 123.878  0.00  0.00    +0.000 C 
BRANCH  10  11
ATOM     11  C   UNL     1      -9.131   1.956 123.749  0.00  0.00    +0.000 C 
BRANCH  11  12
ATOM     12  O   UNL     1     -10.395   1.907 124.425  0.00  0.00    +0.000 OA
ATOM     13  H   UNL     1     -10.229   2.046 125.376  0.00  0.00    +0.000 HD
ENDBRANCH  11  12
BRANCH  11  14
ATOM     14  C   UNL     1      -8.248   3.038 124.436  0.00  0.00    +0.000 C 
BRANCH  14  15
ATOM     15  O   UNL     1      -9.031   3.972 125.169  0.00  0.00    +0.000 OA
ATOM     16  H   UNL     1      -8.504   4.784 125.258  0.00  0.00    +0.000 HD
ENDBRANCH  14  15
ENDBRANCH  11  14
ENDBRANCH  10  11
ENDBRANCH   9  10
ENDBRANCH   6   9
TORSDOF 7
ENDMDL
MODEL 9
REMARK VINA RESULT:      -5.1      1.551      2.278
REMARK  Name = Guaifenesin
REMARK  8 active torsions:
REMARK  status: ('A' for Active; 'I' for Inactive)
REMARK    1  A    between atoms: C_1  and  O_2
REMARK    2  A    between atoms: O_2  and  C_3
REMARK    3  A    between atoms: C_8  and  O_9
REMARK    4  A    between atoms: O_9  and  C_10
REMARK    5  A    between atoms: C_10  and  C_11
REMARK    6  A    between atoms: C_11  and  O_12
REMARK    7  A    between atoms: C_11  and  C_13
REMARK    8  A    between atoms: C_13  and  O_14
REMARK                            x       y       z     vdW  Elec       q    Type
REMARK                         _______ _______ _______ _____ _____    ______ ____
ROOT
ATOM      1  C   UNL     1     -11.042   7.752 129.168  0.00  0.00    +0.000 A 
ATOM      2  C   UNL     1     -12.323   8.111 129.652  0.00  0.00    +0.000 A 
ATOM      3  C   UNL     1     -12.780   7.667 130.900  0.00  0.00    +0.000 A 
ATOM      4  C   UNL     1     -12.000   6.822 131.665  0.00  0.00    +0.000 A 
ATOM      5  C   UNL     1     -10.725   6.459 131.211  0.00  0.00    +0.000 A 
ATOM      6  C   UNL     1     -10.217   6.945 129.991  0.00  0.00    +0.000 A 
ENDROOT
BRANCH   1   8
ATOM      7  C   UNL     1     -10.905   7.899 126.744  0.00  0.00    +0.000 C 
ATOM      8  O   UNL     1     -10.690   8.467 128.038  0.00  0.00    +0.000 OA
ENDBRANCH   1   8
BRANCH   6   9
ATOM      9  O   UNL     1      -8.884   6.560 129.843  0.00  0.00    +0.000 OA
BRANCH   9  10
ATOM     10  C   UNL     1      -8.618   5.346 130.500  0.00  0.00    +0.000 C 
BRANCH  10  11
ATOM     11  C   UNL     1      -8.457   4.035 129.736  0.00  0.00    +0.000 C 
BRANCH  11  12
ATOM     12  O   UNL     1      -9.753   3.476 129.481  0.00  0.00    +0.000 OA
ATOM     13  H   UNL     1     -10.411   4.186 129.594  0.00  0.00    +0.000 HD
ENDBRANCH  11  12
BRANCH  11  14
ATOM     14  C   UNL     1      -7.772   4.331 128.370  0.00  0.00    +0.000 C 
BRANCH  14  15
ATOM     15  O   UNL     1      -8.636   5.040 127.489  0.00  0.00    +0.000 OA
ATOM     16  H   UNL     1      -9.073   4.382 126.921  0.00  0.00    +0.000 HD
ENDBRANCH  14  15
ENDBRANCH  11  14
ENDBRANCH  10  11
ENDBRANCH   9  10
ENDBRANCH   6   9
TORSDOF 7
ENDMDL
