MODEL 1
REMARK VINA RESULT:      -5.8      0.000      0.000
REMARK  Name = Guanabenz
REMARK  2 active torsions:
REMARK  status: ('A' for Active; 'I' for Inactive)
REMARK    1  A    between atoms: N_4  and  N_5
REMARK    2  A    between atoms: C_6  and  C_7
REMARK                            x       y       z     vdW  Elec       q    Type
REMARK                         _______ _______ _______ _____ _____    ______ ____
ROOT
ATOM      1  N   UNL     1     -10.412   4.594 129.610  0.00  0.00    +0.000 NA
ATOM      2  C   UNL     1     -10.044   5.831 129.486  0.00  0.00    +0.000 C 
ENDROOT
BRANCH   1   6
ATOM      3  N   UNL     1      -8.521   1.931 130.948  0.00  0.00    +0.000 N 
ATOM      4  C   UNL     1      -9.459   2.854 130.666  0.00  0.00    +0.000 C 
ATOM      5  N   UNL     1     -10.535   2.758 131.473  0.00  0.00    +0.000 N 
ATOM      6  N   UNL     1      -9.316   3.724 129.706  0.00  0.00    +0.000 NA
ATOM      7  H   UNL     1      -8.633   1.240 131.672  0.00  0.00    +0.000 HD
ATOM      8  H   UNL     1      -7.690   1.907 130.376  0.00  0.00    +0.000 HD
ATOM      9  H   UNL     1     -10.613   2.126 132.250  0.00  0.00    +0.000 HD
ATOM     10  H   UNL     1     -11.233   3.480 131.336  0.00  0.00    +0.000 HD
ENDBRANCH   1   6
BRANCH   2  11
ATOM     11  C   UNL     1     -11.046   6.921 129.405  0.00  0.00    +0.000 A 
ATOM     12  C   UNL     1     -11.288   7.597 128.199  0.00  0.00    +0.000 A 
ATOM     13 CL   UNL     1     -10.544   7.166 126.697  0.00  0.00    +0.000 Cl
ATOM     14  C   UNL     1     -12.213   8.649 128.147  0.00  0.00    +0.000 A 
ATOM     15  C   UNL     1     -12.906   9.041 129.289  0.00  0.00    +0.000 A 
ATOM     16  C   UNL     1     -12.688   8.366 130.487  0.00  0.00    +0.000 A 
ATOM     17  C   UNL     1     -11.771   7.303 130.547  0.00  0.00    +0.000 A 
ATOM     18 CL   UNL     1     -11.566   6.539 132.085  0.00  0.00    +0.000 Cl
ENDBRANCH   2  11
TORSDOF 2
ENDMDL
MODEL 2
REMARK VINA RESULT:      -5.8      0.101      2.454
REMARK  Name = Guanabenz
REMARK  2 active torsions:
REMARK  status: ('A' for Active; 'I' for Inactive)
REMARK    1  A    between atoms: N_4  and  N_5
REMARK    2  A    between atoms: C_6  and  C_7
REMARK                            x       y       z     vdW  Elec       q    Type
REMARK                         _______ _______ _______ _____ _____    ______ ____
ROOT
ATOM      1  N   UNL     1     -10.428   4.520 129.640  0.00  0.00    +0.000 NA
ATOM      2  C   UNL     1     -10.032   5.746 129.494  0.00  0.00    +0.000 C 
ENDROOT
BRANCH   1   6
ATOM      3  N   UNL     1      -8.545   1.822 130.919  0.00  0.00    +0.000 N 
ATOM      4  C   UNL     1      -9.471   2.767 130.672  0.00  0.00    +0.000 C 
ATOM      5  N   UNL     1     -10.506   2.713 131.533  0.00  0.00    +0.000 N 
ATOM      6  N   UNL     1      -9.353   3.621 129.693  0.00  0.00    +0.000 NA
ATOM      7  H   UNL     1      -8.640   1.145 131.658  0.00  0.00    +0.000 HD
ATOM      8  H   UNL     1      -7.746   1.768 130.306  0.00  0.00    +0.000 HD
ATOM      9  H   UNL     1     -10.562   2.094 132.322  0.00  0.00    +0.000 HD
ATOM     10  H   UNL     1     -11.190   3.453 131.421  0.00  0.00    +0.000 HD
ENDBRANCH   1   6
BRANCH   2  11
ATOM     11  C   UNL     1     -11.006   6.863 129.451  0.00  0.00    +0.000 A 
ATOM     12  C   UNL     1     -11.718   7.250 130.598  0.00  0.00    +0.000 A 
ATOM     13 CL   UNL     1     -11.459   6.559 132.163  0.00  0.00    +0.000 Cl
ATOM     14  C   UNL     1     -12.662   8.286 130.531  0.00  0.00    +0.000 A 
ATOM     15  C   UNL     1     -12.909   8.945 129.331  0.00  0.00    +0.000 A 
ATOM     16  C   UNL     1     -12.196   8.581 128.192  0.00  0.00    +0.000 A 
ATOM     17  C   UNL     1     -11.240   7.552 128.249  0.00  0.00    +0.000 A 
ATOM     18 CL   UNL     1     -10.418   7.172 126.777  0.00  0.00    +0.000 Cl
ENDBRANCH   2  11
TORSDOF 2
ENDMDL
MODEL 3
REMARK VINA RESULT:      -5.4      8.102     10.403
REMARK  Name = Guanabenz
REMARK  2 active torsions:
REMARK  status: ('A' for Active; 'I' for Inactive)
REMARK    1  A    between atoms: N_4  and  N_5
REMARK    2  A    between atoms: C_6  and  C_7
REMARK                            x       y       z     vdW  Elec       q    Type
REMARK                         _______ _______ _______ _____ _____    ______ ____
ROOT
ATOM      1  N   UNL     1      -7.146   0.989 124.406  0.00  0.00    +0.000 NA
ATOM      2  C   UNL     1      -7.099   0.125 123.441  0.00  0.00    +0.000 C 
ENDROOT
BRANCH   1   6
ATOM      3  N   UNL     1      -6.957   4.499 124.095  0.00  0.00    +0.000 N 
ATOM      4  C   UNL     1      -7.315   3.229 124.360  0.00  0.00    +0.000 C 
ATOM      5  N   UNL     1      -8.511   3.149 124.976  0.00  0.00    +0.000 N 
ATOM      6  N   UNL     1      -6.561   2.212 124.050  0.00  0.00    +0.000 NA
ATOM      7  H   UNL     1      -7.522   5.291 124.353  0.00  0.00    +0.000 HD
ATOM      8  H   UNL     1      -6.060   4.659 123.660  0.00  0.00    +0.000 HD
ATOM      9  H   UNL     1      -9.116   3.931 125.156  0.00  0.00    +0.000 HD
ATOM     10  H   UNL     1      -8.846   2.205 125.129  0.00  0.00    +0.000 HD
ENDBRANCH   1   6
BRANCH   2  11
ATOM     11  C   UNL     1      -7.695  -1.224 123.593  0.00  0.00    +0.000 A 
ATOM     12  C   UNL     1      -9.008  -1.490 123.171  0.00  0.00    +0.000 A 
ATOM     13 CL   UNL     1     -10.000  -0.334 122.350  0.00  0.00    +0.000 Cl
ATOM     14  C   UNL     1      -9.569  -2.762 123.354  0.00  0.00    +0.000 A 
ATOM     15  C   UNL     1      -8.837  -3.780 123.956  0.00  0.00    +0.000 A 
ATOM     16  C   UNL     1      -7.528  -3.533 124.362  0.00  0.00    +0.000 A 
ATOM     17  C   UNL     1      -6.952  -2.265 124.174  0.00  0.00    +0.000 A 
ATOM     18 CL   UNL     1      -5.325  -2.061 124.722  0.00  0.00    +0.000 Cl
ENDBRANCH   2  11
TORSDOF 2
ENDMDL
MODEL 4
REMARK VINA RESULT:      -5.4      1.633      1.933
REMARK  Name = Guanabenz
REMARK  2 active torsions:
REMARK  status: ('A' for Active; 'I' for Inactive)
REMARK    1  A    between atoms: N_4  and  N_5
REMARK    2  A    between atoms: C_6  and  C_7
REMARK                            x       y       z     vdW  Elec       q    Type
REMARK                         _______ _______ _______ _____ _____    ______ ____
ROOT
ATOM      1  N   UNL     1      -9.240   5.394 128.717  0.00  0.00    +0.000 NA
ATOM      2  C   UNL     1      -9.280   6.379 129.558  0.00  0.00    +0.000 C 
ENDROOT
BRANCH   1   6
ATOM      3  N   UNL     1      -6.561   3.099 128.592  0.00  0.00    +0.000 N 
ATOM      4  C   UNL     1      -7.750   3.712 128.746  0.00  0.00    +0.000 C 
ATOM      5  N   UNL     1      -8.702   2.880 129.211  0.00  0.00    +0.000 N 
ATOM      6  N   UNL     1      -7.927   4.971 128.460  0.00  0.00    +0.000 NA
ATOM      7  H   UNL     1      -6.421   2.121 128.788  0.00  0.00    +0.000 HD
ATOM      8  H   UNL     1      -5.793   3.637 128.221  0.00  0.00    +0.000 HD
ATOM      9  H   UNL     1      -8.545   1.927 129.488  0.00  0.00    +0.000 HD
ATOM     10  H   UNL     1      -9.593   3.322 129.405  0.00  0.00    +0.000 HD
ENDBRANCH   1   6
BRANCH   2  11
ATOM     11  C   UNL     1     -10.574   6.957 129.996  0.00  0.00    +0.000 A 
ATOM     12  C   UNL     1     -11.249   7.905 129.212  0.00  0.00    +0.000 A 
ATOM     13 CL   UNL     1     -10.714   8.402 127.642  0.00  0.00    +0.000 Cl
ATOM     14  C   UNL     1     -12.454   8.468 129.657  0.00  0.00    +0.000 A 
ATOM     15  C   UNL     1     -12.999   8.097 130.882  0.00  0.00    +0.000 A 
ATOM     16  C   UNL     1     -12.347   7.144 131.661  0.00  0.00    +0.000 A 
ATOM     17  C   UNL     1     -11.145   6.566 131.219  0.00  0.00    +0.000 A 
ATOM     18 CL   UNL     1     -10.411   5.401 132.265  0.00  0.00    +0.000 Cl
ENDBRANCH   2  11
TORSDOF 2
ENDMDL
MODEL 5
REMARK VINA RESULT:      -5.3      7.841      9.787
REMARK  Name = Guanabenz
REMARK  2 active torsions:
REMARK  status: ('A' for Active; 'I' for Inactive)
REMARK    1  A    between atoms: N_4  and  N_5
REMARK    2  A    between atoms: C_6  and  C_7
REMARK                            x       y       z     vdW  Elec       q    Type
REMARK                         _______ _______ _______ _____ _____    ______ ____
ROOT
ATOM      1  N   UNL     1      -8.659   0.262 125.306  0.00  0.00    +0.000 NA
ATOM      2  C   UNL     1      -7.789  -0.647 125.618  0.00  0.00    +0.000 C 
ENDROOT
BRANCH   1   6
ATOM      3  N   UNL     1      -9.004   2.559 122.649  0.00  0.00    +0.000 N 
ATOM      4  C   UNL     1      -9.197   1.729 123.691  0.00  0.00    +0.000 C 
ATOM      5  N   UNL     1     -10.488   1.669 124.070  0.00  0.00    +0.000 N 
ATOM      6  N   UNL     1      -8.218   1.076 124.253  0.00  0.00    +0.000 NA
ATOM      7  H   UNL     1      -9.750   3.085 122.224  0.00  0.00    +0.000 HD
ATOM      8  H   UNL     1      -8.062   2.690 122.313  0.00  0.00    +0.000 HD
ATOM      9  H   UNL     1     -11.247   2.125 123.594  0.00  0.00    +0.000 HD
ATOM     10  H   UNL     1     -10.683   1.002 124.808  0.00  0.00    +0.000 HD
ENDBRANCH   1   6
BRANCH   2  11
ATOM     11  C   UNL     1      -8.070  -1.641 126.683  0.00  0.00    +0.000 A 
ATOM     12  C   UNL     1      -7.671  -1.414 128.010  0.00  0.00    +0.000 A 
ATOM     13 CL   UNL     1      -6.932   0.055 128.548  0.00  0.00    +0.000 Cl
ATOM     14  C   UNL     1      -7.913  -2.379 128.998  0.00  0.00    +0.000 A 
ATOM     15  C   UNL     1      -8.550  -3.575 128.681  0.00  0.00    +0.000 A 
ATOM     16  C   UNL     1      -8.965  -3.803 127.372  0.00  0.00    +0.000 A 
ATOM     17  C   UNL     1      -8.737  -2.838 126.376  0.00  0.00    +0.000 A 
ATOM     18 CL   UNL     1      -9.283  -3.223 124.781  0.00  0.00    +0.000 Cl
ENDBRANCH   2  11
TORSDOF 2
ENDMDL
MODEL 6
REMARK VINA RESULT:      -5.3      2.703      5.536
REMARK  Name = Guanabenz
REMARK  2 active torsions:
REMARK  status: ('A' for Active; 'I' for Inactive)
REMARK    1  A    between atoms: N_4  and  N_5
REMARK    2  A    between atoms: C_6  and  C_7
REMARK                            x       y       z     vdW  Elec       q    Type
REMARK                         _______ _______ _______ _____ _____    ______ ____
ROOT
ATOM      1  N   UNL     1     -10.225   5.510 129.280  0.00  0.00    +0.000 NA
ATOM      2  C   UNL     1      -9.108   5.057 129.758  0.00  0.00    +0.000 C 
ENDROOT
BRANCH   1   6
ATOM      3  N   UNL     1     -10.617   8.735 127.899  0.00  0.00    +0.000 N 
ATOM      4  C   UNL     1     -10.658   7.627 128.664  0.00  0.00    +0.000 C 
ATOM      5  N   UNL     1     -11.410   7.793 129.770  0.00  0.00    +0.000 N 
ATOM      6  N   UNL     1     -10.022   6.535 128.344  0.00  0.00    +0.000 NA
ATOM      7  H   UNL     1     -11.085   9.589 128.150  0.00  0.00    +0.000 HD
ATOM      8  H   UNL     1     -10.053   8.714 127.062  0.00  0.00    +0.000 HD
ATOM      9  H   UNL     1     -11.948   8.615 129.979  0.00  0.00    +0.000 HD
ATOM     10  H   UNL     1     -11.521   6.959 130.335  0.00  0.00    +0.000 HD
ENDBRANCH   1   6
BRANCH   2  11
ATOM     11  C   UNL     1      -9.093   3.943 130.737  0.00  0.00    +0.000 A 
ATOM     12  C   UNL     1      -8.977   2.609 130.317  0.00  0.00    +0.000 A 
ATOM     13 CL   UNL     1      -8.733   2.144 128.668  0.00  0.00    +0.000 Cl
ATOM     14  C   UNL     1      -8.999   1.565 131.253  0.00  0.00    +0.000 A 
ATOM     15  C   UNL     1      -9.137   1.833 132.612  0.00  0.00    +0.000 A 
ATOM     16  C   UNL     1      -9.235   3.154 133.041  0.00  0.00    +0.000 A 
ATOM     17  C   UNL     1      -9.203   4.208 132.113  0.00  0.00    +0.000 A 
ATOM     18 CL   UNL     1      -9.342   5.810 132.749  0.00  0.00    +0.000 Cl
ENDBRANCH   2  11
TORSDOF 2
ENDMDL
MODEL 7
REMARK VINA RESULT:      -5.3      7.962      9.715
REMARK  Name = Guanabenz
REMARK  2 active torsions:
REMARK  status: ('A' for Active; 'I' for Inactive)
REMARK    1  A    between atoms: N_4  and  N_5
REMARK    2  A    between atoms: C_6  and  C_7
REMARK                            x       y       z     vdW  Elec       q    Type
REMARK                         _______ _______ _______ _____ _____    ______ ____
ROOT
ATOM      1  N   UNL     1      -8.694   0.055 125.080  0.00  0.00    +0.000 NA
ATOM      2  C   UNL     1      -7.754  -0.722 125.519  0.00  0.00    +0.000 C 
ENDROOT
BRANCH   1   6
ATOM      3  N   UNL     1      -8.995   2.539 122.591  0.00  0.00    +0.000 N 
ATOM      4  C   UNL     1      -9.194   1.669 123.599  0.00  0.00    +0.000 C 
ATOM      5  N   UNL     1     -10.452   1.717 124.079  0.00  0.00    +0.000 N 
ATOM      6  N   UNL     1      -8.250   0.886 124.042  0.00  0.00    +0.000 NA
ATOM      7  H   UNL     1      -9.711   3.164 122.259  0.00  0.00    +0.000 HD
ATOM      8  H   UNL     1      -8.072   2.595 122.186  0.00  0.00    +0.000 HD
ATOM      9  H   UNL     1     -11.192   2.277 123.693  0.00  0.00    +0.000 HD
ATOM     10  H   UNL     1     -10.660   1.027 124.792  0.00  0.00    +0.000 HD
ENDBRANCH   1   6
BRANCH   2  11
ATOM     11  C   UNL     1      -8.018  -1.709 126.595  0.00  0.00    +0.000 A 
ATOM     12  C   UNL     1      -8.661  -2.926 126.321  0.00  0.00    +0.000 A 
ATOM     13 CL   UNL     1      -9.099  -3.439 124.727  0.00  0.00    +0.000 Cl
ATOM     14  C   UNL     1      -8.935  -3.833 127.355  0.00  0.00    +0.000 A 
ATOM     15  C   UNL     1      -8.576  -3.542 128.668  0.00  0.00    +0.000 A 
ATOM     16  C   UNL     1      -7.922  -2.345 128.948  0.00  0.00    +0.000 A 
ATOM     17  C   UNL     1      -7.633  -1.434 127.918  0.00  0.00    +0.000 A 
ATOM     18 CL   UNL     1      -6.827   0.026 128.374  0.00  0.00    +0.000 Cl
ENDBRANCH   2  11
TORSDOF 2
ENDMDL
MODEL 8
REMARK VINA RESULT:      -5.3      2.683      5.899
REMARK  Name = Guanabenz
REMARK  2 active torsions:
REMARK  status: ('A' for Active; 'I' for Inactive)
REMARK    1  A    between atoms: N_4  and  N_5
REMARK    2  A    between atoms: C_6  and  C_7
REMARK                            x       y       z     vdW  Elec       q    Type
REMARK                         _______ _______ _______ _____ _____    ______ ____
ROOT
ATOM      1  N   UNL     1     -10.260   5.519 129.294  0.00  0.00    +0.000 NA
ATOM      2  C   UNL     1      -9.143   5.033 129.735  0.00  0.00    +0.000 C 
ENDROOT
BRANCH   1   6
ATOM      3  N   UNL     1     -10.635   8.729 127.875  0.00  0.00    +0.000 N 
ATOM      4  C   UNL     1     -10.679   7.633 128.655  0.00  0.00    +0.000 C 
ATOM      5  N   UNL     1     -11.417   7.820 129.766  0.00  0.00    +0.000 N 
ATOM      6  N   UNL     1     -10.057   6.530 128.343  0.00  0.00    +0.000 NA
ATOM      7  H   UNL     1     -11.092   9.592 128.120  0.00  0.00    +0.000 HD
ATOM      8  H   UNL     1     -10.081   8.692 127.033  0.00  0.00    +0.000 HD
ATOM      9  H   UNL     1     -11.944   8.651 129.970  0.00  0.00    +0.000 HD
ATOM     10  H   UNL     1     -11.530   6.995 130.344  0.00  0.00    +0.000 HD
ENDBRANCH   1   6
BRANCH   2  11
ATOM     11  C   UNL     1      -9.129   3.926 130.723  0.00  0.00    +0.000 A 
ATOM     12  C   UNL     1      -9.278   4.177 132.096  0.00  0.00    +0.000 A 
ATOM     13 CL   UNL     1      -9.599   5.746 132.752  0.00  0.00    +0.000 Cl
ATOM     14  C   UNL     1      -9.228   3.123 133.020  0.00  0.00    +0.000 A 
ATOM     15  C   UNL     1      -9.028   1.814 132.593  0.00  0.00    +0.000 A 
ATOM     16  C   UNL     1      -8.896   1.552 131.232  0.00  0.00    +0.000 A 
ATOM     17  C   UNL     1      -8.956   2.599 130.297  0.00  0.00    +0.000 A 
ATOM     18 CL   UNL     1      -8.771   2.166 128.633  0.00  0.00    +0.000 Cl
ENDBRANCH   2  11
TORSDOF 2
ENDMDL
MODEL 9
REMARK VINA RESULT:      -5.3      8.782     10.504
REMARK  Name = Guanabenz
REMARK  2 active torsions:
REMARK  status: ('A' for Active; 'I' for Inactive)
REMARK    1  A    between atoms: N_4  and  N_5
REMARK    2  A    between atoms: C_6  and  C_7
REMARK                            x       y       z     vdW  Elec       q    Type
REMARK                         _______ _______ _______ _____ _____    ______ ____
ROOT
ATOM      1  N   UNL     1      -7.473   0.736 123.227  0.00  0.00    +0.000 NA
ATOM      2  C   UNL     1      -6.889  -0.015 124.107  0.00  0.00    +0.000 C 
ENDROOT
BRANCH   1   6
ATOM      3  N   UNL     1      -6.946   4.036 122.092  0.00  0.00    +0.000 N 
ATOM      4  C   UNL     1      -7.462   2.848 122.459  0.00  0.00    +0.000 C 
ATOM      5  N   UNL     1      -8.797   2.791 122.291  0.00  0.00    +0.000 N 
ATOM      6  N   UNL     1      -6.722   1.882 122.929  0.00  0.00    +0.000 NA
ATOM      7  H   UNL     1      -7.513   4.795 121.750  0.00  0.00    +0.000 HD
ATOM      8  H   UNL     1      -5.955   4.181 122.209  0.00  0.00    +0.000 HD
ATOM      9  H   UNL     1      -9.353   3.516 121.870  0.00  0.00    +0.000 HD
ATOM     10  H   UNL     1      -9.212   1.889 122.491  0.00  0.00    +0.000 HD
ENDBRANCH   1   6
BRANCH   2  11
ATOM     11  C   UNL     1      -7.495  -1.298 124.540  0.00  0.00    +0.000 A 
ATOM     12  C   UNL     1      -6.964  -2.528 124.123  0.00  0.00    +0.000 A 
ATOM     13 CL   UNL     1      -5.520  -2.676 123.180  0.00  0.00    +0.000 Cl
ATOM     14  C   UNL     1      -7.570  -3.732 124.512  0.00  0.00    +0.000 A 
ATOM     15  C   UNL     1      -8.706  -3.727 125.315  0.00  0.00    +0.000 A 
ATOM     16  C   UNL     1      -9.232  -2.512 125.749  0.00  0.00    +0.000 A 
ATOM     17  C   UNL     1      -8.626  -1.301 125.374  0.00  0.00    +0.000 A 
ATOM     18 CL   UNL     1      -9.363   0.150 125.958  0.00  0.00    +0.000 Cl
ENDBRANCH   2  11
TORSDOF 2
ENDMDL
