MODEL 1
REMARK VINA RESULT:      -6.4      0.000      0.000
REMARK  Name = Guanoxan
REMARK  2 active torsions:
REMARK  status: ('A' for Active; 'I' for Inactive)
REMARK    1  A    between atoms: N_4  and  C_5
REMARK    2  A    between atoms: C_5  and  C_6
REMARK                            x       y       z     vdW  Elec       q    Type
REMARK                         _______ _______ _______ _____ _____    ______ ____
ROOT
ATOM      1  C   UNL     1      -8.780   6.307 130.650  0.00  0.00    +0.000 C 
ATOM      2  C   UNL     1      -9.687   6.444 131.873  0.00  0.00    +0.000 C 
ATOM      3  O   UNL     1     -11.069   6.342 131.519  0.00  0.00    +0.000 OA
ATOM      4  C   UNL     1     -11.359   7.088 130.405  0.00  0.00    +0.000 A 
ATOM      5  C   UNL     1     -10.378   7.616 129.558  0.00  0.00    +0.000 A 
ATOM      6  O   UNL     1      -9.032   7.395 129.736  0.00  0.00    +0.000 OA
ATOM      7  C   UNL     1     -10.750   8.377 128.452  0.00  0.00    +0.000 A 
ATOM      8  C   UNL     1     -12.104   8.591 128.180  0.00  0.00    +0.000 A 
ATOM      9  C   UNL     1     -13.081   8.043 129.011  0.00  0.00    +0.000 A 
ATOM     10  C   UNL     1     -12.709   7.285 130.122  0.00  0.00    +0.000 A 
ENDROOT
BRANCH   1  11
ATOM     11  C   UNL     1      -8.987   4.950 129.951  0.00  0.00    +0.000 C 
BRANCH  11  15
ATOM     12  N   UNL     1     -10.277   2.142 131.844  0.00  0.00    +0.000 N 
ATOM     13  C   UNL     1     -10.279   3.164 130.980  0.00  0.00    +0.000 C 
ATOM     14  N   UNL     1     -11.327   3.502 130.315  0.00  0.00    +0.000 NA
ATOM     15  N   UNL     1      -9.108   3.825 130.875  0.00  0.00    +0.000 N 
ATOM     16  H   UNL     1     -11.110   1.588 131.981  0.00  0.00    +0.000 HD
ATOM     17  H   UNL     1      -9.453   1.865 132.352  0.00  0.00    +0.000 HD
ATOM     18  H   UNL     1     -12.100   2.882 130.545  0.00  0.00    +0.000 HD
ATOM     19  H   UNL     1      -8.283   3.493 131.351  0.00  0.00    +0.000 HD
ENDBRANCH  11  15
ENDBRANCH   1  11
TORSDOF 2
ENDMDL
MODEL 2
REMARK VINA RESULT:      -6.0      1.888      2.937
REMARK  Name = Guanoxan
REMARK  2 active torsions:
REMARK  status: ('A' for Active; 'I' for Inactive)
REMARK    1  A    between atoms: N_4  and  C_5
REMARK    2  A    between atoms: C_5  and  C_6
REMARK                            x       y       z     vdW  Elec       q    Type
REMARK                         _______ _______ _______ _____ _____    ______ ____
ROOT
ATOM      1  C   UNL     1     -10.315   4.913 130.673  0.00  0.00    +0.000 C 
ATOM      2  C   UNL     1      -9.199   5.395 129.745  0.00  0.00    +0.000 C 
ATOM      3  O   UNL     1      -9.345   6.780 129.419  0.00  0.00    +0.000 OA
ATOM      4  C   UNL     1     -10.642   7.085 129.093  0.00  0.00    +0.000 A 
ATOM      5  C   UNL     1     -11.719   6.231 129.352  0.00  0.00    +0.000 A 
ATOM      6  O   UNL     1     -11.586   5.026 130.001  0.00  0.00    +0.000 OA
ATOM      7  C   UNL     1     -13.009   6.606 128.978  0.00  0.00    +0.000 A 
ATOM      8  C   UNL     1     -13.223   7.844 128.367  0.00  0.00    +0.000 A 
ATOM      9  C   UNL     1     -12.151   8.705 128.134  0.00  0.00    +0.000 A 
ATOM     10  C   UNL     1     -10.859   8.328 128.502  0.00  0.00    +0.000 A 
ENDROOT
BRANCH   1  11
ATOM     11  C   UNL     1     -10.324   5.709 131.993  0.00  0.00    +0.000 C 
BRANCH  11  15
ATOM     12  N   UNL     1      -7.279   5.623 133.956  0.00  0.00    +0.000 N 
ATOM     13  C   UNL     1      -8.515   5.292 133.566  0.00  0.00    +0.000 C 
ATOM     14  N   UNL     1      -9.207   4.385 134.162  0.00  0.00    +0.000 NA
ATOM     15  N   UNL     1      -8.990   5.994 132.516  0.00  0.00    +0.000 N 
ATOM     16  H   UNL     1      -6.844   5.144 134.731  0.00  0.00    +0.000 HD
ATOM     17  H   UNL     1      -6.731   6.321 133.480  0.00  0.00    +0.000 HD
ATOM     18  H   UNL     1      -8.670   3.984 134.927  0.00  0.00    +0.000 HD
ATOM     19  H   UNL     1      -8.401   6.647 132.022  0.00  0.00    +0.000 HD
ENDBRANCH  11  15
ENDBRANCH   1  11
TORSDOF 2
ENDMDL
MODEL 3
REMARK VINA RESULT:      -5.9      7.762      8.929
REMARK  Name = Guanoxan
REMARK  2 active torsions:
REMARK  status: ('A' for Active; 'I' for Inactive)
REMARK    1  A    between atoms: N_4  and  C_5
REMARK    2  A    between atoms: C_5  and  C_6
REMARK                            x       y       z     vdW  Elec       q    Type
REMARK                         _______ _______ _______ _____ _____    ______ ____
ROOT
ATOM      1  C   UNL     1      -8.561   2.397 124.221  0.00  0.00    +0.000 C 
ATOM      2  C   UNL     1      -7.251   1.630 124.038  0.00  0.00    +0.000 C 
ATOM      3  O   UNL     1      -6.297   2.386 123.287  0.00  0.00    +0.000 OA
ATOM      4  C   UNL     1      -6.872   2.967 122.185  0.00  0.00    +0.000 A 
ATOM      5  C   UNL     1      -8.255   3.063 122.003  0.00  0.00    +0.000 A 
ATOM      6  O   UNL     1      -9.170   2.628 122.933  0.00  0.00    +0.000 OA
ATOM      7  C   UNL     1      -8.765   3.656 120.849  0.00  0.00    +0.000 A 
ATOM      8  C   UNL     1      -7.891   4.173 119.889  0.00  0.00    +0.000 A 
ATOM      9  C   UNL     1      -6.512   4.098 120.085  0.00  0.00    +0.000 A 
ATOM     10  C   UNL     1      -6.001   3.500 121.238  0.00  0.00    +0.000 A 
ENDROOT
BRANCH   1  11
ATOM     11  C   UNL     1      -8.329   3.728 124.960  0.00  0.00    +0.000 C 
BRANCH  11  15
ATOM     12  N   UNL     1      -5.226   4.669 126.578  0.00  0.00    +0.000 N 
ATOM     13  C   UNL     1      -6.272   4.760 125.750  0.00  0.00    +0.000 C 
ATOM     14  N   UNL     1      -6.426   5.749 124.941  0.00  0.00    +0.000 NA
ATOM     15  N   UNL     1      -7.140   3.729 125.810  0.00  0.00    +0.000 N 
ATOM     16  H   UNL     1      -4.530   5.400 126.604  0.00  0.00    +0.000 HD
ATOM     17  H   UNL     1      -5.112   3.904 127.224  0.00  0.00    +0.000 HD
ATOM     18  H   UNL     1      -5.661   6.411 125.050  0.00  0.00    +0.000 HD
ATOM     19  H   UNL     1      -7.034   3.005 126.504  0.00  0.00    +0.000 HD
ENDBRANCH  11  15
ENDBRANCH   1  11
TORSDOF 2
ENDMDL
MODEL 4
REMARK VINA RESULT:      -5.8      8.489      9.229
REMARK  Name = Guanoxan
REMARK  2 active torsions:
REMARK  status: ('A' for Active; 'I' for Inactive)
REMARK    1  A    between atoms: N_4  and  C_5
REMARK    2  A    between atoms: C_5  and  C_6
REMARK                            x       y       z     vdW  Elec       q    Type
REMARK                         _______ _______ _______ _____ _____    ______ ____
ROOT
ATOM      1  C   UNL     1      -6.932   2.319 123.810  0.00  0.00    +0.000 C 
ATOM      2  C   UNL     1      -8.305   2.967 123.993  0.00  0.00    +0.000 C 
ATOM      3  O   UNL     1      -9.038   3.004 122.764  0.00  0.00    +0.000 OA
ATOM      4  C   UNL     1      -8.251   3.425 121.723  0.00  0.00    +0.000 A 
ATOM      5  C   UNL     1      -6.856   3.500 121.797  0.00  0.00    +0.000 A 
ATOM      6  O   UNL     1      -6.138   3.113 122.905  0.00  0.00    +0.000 OA
ATOM      7  C   UNL     1      -6.124   3.951 120.699  0.00  0.00    +0.000 A 
ATOM      8  C   UNL     1      -6.786   4.305 119.521  0.00  0.00    +0.000 A 
ATOM      9  C   UNL     1      -8.176   4.205 119.441  0.00  0.00    +0.000 A 
ATOM     10  C   UNL     1      -8.909   3.759 120.541  0.00  0.00    +0.000 A 
ENDROOT
BRANCH   1  11
ATOM     11  C   UNL     1      -7.063   0.872 123.296  0.00  0.00    +0.000 C 
BRANCH  11  15
ATOM     12  N   UNL     1      -9.027  -1.465 125.248  0.00  0.00    +0.000 N 
ATOM     13  C   UNL     1      -8.740  -0.594 124.274  0.00  0.00    +0.000 C 
ATOM     14  N   UNL     1      -9.597  -0.257 123.376  0.00  0.00    +0.000 NA
ATOM     15  N   UNL     1      -7.494  -0.079 124.318  0.00  0.00    +0.000 N 
ATOM     16  H   UNL     1      -9.935  -1.904 125.288  0.00  0.00    +0.000 HD
ATOM     17  H   UNL     1      -8.352  -1.743 125.942  0.00  0.00    +0.000 HD
ATOM     18  H   UNL     1     -10.472  -0.753 123.527  0.00  0.00    +0.000 HD
ATOM     19  H   UNL     1      -6.819  -0.415 124.987  0.00  0.00    +0.000 HD
ENDBRANCH  11  15
ENDBRANCH   1  11
TORSDOF 2
ENDMDL
MODEL 5
REMARK VINA RESULT:      -5.8      1.865      2.995
REMARK  Name = Guanoxan
REMARK  2 active torsions:
REMARK  status: ('A' for Active; 'I' for Inactive)
REMARK    1  A    between atoms: N_4  and  C_5
REMARK    2  A    between atoms: C_5  and  C_6
REMARK                            x       y       z     vdW  Elec       q    Type
REMARK                         _______ _______ _______ _____ _____    ______ ____
ROOT
ATOM      1  C   UNL     1     -11.058   5.462 131.815  0.00  0.00    +0.000 C 
ATOM      2  C   UNL     1     -10.884   4.689 130.507  0.00  0.00    +0.000 C 
ATOM      3  O   UNL     1     -10.511   5.554 129.430  0.00  0.00    +0.000 OA
ATOM      4  C   UNL     1     -11.270   6.696 129.416  0.00  0.00    +0.000 A 
ATOM      5  C   UNL     1     -12.073   7.097 130.490  0.00  0.00    +0.000 A 
ATOM      6  O   UNL     1     -12.140   6.408 131.679  0.00  0.00    +0.000 OA
ATOM      7  C   UNL     1     -12.827   8.265 130.396  0.00  0.00    +0.000 A 
ATOM      8  C   UNL     1     -12.761   9.044 129.239  0.00  0.00    +0.000 A 
ATOM      9  C   UNL     1     -11.940   8.656 128.179  0.00  0.00    +0.000 A 
ATOM     10  C   UNL     1     -11.188   7.484 128.270  0.00  0.00    +0.000 A 
ENDROOT
BRANCH   1  11
ATOM     11  C   UNL     1      -9.755   6.179 132.216  0.00  0.00    +0.000 C 
BRANCH  11  15
ATOM     12  N   UNL     1      -6.579   5.348 130.681  0.00  0.00    +0.000 N 
ATOM     13  C   UNL     1      -7.659   6.076 130.984  0.00  0.00    +0.000 C 
ATOM     14  N   UNL     1      -7.849   7.258 130.511  0.00  0.00    +0.000 NA
ATOM     15  N   UNL     1      -8.544   5.473 131.804  0.00  0.00    +0.000 N 
ATOM     16  H   UNL     1      -5.863   5.724 130.078  0.00  0.00    +0.000 HD
ATOM     17  H   UNL     1      -6.422   4.429 131.064  0.00  0.00    +0.000 HD
ATOM     18  H   UNL     1      -7.070   7.522 129.912  0.00  0.00    +0.000 HD
ATOM     19  H   UNL     1      -8.336   4.577 132.219  0.00  0.00    +0.000 HD
ENDBRANCH  11  15
ENDBRANCH   1  11
TORSDOF 2
ENDMDL
MODEL 6
REMARK VINA RESULT:      -5.6      8.291     10.152
REMARK  Name = Guanoxan
REMARK  2 active torsions:
REMARK  status: ('A' for Active; 'I' for Inactive)
REMARK    1  A    between atoms: N_4  and  C_5
REMARK    2  A    between atoms: C_5  and  C_6
REMARK                            x       y       z     vdW  Elec       q    Type
REMARK                         _______ _______ _______ _____ _____    ______ ____
ROOT
ATOM      1  C   UNL     1      -7.802   0.915 123.355  0.00  0.00    +0.000 C 
ATOM      2  C   UNL     1      -9.266   0.509 123.190  0.00  0.00    +0.000 C 
ATOM      3  O   UNL     1      -9.630  -0.533 124.100  0.00  0.00    +0.000 OA
ATOM      4  C   UNL     1      -8.680  -1.521 124.139  0.00  0.00    +0.000 A 
ATOM      5  C   UNL     1      -7.395  -1.372 123.604  0.00  0.00    +0.000 A 
ATOM      6  O   UNL     1      -6.949  -0.203 123.031  0.00  0.00    +0.000 OA
ATOM      7  C   UNL     1      -6.488  -2.428 123.669  0.00  0.00    +0.000 A 
ATOM      8  C   UNL     1      -6.856  -3.624 124.290  0.00  0.00    +0.000 A 
ATOM      9  C   UNL     1      -8.128  -3.761 124.846  0.00  0.00    +0.000 A 
ATOM     10  C   UNL     1      -9.040  -2.707 124.776  0.00  0.00    +0.000 A 
ENDROOT
BRANCH   1  11
ATOM     11  C   UNL     1      -7.520   1.419 124.783  0.00  0.00    +0.000 C 
BRANCH  11  15
ATOM     12  N   UNL     1      -7.136   5.011 125.063  0.00  0.00    +0.000 N 
ATOM     13  C   UNL     1      -7.758   3.828 125.022  0.00  0.00    +0.000 C 
ATOM     14  N   UNL     1      -9.036   3.718 125.135  0.00  0.00    +0.000 NA
ATOM     15  N   UNL     1      -6.952   2.764 124.831  0.00  0.00    +0.000 N 
ATOM     16  H   UNL     1      -7.662   5.860 125.209  0.00  0.00    +0.000 HD
ATOM     17  H   UNL     1      -6.135   5.098 124.992  0.00  0.00    +0.000 HD
ATOM     18  H   UNL     1      -9.455   4.635 125.265  0.00  0.00    +0.000 HD
ATOM     19  H   UNL     1      -5.949   2.871 124.820  0.00  0.00    +0.000 HD
ENDBRANCH  11  15
ENDBRANCH   1  11
TORSDOF 2
ENDMDL
MODEL 7
REMARK VINA RESULT:      -5.4      9.142     10.580
REMARK  Name = Guanoxan
REMARK  2 active torsions:
REMARK  status: ('A' for Active; 'I' for Inactive)
REMARK    1  A    between atoms: N_4  and  C_5
REMARK    2  A    between atoms: C_5  and  C_6
REMARK                            x       y       z     vdW  Elec       q    Type
REMARK                         _______ _______ _______ _____ _____    ______ ____
ROOT
ATOM      1  C   UNL     1      -8.070  -1.680 124.260  0.00  0.00    +0.000 C 
ATOM      2  C   UNL     1      -8.781  -3.029 124.142  0.00  0.00    +0.000 C 
ATOM      3  O   UNL     1      -9.427  -3.393 125.366  0.00  0.00    +0.000 OA
ATOM      4  C   UNL     1      -8.613  -3.177 126.448  0.00  0.00    +0.000 A 
ATOM      5  C   UNL     1      -7.441  -2.415 126.386  0.00  0.00    +0.000 A 
ATOM      6  O   UNL     1      -7.020  -1.770 125.246  0.00  0.00    +0.000 OA
ATOM      7  C   UNL     1      -6.657  -2.252 127.527  0.00  0.00    +0.000 A 
ATOM      8  C   UNL     1      -7.056  -2.832 128.734  0.00  0.00    +0.000 A 
ATOM      9  C   UNL     1      -8.238  -3.570 128.799  0.00  0.00    +0.000 A 
ATOM     10  C   UNL     1      -9.021  -3.738 127.656  0.00  0.00    +0.000 A 
ENDROOT
BRANCH   1  11
ATOM     11  C   UNL     1      -9.061  -0.557 124.621  0.00  0.00    +0.000 C 
BRANCH  11  15
ATOM     12  N   UNL     1      -9.262   2.312 122.416  0.00  0.00    +0.000 N 
ATOM     13  C   UNL     1      -9.595   1.134 122.956  0.00  0.00    +0.000 C 
ATOM     14  N   UNL     1     -10.604   0.448 122.544  0.00  0.00    +0.000 NA
ATOM     15  N   UNL     1      -8.785   0.709 123.947  0.00  0.00    +0.000 N 
ATOM     16  H   UNL     1      -9.817   2.708 121.672  0.00  0.00    +0.000 HD
ATOM     17  H   UNL     1      -8.483   2.858 122.749  0.00  0.00    +0.000 HD
ATOM     18  H   UNL     1     -11.075   0.941 121.789  0.00  0.00    +0.000 HD
ATOM     19  H   UNL     1      -8.048   1.300 124.300  0.00  0.00    +0.000 HD
ENDBRANCH  11  15
ENDBRANCH   1  11
TORSDOF 2
ENDMDL
MODEL 8
REMARK VINA RESULT:      -5.4      8.146     10.019
REMARK  Name = Guanoxan
REMARK  2 active torsions:
REMARK  status: ('A' for Active; 'I' for Inactive)
REMARK    1  A    between atoms: N_4  and  C_5
REMARK    2  A    between atoms: C_5  and  C_6
REMARK                            x       y       z     vdW  Elec       q    Type
REMARK                         _______ _______ _______ _____ _____    ______ ____
ROOT
ATOM      1  C   UNL     1      -9.043   0.743 123.321  0.00  0.00    +0.000 C 
ATOM      2  C   UNL     1      -9.763   0.962 124.652  0.00  0.00    +0.000 C 
ATOM      3  O   UNL     1      -9.185   0.177 125.699  0.00  0.00    +0.000 OA
ATOM      4  C   UNL     1      -8.947  -1.111 125.290  0.00  0.00    +0.000 A 
ATOM      5  C   UNL     1      -8.973  -1.506 123.948  0.00  0.00    +0.000 A 
ATOM      6  O   UNL     1      -9.193  -0.631 122.909  0.00  0.00    +0.000 OA
ATOM      7  C   UNL     1      -8.734  -2.837 123.611  0.00  0.00    +0.000 A 
ATOM      8  C   UNL     1      -8.447  -3.767 124.612  0.00  0.00    +0.000 A 
ATOM      9  C   UNL     1      -8.396  -3.365 125.948  0.00  0.00    +0.000 A 
ATOM     10  C   UNL     1      -8.640  -2.034 126.287  0.00  0.00    +0.000 A 
ENDROOT
BRANCH   1  11
ATOM     11  C   UNL     1      -7.553   1.122 123.425  0.00  0.00    +0.000 C 
BRANCH  11  15
ATOM     12  N   UNL     1      -6.885   4.516 124.505  0.00  0.00    +0.000 N 
ATOM     13  C   UNL     1      -7.089   3.498 123.661  0.00  0.00    +0.000 C 
ATOM     14  N   UNL     1      -7.063   3.647 122.383  0.00  0.00    +0.000 NA
ATOM     15  N   UNL     1      -7.303   2.303 124.248  0.00  0.00    +0.000 N 
ATOM     16  H   UNL     1      -6.722   5.447 124.152  0.00  0.00    +0.000 HD
ATOM     17  H   UNL     1      -6.921   4.404 125.506  0.00  0.00    +0.000 HD
ATOM     18  H   UNL     1      -6.882   4.621 122.150  0.00  0.00    +0.000 HD
ATOM     19  H   UNL     1      -7.392   2.228 125.250  0.00  0.00    +0.000 HD
ENDBRANCH  11  15
ENDBRANCH   1  11
TORSDOF 2
ENDMDL
MODEL 9
REMARK VINA RESULT:      -5.3      8.376     10.093
REMARK  Name = Guanoxan
REMARK  2 active torsions:
REMARK  status: ('A' for Active; 'I' for Inactive)
REMARK    1  A    between atoms: N_4  and  C_5
REMARK    2  A    between atoms: C_5  and  C_6
REMARK                            x       y       z     vdW  Elec       q    Type
REMARK                         _______ _______ _______ _____ _____    ______ ____
ROOT
ATOM      1  C   UNL     1      -6.635  -0.425 125.404  0.00  0.00    +0.000 C 
ATOM      2  C   UNL     1      -6.695  -1.658 124.501  0.00  0.00    +0.000 C 
ATOM      3  O   UNL     1      -7.807  -2.496 124.827  0.00  0.00    +0.000 OA
ATOM      4  C   UNL     1      -7.923  -2.674 126.182  0.00  0.00    +0.000 A 
ATOM      5  C   UNL     1      -7.242  -1.890 127.120  0.00  0.00    +0.000 A 
ATOM      6  O   UNL     1      -6.429  -0.836 126.772  0.00  0.00    +0.000 OA
ATOM      7  C   UNL     1      -7.400  -2.140 128.482  0.00  0.00    +0.000 A 
ATOM      8  C   UNL     1      -8.256  -3.158 128.906  0.00  0.00    +0.000 A 
ATOM      9  C   UNL     1      -8.955  -3.922 127.970  0.00  0.00    +0.000 A 
ATOM     10  C   UNL     1      -8.793  -3.676 126.606  0.00  0.00    +0.000 A 
ENDROOT
BRANCH   1  11
ATOM     11  C   UNL     1      -7.915   0.422 125.277  0.00  0.00    +0.000 C 
BRANCH  11  15
ATOM     12  N   UNL     1     -10.270   0.703 122.536  0.00  0.00    +0.000 N 
ATOM     13  C   UNL     1      -9.661   1.010 123.687  0.00  0.00    +0.000 C 
ATOM     14  N   UNL     1     -10.017   2.015 124.408  0.00  0.00    +0.000 NA
ATOM     15  N   UNL     1      -8.663   0.176 124.045  0.00  0.00    +0.000 N 
ATOM     16  H   UNL     1     -11.024   1.277 122.189  0.00  0.00    +0.000 HD
ATOM     17  H   UNL     1      -9.982  -0.073 121.962  0.00  0.00    +0.000 HD
ATOM     18  H   UNL     1     -10.788   2.506 123.964  0.00  0.00    +0.000 HD
ATOM     19  H   UNL     1      -8.356  -0.558 123.426  0.00  0.00    +0.000 HD
ENDBRANCH  11  15
ENDBRANCH   1  11
TORSDOF 2
ENDMDL
