MODEL 1
REMARK VINA RESULT:      -3.1      0.000      0.000
REMARK  Name = Guanidine
REMARK  0 active torsions:
REMARK  status: ('A' for Active; 'I' for Inactive)
REMARK                            x       y       z     vdW  Elec       q    Type
REMARK                         _______ _______ _______ _____ _____    ______ ____
ROOT
ATOM      1  N   UNL     1      -5.562   5.807 118.754  0.00  0.00    +0.000 N 
ATOM      2  C   UNL     1      -5.184   5.428 119.977  0.00  0.00    +0.000 C 
ATOM      3  N   UNL     1      -5.659   4.248 120.376  0.00  0.00    +0.000 N 
ATOM      4  N   UNL     1      -4.422   6.117 120.745  0.00  0.00    +0.000 NA
ATOM      5  H   UNL     1      -6.164   5.233 118.184  0.00  0.00    +0.000 HD
ATOM      6  H   UNL     1      -5.256   6.685 118.364  0.00  0.00    +0.000 HD
ATOM      7  H   UNL     1      -6.259   3.659 119.826  0.00  0.00    +0.000 HD
ATOM      8  H   UNL     1      -5.385   3.941 121.300  0.00  0.00    +0.000 HD
ATOM      9  H   UNL     1      -4.162   6.982 120.272  0.00  0.00    +0.000 HD
ENDROOT
TORSDOF 0
ENDMDL
MODEL 2
REMARK VINA RESULT:      -3.0     14.334     14.638
REMARK  Name = Guanidine
REMARK  0 active torsions:
REMARK  status: ('A' for Active; 'I' for Inactive)
REMARK                            x       y       z     vdW  Elec       q    Type
REMARK                         _______ _______ _______ _____ _____    ______ ____
ROOT
ATOM      1  N   UNL     1     -13.719  12.553 130.975  0.00  0.00    +0.000 N 
ATOM      2  C   UNL     1     -13.652  11.618 130.024  0.00  0.00    +0.000 C 
ATOM      3  N   UNL     1     -13.312  10.401 130.451  0.00  0.00    +0.000 N 
ATOM      4  N   UNL     1     -13.887  11.830 128.782  0.00  0.00    +0.000 NA
ATOM      5  H   UNL     1     -13.525  12.341 131.941  0.00  0.00    +0.000 HD
ATOM      6  H   UNL     1     -13.966  13.505 130.752  0.00  0.00    +0.000 HD
ATOM      7  H   UNL     1     -13.114  10.166 131.407  0.00  0.00    +0.000 HD
ATOM      8  H   UNL     1     -13.255   9.677 129.748  0.00  0.00    +0.000 HD
ATOM      9  H   UNL     1     -14.129  12.812 128.649  0.00  0.00    +0.000 HD
ENDROOT
TORSDOF 0
ENDMDL
MODEL 3
REMARK VINA RESULT:      -2.7      8.986      9.286
REMARK  Name = Guanidine
REMARK  0 active torsions:
REMARK  status: ('A' for Active; 'I' for Inactive)
REMARK                            x       y       z     vdW  Elec       q    Type
REMARK                         _______ _______ _______ _____ _____    ______ ____
ROOT
ATOM      1  N   UNL     1     -12.273   6.996 126.231  0.00  0.00    +0.000 N 
ATOM      2  C   UNL     1     -11.057   7.305 126.687  0.00  0.00    +0.000 C 
ATOM      3  N   UNL     1     -10.986   8.440 127.385  0.00  0.00    +0.000 N 
ATOM      4  N   UNL     1     -10.008   6.595 126.492  0.00  0.00    +0.000 NA
ATOM      5  H   UNL     1     -13.071   7.586 126.408  0.00  0.00    +0.000 HD
ATOM      6  H   UNL     1     -12.429   6.159 125.691  0.00  0.00    +0.000 HD
ATOM      7  H   UNL     1     -11.767   9.043 127.574  0.00  0.00    +0.000 HD
ATOM      8  H   UNL     1     -10.074   8.694 127.740  0.00  0.00    +0.000 HD
ATOM      9  H   UNL     1     -10.257   5.772 125.943  0.00  0.00    +0.000 HD
ENDROOT
TORSDOF 0
ENDMDL
MODEL 4
REMARK VINA RESULT:      -2.6      8.980      9.280
REMARK  Name = Guanidine
REMARK  0 active torsions:
REMARK  status: ('A' for Active; 'I' for Inactive)
REMARK                            x       y       z     vdW  Elec       q    Type
REMARK                         _______ _______ _______ _____ _____    ______ ____
ROOT
ATOM      1  N   UNL     1     -11.028   8.288 127.406  0.00  0.00    +0.000 N 
ATOM      2  C   UNL     1     -11.162   7.223 126.612  0.00  0.00    +0.000 C 
ATOM      3  N   UNL     1     -12.405   6.984 126.193  0.00  0.00    +0.000 N 
ATOM      4  N   UNL     1     -10.197   6.460 126.255  0.00  0.00    +0.000 NA
ATOM      5  H   UNL     1     -11.817   8.861 127.662  0.00  0.00    +0.000 HD
ATOM      6  H   UNL     1     -10.127   8.550 127.776  0.00  0.00    +0.000 HD
ATOM      7  H   UNL     1     -13.206   7.540 126.435  0.00  0.00    +0.000 HD
ATOM      8  H   UNL     1     -12.531   6.182 125.590  0.00  0.00    +0.000 HD
ATOM      9  H   UNL     1      -9.329   6.798 126.671  0.00  0.00    +0.000 HD
ENDROOT
TORSDOF 0
ENDMDL
MODEL 5
REMARK VINA RESULT:      -2.6      8.144      8.249
REMARK  Name = Guanidine
REMARK  0 active torsions:
REMARK  status: ('A' for Active; 'I' for Inactive)
REMARK                            x       y       z     vdW  Elec       q    Type
REMARK                         _______ _______ _______ _____ _____    ______ ____
ROOT
ATOM      1  N   UNL     1      -2.239   4.521 127.379  0.00  0.00    +0.000 N 
ATOM      2  C   UNL     1      -2.120   3.207 127.172  0.00  0.00    +0.000 C 
ATOM      3  N   UNL     1      -3.144   2.472 127.606  0.00  0.00    +0.000 N 
ATOM      4  N   UNL     1      -1.114   2.652 126.605  0.00  0.00    +0.000 NA
ATOM      5  H   UNL     1      -3.050   4.915 127.831  0.00  0.00    +0.000 HD
ATOM      6  H   UNL     1      -1.516   5.161 127.087  0.00  0.00    +0.000 HD
ATOM      7  H   UNL     1      -3.961   2.841 128.060  0.00  0.00    +0.000 HD
ATOM      8  H   UNL     1      -3.075   1.473 127.461  0.00  0.00    +0.000 HD
ATOM      9  H   UNL     1      -0.437   3.369 126.343  0.00  0.00    +0.000 HD
ENDROOT
TORSDOF 0
ENDMDL
MODEL 6
REMARK VINA RESULT:      -2.6     12.963     13.338
REMARK  Name = Guanidine
REMARK  0 active torsions:
REMARK  status: ('A' for Active; 'I' for Inactive)
REMARK                            x       y       z     vdW  Elec       q    Type
REMARK                         _______ _______ _______ _____ _____    ______ ____
ROOT
ATOM      1  N   UNL     1      -9.923   6.700 131.107  0.00  0.00    +0.000 N 
ATOM      2  C   UNL     1     -10.795   6.164 131.965  0.00  0.00    +0.000 C 
ATOM      3  N   UNL     1     -10.250   5.497 132.982  0.00  0.00    +0.000 N 
ATOM      4  N   UNL     1     -12.069   6.258 131.856  0.00  0.00    +0.000 NA
ATOM      5  H   UNL     1      -8.928   6.601 131.232  0.00  0.00    +0.000 HD
ATOM      6  H   UNL     1     -10.239   7.223 130.305  0.00  0.00    +0.000 HD
ATOM      7  H   UNL     1      -9.262   5.384 133.127  0.00  0.00    +0.000 HD
ATOM      8  H   UNL     1     -10.891   5.081 133.644  0.00  0.00    +0.000 HD
ATOM      9  H   UNL     1     -12.296   6.800 131.023  0.00  0.00    +0.000 HD
ENDROOT
TORSDOF 0
ENDMDL
MODEL 7
REMARK VINA RESULT:      -2.5     10.096     10.321
REMARK  Name = Guanidine
REMARK  0 active torsions:
REMARK  status: ('A' for Active; 'I' for Inactive)
REMARK                            x       y       z     vdW  Elec       q    Type
REMARK                         _______ _______ _______ _____ _____    ______ ____
ROOT
ATOM      1  N   UNL     1     -10.924   7.896 126.704  0.00  0.00    +0.000 N 
ATOM      2  C   UNL     1     -10.891   8.307 127.974  0.00  0.00    +0.000 C 
ATOM      3  N   UNL     1     -11.945   9.024 128.364  0.00  0.00    +0.000 N 
ATOM      4  N   UNL     1      -9.937   8.054 128.792  0.00  0.00    +0.000 NA
ATOM      5  H   UNL     1     -11.696   8.119 126.095  0.00  0.00    +0.000 HD
ATOM      6  H   UNL     1     -10.171   7.349 126.315  0.00  0.00    +0.000 HD
ATOM      7  H   UNL     1     -12.725   9.259 127.776  0.00  0.00    +0.000 HD
ATOM      8  H   UNL     1     -11.941   9.346 129.322  0.00  0.00    +0.000 HD
ATOM      9  H   UNL     1      -9.225   7.499 128.317  0.00  0.00    +0.000 HD
ENDROOT
TORSDOF 0
ENDMDL
MODEL 8
REMARK VINA RESULT:      -2.5     17.983     18.515
REMARK  Name = Guanidine
REMARK  0 active torsions:
REMARK  status: ('A' for Active; 'I' for Inactive)
REMARK                            x       y       z     vdW  Elec       q    Type
REMARK                         _______ _______ _______ _____ _____    ______ ____
ROOT
ATOM      1  N   UNL     1      -9.779   9.300 138.631  0.00  0.00    +0.000 N 
ATOM      2  C   UNL     1      -9.707   8.536 137.538  0.00  0.00    +0.000 C 
ATOM      3  N   UNL     1      -8.972   7.431 137.668  0.00  0.00    +0.000 N 
ATOM      4  N   UNL     1     -10.285   8.807 136.427  0.00  0.00    +0.000 NA
ATOM      5  H   UNL     1      -9.308   9.047 139.486  0.00  0.00    +0.000 HD
ATOM      6  H   UNL     1     -10.310  10.157 138.632  0.00  0.00    +0.000 HD
ATOM      7  H   UNL     1      -8.493   7.159 138.509  0.00  0.00    +0.000 HD
ATOM      8  H   UNL     1      -8.903   6.837 136.853  0.00  0.00    +0.000 HD
ATOM      9  H   UNL     1     -10.796   9.684 136.519  0.00  0.00    +0.000 HD
ENDROOT
TORSDOF 0
ENDMDL
MODEL 9
REMARK VINA RESULT:      -2.5     17.825     18.366
REMARK  Name = Guanidine
REMARK  0 active torsions:
REMARK  status: ('A' for Active; 'I' for Inactive)
REMARK                            x       y       z     vdW  Elec       q    Type
REMARK                         _______ _______ _______ _____ _____    ______ ____
ROOT
ATOM      1  N   UNL     1      -0.182  -2.683 134.400  0.00  0.00    +0.000 N 
ATOM      2  C   UNL     1       0.845  -3.381 134.893  0.00  0.00    +0.000 C 
ATOM      3  N   UNL     1       1.817  -3.648 134.020  0.00  0.00    +0.000 N 
ATOM      4  N   UNL     1       0.931  -3.783 136.107  0.00  0.00    +0.000 NA
ATOM      5  H   UNL     1      -0.208  -2.387 133.437  0.00  0.00    +0.000 HD
ATOM      6  H   UNL     1      -0.967  -2.433 134.982  0.00  0.00    +0.000 HD
ATOM      7  H   UNL     1       1.813  -3.364 133.056  0.00  0.00    +0.000 HD
ATOM      8  H   UNL     1       2.604  -4.176 134.371  0.00  0.00    +0.000 HD
ATOM      9  H   UNL     1       0.101  -3.486 136.619  0.00  0.00    +0.000 HD
ENDROOT
TORSDOF 0
ENDMDL
