MODEL 1
REMARK VINA RESULT:      -6.0      0.000      0.000
REMARK  Name = Guanfacine
REMARK  2 active torsions:
REMARK  status: ('A' for Active; 'I' for Inactive)
REMARK    1  A    between atoms: C_5  and  C_7
REMARK    2  A    between atoms: C_7  and  C_8
REMARK                            x       y       z     vdW  Elec       q    Type
REMARK                         _______ _______ _______ _____ _____    ______ ____
ROOT
ATOM      1  N   UNL     1      -6.857  -1.498 124.108  0.00  0.00    +0.000 N 
ATOM      2  C   UNL     1      -7.903  -0.689 123.857  0.00  0.00    +0.000 C 
ATOM      3  N   UNL     1      -9.088  -1.183 123.790  0.00  0.00    +0.000 NA
ATOM      4  N   UNL     1      -7.711   0.662 123.687  0.00  0.00    +0.000 N 
ATOM      5  C   UNL     1      -8.709   1.515 123.222  0.00  0.00    +0.000 C 
ATOM      6  O   UNL     1      -9.715   1.119 122.626  0.00  0.00    +0.000 OA
ATOM      7  H   UNL     1      -7.019  -2.496 124.179  0.00  0.00    +0.000 HD
ATOM      8  H   UNL     1      -5.896  -1.198 124.147  0.00  0.00    +0.000 HD
ATOM      9  H   UNL     1      -9.101  -2.190 123.902  0.00  0.00    +0.000 HD
ATOM     10  H   UNL     1      -6.782   1.026 123.829  0.00  0.00    +0.000 HD
ENDROOT
BRANCH   5  11
ATOM     11  C   UNL     1      -8.453   3.026 123.325  0.00  0.00    +0.000 C 
BRANCH  11  12
ATOM     12  C   UNL     1      -7.365   3.519 122.358  0.00  0.00    +0.000 A 
ATOM     13  C   UNL     1      -6.048   3.778 122.796  0.00  0.00    +0.000 A 
ATOM     14 CL   UNL     1      -5.593   3.702 124.464  0.00  0.00    +0.000 Cl
ATOM     15  C   UNL     1      -5.033   4.148 121.895  0.00  0.00    +0.000 A 
ATOM     16  C   UNL     1      -5.296   4.242 120.534  0.00  0.00    +0.000 A 
ATOM     17  C   UNL     1      -6.589   4.026 120.080  0.00  0.00    +0.000 A 
ATOM     18  C   UNL     1      -7.621   3.730 120.982  0.00  0.00    +0.000 A 
ATOM     19 CL   UNL     1      -9.216   3.743 120.300  0.00  0.00    +0.000 Cl
ENDBRANCH  11  12
ENDBRANCH   5  11
TORSDOF 2
ENDMDL
MODEL 2
REMARK VINA RESULT:      -6.0      3.582      6.057
REMARK  Name = Guanfacine
REMARK  2 active torsions:
REMARK  status: ('A' for Active; 'I' for Inactive)
REMARK    1  A    between atoms: C_5  and  C_7
REMARK    2  A    between atoms: C_7  and  C_8
REMARK                            x       y       z     vdW  Elec       q    Type
REMARK                         _______ _______ _______ _____ _____    ______ ____
ROOT
ATOM      1  N   UNL     1      -6.915   5.085 124.807  0.00  0.00    +0.000 N 
ATOM      2  C   UNL     1      -7.628   3.946 124.736  0.00  0.00    +0.000 C 
ATOM      3  N   UNL     1      -8.815   3.907 125.229  0.00  0.00    +0.000 NA
ATOM      4  N   UNL     1      -7.100   2.832 124.127  0.00  0.00    +0.000 N 
ATOM      5  C   UNL     1      -7.693   1.574 124.205  0.00  0.00    +0.000 C 
ATOM      6  O   UNL     1      -8.532   1.272 125.060  0.00  0.00    +0.000 OA
ATOM      7  H   UNL     1      -7.307   5.876 125.304  0.00  0.00    +0.000 HD
ATOM      8  H   UNL     1      -5.969   5.191 124.473  0.00  0.00    +0.000 HD
ATOM      9  H   UNL     1      -9.083   4.776 125.677  0.00  0.00    +0.000 HD
ATOM     10  H   UNL     1      -6.202   2.923 123.678  0.00  0.00    +0.000 HD
ENDROOT
BRANCH   5  11
ATOM     11  C   UNL     1      -7.154   0.478 123.274  0.00  0.00    +0.000 C 
BRANCH  11  12
ATOM     12  C   UNL     1      -7.614  -0.932 123.677  0.00  0.00    +0.000 A 
ATOM     13  C   UNL     1      -8.843  -1.466 123.232  0.00  0.00    +0.000 A 
ATOM     14 CL   UNL     1      -9.987  -0.533 122.328  0.00  0.00    +0.000 Cl
ATOM     15  C   UNL     1      -9.223  -2.786 123.532  0.00  0.00    +0.000 A 
ATOM     16  C   UNL     1      -8.378  -3.617 124.258  0.00  0.00    +0.000 A 
ATOM     17  C   UNL     1      -7.178  -3.109 124.736  0.00  0.00    +0.000 A 
ATOM     18  C   UNL     1      -6.829  -1.771 124.504  0.00  0.00    +0.000 A 
ATOM     19 CL   UNL     1      -5.436  -1.217 125.378  0.00  0.00    +0.000 Cl
ENDBRANCH  11  12
ENDBRANCH   5  11
TORSDOF 2
ENDMDL
MODEL 3
REMARK VINA RESULT:      -5.8      8.083      9.522
REMARK  Name = Guanfacine
REMARK  2 active torsions:
REMARK  status: ('A' for Active; 'I' for Inactive)
REMARK    1  A    between atoms: C_5  and  C_7
REMARK    2  A    between atoms: C_7  and  C_8
REMARK                            x       y       z     vdW  Elec       q    Type
REMARK                         _______ _______ _______ _____ _____    ______ ____
ROOT
ATOM      1  N   UNL     1      -8.658   1.695 130.667  0.00  0.00    +0.000 N 
ATOM      2  C   UNL     1      -8.887   2.722 129.828  0.00  0.00    +0.000 C 
ATOM      3  N   UNL     1      -9.266   2.486 128.622  0.00  0.00    +0.000 NA
ATOM      4  N   UNL     1      -8.730   4.019 130.258  0.00  0.00    +0.000 N 
ATOM      5  C   UNL     1      -8.745   5.110 129.393  0.00  0.00    +0.000 C 
ATOM      6  O   UNL     1      -8.574   5.010 128.173  0.00  0.00    +0.000 OA
ATOM      7  H   UNL     1      -8.731   0.749 130.311  0.00  0.00    +0.000 HD
ATOM      8  H   UNL     1      -8.330   1.791 131.615  0.00  0.00    +0.000 HD
ATOM      9  H   UNL     1      -9.317   1.496 128.413  0.00  0.00    +0.000 HD
ATOM     10  H   UNL     1      -8.513   4.168 131.231  0.00  0.00    +0.000 HD
ENDROOT
BRANCH   5  11
ATOM     11  C   UNL     1      -8.822   6.509 130.020  0.00  0.00    +0.000 C 
BRANCH  11  12
ATOM     12  C   UNL     1     -10.258   6.935 130.365  0.00  0.00    +0.000 A 
ATOM     13  C   UNL     1     -11.028   7.725 129.484  0.00  0.00    +0.000 A 
ATOM     14 CL   UNL     1     -10.376   8.395 128.027  0.00  0.00    +0.000 Cl
ATOM     15  C   UNL     1     -12.370   8.043 129.764  0.00  0.00    +0.000 A 
ATOM     16  C   UNL     1     -12.986   7.559 130.911  0.00  0.00    +0.000 A 
ATOM     17  C   UNL     1     -12.244   6.808 131.811  0.00  0.00    +0.000 A 
ATOM     18  C   UNL     1     -10.886   6.551 131.575  0.00  0.00    +0.000 A 
ATOM     19 CL   UNL     1     -10.036   5.828 132.903  0.00  0.00    +0.000 Cl
ENDBRANCH  11  12
ENDBRANCH   5  11
TORSDOF 2
ENDMDL
MODEL 4
REMARK VINA RESULT:      -5.7      3.239      6.138
REMARK  Name = Guanfacine
REMARK  2 active torsions:
REMARK  status: ('A' for Active; 'I' for Inactive)
REMARK    1  A    between atoms: C_5  and  C_7
REMARK    2  A    between atoms: C_7  and  C_8
REMARK                            x       y       z     vdW  Elec       q    Type
REMARK                         _______ _______ _______ _____ _____    ______ ____
ROOT
ATOM      1  N   UNL     1      -7.159   3.811 123.315  0.00  0.00    +0.000 N 
ATOM      2  C   UNL     1      -7.880   2.716 123.010  0.00  0.00    +0.000 C 
ATOM      3  N   UNL     1      -9.012   2.845 122.416  0.00  0.00    +0.000 NA
ATOM      4  N   UNL     1      -7.403   1.463 123.318  0.00  0.00    +0.000 N 
ATOM      5  C   UNL     1      -8.183   0.313 123.223  0.00  0.00    +0.000 C 
ATOM      6  O   UNL     1      -9.417   0.333 123.175  0.00  0.00    +0.000 OA
ATOM      7  H   UNL     1      -7.555   4.725 123.123  0.00  0.00    +0.000 HD
ATOM      8  H   UNL     1      -6.279   3.801 123.806  0.00  0.00    +0.000 HD
ATOM      9  H   UNL     1      -9.271   3.814 122.268  0.00  0.00    +0.000 HD
ATOM     10  H   UNL     1      -6.476   1.395 123.707  0.00  0.00    +0.000 HD
ENDROOT
BRANCH   5  11
ATOM     11  C   UNL     1      -7.467  -1.039 123.340  0.00  0.00    +0.000 C 
BRANCH  11  12
ATOM     12  C   UNL     1      -7.834  -1.805 124.621  0.00  0.00    +0.000 A 
ATOM     13  C   UNL     1      -7.113  -1.629 125.822  0.00  0.00    +0.000 A 
ATOM     14 CL   UNL     1      -5.682  -0.659 125.911  0.00  0.00    +0.000 Cl
ATOM     15  C   UNL     1      -7.502  -2.266 127.014  0.00  0.00    +0.000 A 
ATOM     16  C   UNL     1      -8.634  -3.071 127.048  0.00  0.00    +0.000 A 
ATOM     17  C   UNL     1      -9.343  -3.289 125.876  0.00  0.00    +0.000 A 
ATOM     18  C   UNL     1      -8.917  -2.717 124.669  0.00  0.00    +0.000 A 
ATOM     19 CL   UNL     1      -9.747  -3.285 123.256  0.00  0.00    +0.000 Cl
ENDBRANCH  11  12
ENDBRANCH   5  11
TORSDOF 2
ENDMDL
MODEL 5
REMARK VINA RESULT:      -5.7      4.070      6.127
REMARK  Name = Guanfacine
REMARK  2 active torsions:
REMARK  status: ('A' for Active; 'I' for Inactive)
REMARK    1  A    between atoms: C_5  and  C_7
REMARK    2  A    between atoms: C_7  and  C_8
REMARK                            x       y       z     vdW  Elec       q    Type
REMARK                         _______ _______ _______ _____ _____    ______ ____
ROOT
ATOM      1  N   UNL     1      -8.071   4.171 124.885  0.00  0.00    +0.000 N 
ATOM      2  C   UNL     1      -8.598   2.936 124.782  0.00  0.00    +0.000 C 
ATOM      3  N   UNL     1      -9.425   2.675 123.834  0.00  0.00    +0.000 NA
ATOM      4  N   UNL     1      -8.243   1.953 125.676  0.00  0.00    +0.000 N 
ATOM      5  C   UNL     1      -8.901   0.729 125.754  0.00  0.00    +0.000 C 
ATOM      6  O   UNL     1     -10.027   0.533 125.284  0.00  0.00    +0.000 OA
ATOM      7  H   UNL     1      -8.387   4.891 124.244  0.00  0.00    +0.000 HD
ATOM      8  H   UNL     1      -7.441   4.467 125.613  0.00  0.00    +0.000 HD
ATOM      9  H   UNL     1      -9.633   3.483 123.258  0.00  0.00    +0.000 HD
ATOM     10  H   UNL     1      -7.529   2.170 126.354  0.00  0.00    +0.000 HD
ENDROOT
BRANCH   5  11
ATOM     11  C   UNL     1      -8.250  -0.372 126.603  0.00  0.00    +0.000 C 
BRANCH  11  12
ATOM     12  C   UNL     1      -7.473  -1.398 125.764  0.00  0.00    +0.000 A 
ATOM     13  C   UNL     1      -8.066  -2.607 125.336  0.00  0.00    +0.000 A 
ATOM     14 CL   UNL     1      -9.650  -3.092 125.840  0.00  0.00    +0.000 Cl
ATOM     15  C   UNL     1      -7.382  -3.506 124.498  0.00  0.00    +0.000 A 
ATOM     16  C   UNL     1      -6.103  -3.212 124.041  0.00  0.00    +0.000 A 
ATOM     17  C   UNL     1      -5.483  -2.048 124.472  0.00  0.00    +0.000 A 
ATOM     18  C   UNL     1      -6.131  -1.185 125.367  0.00  0.00    +0.000 A 
ATOM     19 CL   UNL     1      -5.137   0.083 126.010  0.00  0.00    +0.000 Cl
ENDBRANCH  11  12
ENDBRANCH   5  11
TORSDOF 2
ENDMDL
MODEL 6
REMARK VINA RESULT:      -5.7      3.596      6.024
REMARK  Name = Guanfacine
REMARK  2 active torsions:
REMARK  status: ('A' for Active; 'I' for Inactive)
REMARK    1  A    between atoms: C_5  and  C_7
REMARK    2  A    between atoms: C_7  and  C_8
REMARK                            x       y       z     vdW  Elec       q    Type
REMARK                         _______ _______ _______ _____ _____    ______ ____
ROOT
ATOM      1  N   UNL     1      -8.198   3.463 122.599  0.00  0.00    +0.000 N 
ATOM      2  C   UNL     1      -8.176   2.836 123.790  0.00  0.00    +0.000 C 
ATOM      3  N   UNL     1      -8.927   3.256 124.745  0.00  0.00    +0.000 NA
ATOM      4  N   UNL     1      -7.365   1.742 123.984  0.00  0.00    +0.000 N 
ATOM      5  C   UNL     1      -7.139   1.181 125.238  0.00  0.00    +0.000 C 
ATOM      6  O   UNL     1      -7.361   1.777 126.297  0.00  0.00    +0.000 OA
ATOM      7  H   UNL     1      -8.766   4.297 122.498  0.00  0.00    +0.000 HD
ATOM      8  H   UNL     1      -7.620   3.218 121.811  0.00  0.00    +0.000 HD
ATOM      9  H   UNL     1      -9.456   4.084 124.494  0.00  0.00    +0.000 HD
ATOM     10  H   UNL     1      -6.853   1.390 123.190  0.00  0.00    +0.000 HD
ENDROOT
BRANCH   5  11
ATOM     11  C   UNL     1      -6.432  -0.181 125.288  0.00  0.00    +0.000 C 
BRANCH  11  12
ATOM     12  C   UNL     1      -7.381  -1.360 125.017  0.00  0.00    +0.000 A 
ATOM     13  C   UNL     1      -8.184  -1.914 126.038  0.00  0.00    +0.000 A 
ATOM     14 CL   UNL     1      -8.060  -1.413 127.691  0.00  0.00    +0.000 Cl
ATOM     15  C   UNL     1      -9.112  -2.936 125.771  0.00  0.00    +0.000 A 
ATOM     16  C   UNL     1      -9.285  -3.413 124.477  0.00  0.00    +0.000 A 
ATOM     17  C   UNL     1      -8.486  -2.911 123.460  0.00  0.00    +0.000 A 
ATOM     18  C   UNL     1      -7.507  -1.946 123.734  0.00  0.00    +0.000 A 
ATOM     19 CL   UNL     1      -6.423  -1.609 122.422  0.00  0.00    +0.000 Cl
ENDBRANCH  11  12
ENDBRANCH   5  11
TORSDOF 2
ENDMDL
MODEL 7
REMARK VINA RESULT:      -5.7      4.003      5.773
REMARK  Name = Guanfacine
REMARK  2 active torsions:
REMARK  status: ('A' for Active; 'I' for Inactive)
REMARK    1  A    between atoms: C_5  and  C_7
REMARK    2  A    between atoms: C_7  and  C_8
REMARK                            x       y       z     vdW  Elec       q    Type
REMARK                         _______ _______ _______ _____ _____    ______ ____
ROOT
ATOM      1  N   UNL     1      -8.320   3.507 124.158  0.00  0.00    +0.000 N 
ATOM      2  C   UNL     1      -8.913   2.325 124.407  0.00  0.00    +0.000 C 
ATOM      3  N   UNL     1     -10.010   2.025 123.808  0.00  0.00    +0.000 NA
ATOM      4  N   UNL     1      -8.344   1.434 125.287  0.00  0.00    +0.000 N 
ATOM      5  C   UNL     1      -9.005   0.298 125.746  0.00  0.00    +0.000 C 
ATOM      6  O   UNL     1     -10.230   0.152 125.677  0.00  0.00    +0.000 OA
ATOM      7  H   UNL     1      -8.786   4.166 123.544  0.00  0.00    +0.000 HD
ATOM      8  H   UNL     1      -7.478   3.832 124.605  0.00  0.00    +0.000 HD
ATOM      9  H   UNL     1     -10.348   2.769 123.208  0.00  0.00    +0.000 HD
ATOM     10  H   UNL     1      -7.443   1.667 125.674  0.00  0.00    +0.000 HD
ENDROOT
BRANCH   5  11
ATOM     11  C   UNL     1      -8.176  -0.743 126.510  0.00  0.00    +0.000 C 
BRANCH  11  12
ATOM     12  C   UNL     1      -7.313  -1.619 125.589  0.00  0.00    +0.000 A 
ATOM     13  C   UNL     1      -5.953  -1.325 125.347  0.00  0.00    +0.000 A 
ATOM     14 CL   UNL     1      -5.194   0.111 125.945  0.00  0.00    +0.000 Cl
ATOM     15  C   UNL     1      -5.143  -2.174 124.571  0.00  0.00    +0.000 A 
ATOM     16  C   UNL     1      -5.658  -3.351 124.041  0.00  0.00    +0.000 A 
ATOM     17  C   UNL     1      -6.999  -3.648 124.234  0.00  0.00    +0.000 A 
ATOM     18  C   UNL     1      -7.829  -2.769 124.943  0.00  0.00    +0.000 A 
ATOM     19 CL   UNL     1      -9.521  -3.146 124.878  0.00  0.00    +0.000 Cl
ENDBRANCH  11  12
ENDBRANCH   5  11
TORSDOF 2
ENDMDL
MODEL 8
REMARK VINA RESULT:      -5.7      7.991      9.217
REMARK  Name = Guanfacine
REMARK  2 active torsions:
REMARK  status: ('A' for Active; 'I' for Inactive)
REMARK    1  A    between atoms: C_5  and  C_7
REMARK    2  A    between atoms: C_7  and  C_8
REMARK                            x       y       z     vdW  Elec       q    Type
REMARK                         _______ _______ _______ _____ _____    ______ ____
ROOT
ATOM      1  N   UNL     1      -8.044   1.731 130.294  0.00  0.00    +0.000 N 
ATOM      2  C   UNL     1      -8.540   2.759 129.581  0.00  0.00    +0.000 C 
ATOM      3  N   UNL     1      -9.123   2.532 128.458  0.00  0.00    +0.000 NA
ATOM      4  N   UNL     1      -8.438   4.046 130.055  0.00  0.00    +0.000 N 
ATOM      5  C   UNL     1      -8.737   5.163 129.279  0.00  0.00    +0.000 C 
ATOM      6  O   UNL     1      -8.801   5.135 128.045  0.00  0.00    +0.000 OA
ATOM      7  H   UNL     1      -8.087   0.798 129.900  0.00  0.00    +0.000 HD
ATOM      8  H   UNL     1      -7.547   1.824 131.167  0.00  0.00    +0.000 HD
ATOM      9  H   UNL     1      -9.110   1.552 128.200  0.00  0.00    +0.000 HD
ATOM     10  H   UNL     1      -8.051   4.179 130.975  0.00  0.00    +0.000 HD
ENDROOT
BRANCH   5  11
ATOM     11  C   UNL     1      -8.836   6.517 129.996  0.00  0.00    +0.000 C 
BRANCH  11  12
ATOM     12  C   UNL     1     -10.284   6.937 130.291  0.00  0.00    +0.000 A 
ATOM     13  C   UNL     1     -10.954   6.518 131.461  0.00  0.00    +0.000 A 
ATOM     14 CL   UNL     1     -10.257   5.390 132.574  0.00  0.00    +0.000 Cl
ATOM     15  C   UNL     1     -12.249   6.971 131.770  0.00  0.00    +0.000 A 
ATOM     16  C   UNL     1     -12.899   7.875 130.938  0.00  0.00    +0.000 A 
ATOM     17  C   UNL     1     -12.279   8.278 129.765  0.00  0.00    +0.000 A 
ATOM     18  C   UNL     1     -11.019   7.772 129.414  0.00  0.00    +0.000 A 
ATOM     19 CL   UNL     1     -10.493   8.165 127.808  0.00  0.00    +0.000 Cl
ENDBRANCH  11  12
ENDBRANCH   5  11
TORSDOF 2
ENDMDL
MODEL 9
REMARK VINA RESULT:      -5.5      4.557      6.473
REMARK  Name = Guanfacine
REMARK  2 active torsions:
REMARK  status: ('A' for Active; 'I' for Inactive)
REMARK    1  A    between atoms: C_5  and  C_7
REMARK    2  A    between atoms: C_7  and  C_8
REMARK                            x       y       z     vdW  Elec       q    Type
REMARK                         _______ _______ _______ _____ _____    ______ ____
ROOT
ATOM      1  N   UNL     1      -9.613   1.806 124.022  0.00  0.00    +0.000 N 
ATOM      2  C   UNL     1      -9.718   0.601 123.433  0.00  0.00    +0.000 C 
ATOM      3  N   UNL     1     -10.572   0.425 122.488  0.00  0.00    +0.000 NA
ATOM      4  N   UNL     1      -8.906  -0.438 123.827  0.00  0.00    +0.000 N 
ATOM      5  C   UNL     1      -9.104  -1.752 123.411  0.00  0.00    +0.000 C 
ATOM      6  O   UNL     1     -10.170  -2.160 122.939  0.00  0.00    +0.000 OA
ATOM      7  H   UNL     1     -10.257   2.540 123.748  0.00  0.00    +0.000 HD
ATOM      8  H   UNL     1      -8.993   2.019 124.787  0.00  0.00    +0.000 HD
ATOM      9  H   UNL     1     -11.132   1.251 122.306  0.00  0.00    +0.000 HD
ATOM     10  H   UNL     1      -8.192  -0.243 124.511  0.00  0.00    +0.000 HD
ENDROOT
BRANCH   5  11
ATOM     11  C   UNL     1      -7.988  -2.763 123.706  0.00  0.00    +0.000 C 
BRANCH  11  12
ATOM     12  C   UNL     1      -7.416  -2.631 125.127  0.00  0.00    +0.000 A 
ATOM     13  C   UNL     1      -6.040  -2.415 125.355  0.00  0.00    +0.000 A 
ATOM     14 CL   UNL     1      -4.875  -2.428 124.074  0.00  0.00    +0.000 Cl
ATOM     15  C   UNL     1      -5.532  -2.211 126.650  0.00  0.00    +0.000 A 
ATOM     16  C   UNL     1      -6.384  -2.188 127.748  0.00  0.00    +0.000 A 
ATOM     17  C   UNL     1      -7.737  -2.430 127.558  0.00  0.00    +0.000 A 
ATOM     18  C   UNL     1      -8.237  -2.709 126.278  0.00  0.00    +0.000 A 
ATOM     19 CL   UNL     1      -9.887  -3.243 126.238  0.00  0.00    +0.000 Cl
ENDBRANCH  11  12
ENDBRANCH   5  11
TORSDOF 2
ENDMDL
