MODEL 1
REMARK VINA RESULT:      -6.2      0.000      0.000
REMARK  Name = Guanadrel
REMARK  2 active torsions:
REMARK  status: ('A' for Active; 'I' for Inactive)
REMARK    1  A    between atoms: N_4  and  C_5
REMARK    2  A    between atoms: C_5  and  C_6
REMARK                            x       y       z     vdW  Elec       q    Type
REMARK                         _______ _______ _______ _____ _____    ______ ____
ROOT
ATOM      1  C   UNL     1      -8.718   5.198 129.891  0.00  0.00    +0.000 C 
ATOM      2  C   UNL     1      -8.586   6.536 130.602  0.00  0.00    +0.000 C 
ATOM      3  O   UNL     1      -9.853   7.170 130.538  0.00  0.00    +0.000 OA
ATOM      4  C   UNL     1     -10.609   6.442 129.576  0.00  0.00    +0.000 C 
ATOM      5  C   UNL     1     -10.487   7.177 128.233  0.00  0.00    +0.000 C 
ATOM      6  C   UNL     1     -11.060   8.595 128.319  0.00  0.00    +0.000 C 
ATOM      7  C   UNL     1     -12.498   8.598 128.837  0.00  0.00    +0.000 C 
ATOM      8  C   UNL     1     -12.646   7.818 130.142  0.00  0.00    +0.000 C 
ATOM      9  C   UNL     1     -12.068   6.408 130.029  0.00  0.00    +0.000 C 
ATOM     10  O   UNL     1     -10.094   5.110 129.485  0.00  0.00    +0.000 OA
ENDROOT
BRANCH   1  11
ATOM     11  C   UNL     1      -8.295   4.022 130.780  0.00  0.00    +0.000 C 
BRANCH  11  15
ATOM     12  N   UNL     1      -9.656   4.012 134.122  0.00  0.00    +0.000 N 
ATOM     13  C   UNL     1      -9.341   3.629 132.877  0.00  0.00    +0.000 C 
ATOM     14  N   UNL     1      -9.935   2.489 132.493  0.00  0.00    +0.000 N 
ATOM     15  N   UNL     1      -8.556   4.367 132.179  0.00  0.00    +0.000 NA
ATOM     16  H   UNL     1     -10.292   3.511 134.720  0.00  0.00    +0.000 HD
ATOM     17  H   UNL     1      -9.378   4.945 134.404  0.00  0.00    +0.000 HD
ATOM     18  H   UNL     1     -10.327   1.859 133.176  0.00  0.00    +0.000 HD
ATOM     19  H   UNL     1      -9.611   2.060 131.637  0.00  0.00    +0.000 HD
ENDBRANCH  11  15
ENDBRANCH   1  11
TORSDOF 2
ENDMDL
MODEL 2
REMARK VINA RESULT:      -6.0      1.358      2.322
REMARK  Name = Guanadrel
REMARK  2 active torsions:
REMARK  status: ('A' for Active; 'I' for Inactive)
REMARK    1  A    between atoms: N_4  and  C_5
REMARK    2  A    between atoms: C_5  and  C_6
REMARK                            x       y       z     vdW  Elec       q    Type
REMARK                         _______ _______ _______ _____ _____    ______ ____
ROOT
ATOM      1  C   UNL     1     -10.390   6.038 131.606  0.00  0.00    +0.000 C 
ATOM      2  C   UNL     1     -10.633   5.020 130.504  0.00  0.00    +0.000 C 
ATOM      3  O   UNL     1     -10.975   5.745 129.334  0.00  0.00    +0.000 OA
ATOM      4  C   UNL     1     -11.253   7.073 129.762  0.00  0.00    +0.000 C 
ATOM      5  C   UNL     1     -12.773   7.198 129.942  0.00  0.00    +0.000 C 
ATOM      6  C   UNL     1     -13.513   6.955 128.624  0.00  0.00    +0.000 C 
ATOM      7  C   UNL     1     -13.001   7.862 127.506  0.00  0.00    +0.000 C 
ATOM      8  C   UNL     1     -11.483   7.795 127.355  0.00  0.00    +0.000 C 
ATOM      9  C   UNL     1     -10.768   8.042 128.684  0.00  0.00    +0.000 C 
ATOM     10  O   UNL     1     -10.563   7.325 130.990  0.00  0.00    +0.000 OA
ENDROOT
BRANCH   1  11
ATOM     11  C   UNL     1      -9.006   5.881 132.249  0.00  0.00    +0.000 C 
BRANCH  11  15
ATOM     12  N   UNL     1      -8.208   2.550 133.387  0.00  0.00    +0.000 N 
ATOM     13  C   UNL     1      -8.639   3.819 133.372  0.00  0.00    +0.000 C 
ATOM     14  N   UNL     1      -8.996   4.285 134.579  0.00  0.00    +0.000 N 
ATOM     15  N   UNL     1      -8.647   4.462 132.261  0.00  0.00    +0.000 NA
ATOM     16  H   UNL     1      -8.135   1.991 134.220  0.00  0.00    +0.000 HD
ATOM     17  H   UNL     1      -7.767   2.202 132.544  0.00  0.00    +0.000 HD
ATOM     18  H   UNL     1      -9.191   3.650 135.337  0.00  0.00    +0.000 HD
ATOM     19  H   UNL     1      -9.485   5.170 134.611  0.00  0.00    +0.000 HD
ENDBRANCH  11  15
ENDBRANCH   1  11
TORSDOF 2
ENDMDL
MODEL 3
REMARK VINA RESULT:      -5.9      9.012     10.719
REMARK  Name = Guanadrel
REMARK  2 active torsions:
REMARK  status: ('A' for Active; 'I' for Inactive)
REMARK    1  A    between atoms: N_4  and  C_5
REMARK    2  A    between atoms: C_5  and  C_6
REMARK                            x       y       z     vdW  Elec       q    Type
REMARK                         _______ _______ _______ _____ _____    ______ ____
ROOT
ATOM      1  C   UNL     1      -8.861   1.280 123.127  0.00  0.00    +0.000 C 
ATOM      2  C   UNL     1      -9.932   0.804 124.096  0.00  0.00    +0.000 C 
ATOM      3  O   UNL     1      -9.459  -0.399 124.681  0.00  0.00    +0.000 OA
ATOM      4  C   UNL     1      -8.349  -0.811 123.892  0.00  0.00    +0.000 C 
ATOM      5  C   UNL     1      -8.857  -1.839 122.870  0.00  0.00    +0.000 C 
ATOM      6  C   UNL     1      -9.436  -3.075 123.564  0.00  0.00    +0.000 C 
ATOM      7  C   UNL     1      -8.443  -3.696 124.545  0.00  0.00    +0.000 C 
ATOM      8  C   UNL     1      -7.881  -2.672 125.529  0.00  0.00    +0.000 C 
ATOM      9  C   UNL     1      -7.309  -1.449 124.812  0.00  0.00    +0.000 C 
ATOM     10  O   UNL     1      -7.787   0.333 123.240  0.00  0.00    +0.000 OA
ENDROOT
BRANCH   1  11
ATOM     11  C   UNL     1      -8.407   2.716 123.421  0.00  0.00    +0.000 C 
BRANCH  11  15
ATOM     12  N   UNL     1      -6.002   3.618 120.887  0.00  0.00    +0.000 N 
ATOM     13  C   UNL     1      -7.156   3.493 121.557  0.00  0.00    +0.000 C 
ATOM     14  N   UNL     1      -8.228   3.927 120.876  0.00  0.00    +0.000 N 
ATOM     15  N   UNL     1      -7.143   2.965 122.727  0.00  0.00    +0.000 NA
ATOM     16  H   UNL     1      -5.931   3.986 119.953  0.00  0.00    +0.000 HD
ATOM     17  H   UNL     1      -5.189   3.155 121.275  0.00  0.00    +0.000 HD
ATOM     18  H   UNL     1      -8.120   4.542 120.085  0.00  0.00    +0.000 HD
ATOM     19  H   UNL     1      -9.098   4.016 121.385  0.00  0.00    +0.000 HD
ENDBRANCH  11  15
ENDBRANCH   1  11
TORSDOF 2
ENDMDL
MODEL 4
REMARK VINA RESULT:      -5.8      8.843     10.734
REMARK  Name = Guanadrel
REMARK  2 active torsions:
REMARK  status: ('A' for Active; 'I' for Inactive)
REMARK    1  A    between atoms: N_4  and  C_5
REMARK    2  A    between atoms: C_5  and  C_6
REMARK                            x       y       z     vdW  Elec       q    Type
REMARK                         _______ _______ _______ _____ _____    ______ ____
ROOT
ATOM      1  C   UNL     1      -9.570   0.246 124.097  0.00  0.00    +0.000 C 
ATOM      2  C   UNL     1      -8.882  -0.036 125.423  0.00  0.00    +0.000 C 
ATOM      3  O   UNL     1      -7.729  -0.812 125.138  0.00  0.00    +0.000 OA
ATOM      4  C   UNL     1      -7.879  -1.260 123.796  0.00  0.00    +0.000 C 
ATOM      5  C   UNL     1      -8.476  -2.674 123.838  0.00  0.00    +0.000 C 
ATOM      6  C   UNL     1      -7.547  -3.650 124.567  0.00  0.00    +0.000 C 
ATOM      7  C   UNL     1      -6.139  -3.648 123.975  0.00  0.00    +0.000 C 
ATOM      8  C   UNL     1      -5.555  -2.241 123.869  0.00  0.00    +0.000 C 
ATOM      9  C   UNL     1      -6.500  -1.288 123.137  0.00  0.00    +0.000 C 
ATOM     10  O   UNL     1      -8.737  -0.356 123.093  0.00  0.00    +0.000 OA
ENDROOT
BRANCH   1  11
ATOM     11  C   UNL     1      -9.780   1.747 123.858  0.00  0.00    +0.000 C 
BRANCH  11  15
ATOM     12  N   UNL     1      -7.479   3.553 121.745  0.00  0.00    +0.000 N 
ATOM     13  C   UNL     1      -8.129   3.113 122.831  0.00  0.00    +0.000 C 
ATOM     14  N   UNL     1      -7.816   3.773 123.956  0.00  0.00    +0.000 N 
ATOM     15  N   UNL     1      -8.980   2.160 122.704  0.00  0.00    +0.000 NA
ATOM     16  H   UNL     1      -6.826   4.319 121.753  0.00  0.00    +0.000 HD
ATOM     17  H   UNL     1      -7.798   3.213 120.845  0.00  0.00    +0.000 HD
ATOM     18  H   UNL     1      -6.974   4.326 124.010  0.00  0.00    +0.000 HD
ATOM     19  H   UNL     1      -8.141   3.384 124.831  0.00  0.00    +0.000 HD
ENDBRANCH  11  15
ENDBRANCH   1  11
TORSDOF 2
ENDMDL
MODEL 5
REMARK VINA RESULT:      -5.7      2.371      3.251
REMARK  Name = Guanadrel
REMARK  2 active torsions:
REMARK  status: ('A' for Active; 'I' for Inactive)
REMARK    1  A    between atoms: N_4  and  C_5
REMARK    2  A    between atoms: C_5  and  C_6
REMARK                            x       y       z     vdW  Elec       q    Type
REMARK                         _______ _______ _______ _____ _____    ______ ____
ROOT
ATOM      1  C   UNL     1      -9.427   6.748 130.808  0.00  0.00    +0.000 C 
ATOM      2  C   UNL     1      -9.997   5.472 130.209  0.00  0.00    +0.000 C 
ATOM      3  O   UNL     1     -10.693   5.840 129.028  0.00  0.00    +0.000 OA
ATOM      4  C   UNL     1     -10.831   7.256 129.078  0.00  0.00    +0.000 C 
ATOM      5  C   UNL     1     -12.218   7.570 129.656  0.00  0.00    +0.000 C 
ATOM      6  C   UNL     1     -13.333   7.011 128.766  0.00  0.00    +0.000 C 
ATOM      7  C   UNL     1     -13.202   7.488 127.321  0.00  0.00    +0.000 C 
ATOM      8  C   UNL     1     -11.806   7.237 126.751  0.00  0.00    +0.000 C 
ATOM      9  C   UNL     1     -10.713   7.805 127.657  0.00  0.00    +0.000 C 
ATOM     10  O   UNL     1      -9.792   7.800 129.899  0.00  0.00    +0.000 OA
ENDROOT
BRANCH   1  11
ATOM     11  C   UNL     1      -7.910   6.663 131.022  0.00  0.00    +0.000 C 
BRANCH  11  15
ATOM     12  N   UNL     1      -5.721   4.471 129.172  0.00  0.00    +0.000 N 
ATOM     13  C   UNL     1      -6.317   5.111 130.188  0.00  0.00    +0.000 C 
ATOM     14  N   UNL     1      -5.743   4.889 131.380  0.00  0.00    +0.000 N 
ATOM     15  N   UNL     1      -7.322   5.870 129.942  0.00  0.00    +0.000 NA
ATOM     16  H   UNL     1      -4.906   3.889 129.275  0.00  0.00    +0.000 HD
ATOM     17  H   UNL     1      -5.999   4.733 128.234  0.00  0.00    +0.000 HD
ATOM     18  H   UNL     1      -5.128   4.102 131.516  0.00  0.00    +0.000 HD
ATOM     19  H   UNL     1      -6.240   5.203 132.203  0.00  0.00    +0.000 HD
ENDBRANCH  11  15
ENDBRANCH   1  11
TORSDOF 2
ENDMDL
MODEL 6
REMARK VINA RESULT:      -5.5      2.283      3.419
REMARK  Name = Guanadrel
REMARK  2 active torsions:
REMARK  status: ('A' for Active; 'I' for Inactive)
REMARK    1  A    between atoms: N_4  and  C_5
REMARK    2  A    between atoms: C_5  and  C_6
REMARK                            x       y       z     vdW  Elec       q    Type
REMARK                         _______ _______ _______ _____ _____    ______ ____
ROOT
ATOM      1  C   UNL     1      -9.916   4.218 131.005  0.00  0.00    +0.000 C 
ATOM      2  C   UNL     1     -11.198   4.020 130.213  0.00  0.00    +0.000 C 
ATOM      3  O   UNL     1     -11.597   5.296 129.739  0.00  0.00    +0.000 OA
ATOM      4  C   UNL     1     -10.820   6.244 130.463  0.00  0.00    +0.000 C 
ATOM      5  C   UNL     1     -11.664   6.732 131.650  0.00  0.00    +0.000 C 
ATOM      6  C   UNL     1     -12.945   7.425 131.176  0.00  0.00    +0.000 C 
ATOM      7  C   UNL     1     -12.652   8.554 130.189  0.00  0.00    +0.000 C 
ATOM      8  C   UNL     1     -11.762   8.098 129.034  0.00  0.00    +0.000 C 
ATOM      9  C   UNL     1     -10.491   7.412 129.533  0.00  0.00    +0.000 C 
ATOM     10  O   UNL     1      -9.612   5.619 130.908  0.00  0.00    +0.000 OA
ENDROOT
BRANCH   1  11
ATOM     11  C   UNL     1      -8.771   3.336 130.490  0.00  0.00    +0.000 C 
BRANCH  11  15
ATOM     12  N   UNL     1      -7.787   4.075 127.098  0.00  0.00    +0.000 N 
ATOM     13  C   UNL     1      -7.748   3.932 128.430  0.00  0.00    +0.000 C 
ATOM     14  N   UNL     1      -6.632   4.416 128.996  0.00  0.00    +0.000 N 
ATOM     15  N   UNL     1      -8.749   3.394 129.028  0.00  0.00    +0.000 NA
ATOM     16  H   UNL     1      -7.061   4.519 126.559  0.00  0.00    +0.000 HD
ATOM     17  H   UNL     1      -8.669   3.887 126.638  0.00  0.00    +0.000 HD
ATOM     18  H   UNL     1      -5.808   4.590 128.441  0.00  0.00    +0.000 HD
ATOM     19  H   UNL     1      -6.466   4.190 129.968  0.00  0.00    +0.000 HD
ENDBRANCH  11  15
ENDBRANCH   1  11
TORSDOF 2
ENDMDL
MODEL 7
REMARK VINA RESULT:      -5.4      1.392      1.806
REMARK  Name = Guanadrel
REMARK  2 active torsions:
REMARK  status: ('A' for Active; 'I' for Inactive)
REMARK    1  A    between atoms: N_4  and  C_5
REMARK    2  A    between atoms: C_5  and  C_6
REMARK                            x       y       z     vdW  Elec       q    Type
REMARK                         _______ _______ _______ _____ _____    ______ ____
ROOT
ATOM      1  C   UNL     1      -9.198   4.975 130.136  0.00  0.00    +0.000 C 
ATOM      2  C   UNL     1      -8.850   6.332 130.725  0.00  0.00    +0.000 C 
ATOM      3  O   UNL     1      -9.986   7.165 130.555  0.00  0.00    +0.000 OA
ATOM      4  C   UNL     1     -10.836   6.486 129.637  0.00  0.00    +0.000 C 
ATOM      5  C   UNL     1     -10.561   7.055 128.237  0.00  0.00    +0.000 C 
ATOM      6  C   UNL     1     -10.881   8.551 128.170  0.00  0.00    +0.000 C 
ATOM      7  C   UNL     1     -12.306   8.851 128.631  0.00  0.00    +0.000 C 
ATOM      8  C   UNL     1     -12.615   8.239 129.997  0.00  0.00    +0.000 C 
ATOM      9  C   UNL     1     -12.288   6.746 130.037  0.00  0.00    +0.000 C 
ATOM     10  O   UNL     1     -10.559   5.083 129.689  0.00  0.00    +0.000 OA
ENDROOT
BRANCH   1  11
ATOM     11  C   UNL     1      -9.003   3.836 131.146  0.00  0.00    +0.000 C 
BRANCH  11  15
ATOM     12  N   UNL     1      -8.179   0.430 130.283  0.00  0.00    +0.000 N 
ATOM     13  C   UNL     1      -8.757   1.489 130.867  0.00  0.00    +0.000 C 
ATOM     14  N   UNL     1      -9.573   1.170 131.883  0.00  0.00    +0.000 N 
ATOM     15  N   UNL     1      -8.471   2.667 130.444  0.00  0.00    +0.000 NA
ATOM     16  H   UNL     1      -8.321  -0.522 130.579  0.00  0.00    +0.000 HD
ATOM     17  H   UNL     1      -7.427   0.615 129.630  0.00  0.00    +0.000 HD
ATOM     18  H   UNL     1      -9.926   0.231 131.983  0.00  0.00    +0.000 HD
ATOM     19  H   UNL     1     -10.165   1.902 132.253  0.00  0.00    +0.000 HD
ENDBRANCH  11  15
ENDBRANCH   1  11
TORSDOF 2
ENDMDL
MODEL 8
REMARK VINA RESULT:      -5.4      1.862      2.727
REMARK  Name = Guanadrel
REMARK  2 active torsions:
REMARK  status: ('A' for Active; 'I' for Inactive)
REMARK    1  A    between atoms: N_4  and  C_5
REMARK    2  A    between atoms: C_5  and  C_6
REMARK                            x       y       z     vdW  Elec       q    Type
REMARK                         _______ _______ _______ _____ _____    ______ ____
ROOT
ATOM      1  C   UNL     1      -9.798   4.291 131.443  0.00  0.00    +0.000 C 
ATOM      2  C   UNL     1     -10.856   4.002 130.390  0.00  0.00    +0.000 C 
ATOM      3  O   UNL     1     -11.203   5.242 129.796  0.00  0.00    +0.000 OA
ATOM      4  C   UNL     1     -10.659   6.249 130.643  0.00  0.00    +0.000 C 
ATOM      5  C   UNL     1     -11.773   6.713 131.593  0.00  0.00    +0.000 C 
ATOM      6  C   UNL     1     -12.948   7.320 130.821  0.00  0.00    +0.000 C 
ATOM      7  C   UNL     1     -12.499   8.442 129.887  0.00  0.00    +0.000 C 
ATOM      8  C   UNL     1     -11.349   8.014 128.977  0.00  0.00    +0.000 C 
ATOM      9  C   UNL     1     -10.189   7.413 129.771  0.00  0.00    +0.000 C 
ATOM     10  O   UNL     1      -9.553   5.705 131.369  0.00  0.00    +0.000 OA
ENDROOT
BRANCH   1  11
ATOM     11  C   UNL     1      -8.522   3.465 131.228  0.00  0.00    +0.000 C 
BRANCH  11  15
ATOM     12  N   UNL     1      -8.876  -0.094 131.709  0.00  0.00    +0.000 N 
ATOM     13  C   UNL     1      -8.613   1.093 131.143  0.00  0.00    +0.000 C 
ATOM     14  N   UNL     1      -8.313   1.017 129.838  0.00  0.00    +0.000 N 
ATOM     15  N   UNL     1      -8.694   2.155 131.858  0.00  0.00    +0.000 NA
ATOM     16  H   UNL     1      -8.871  -0.968 131.210  0.00  0.00    +0.000 HD
ATOM     17  H   UNL     1      -9.273  -0.084 132.641  0.00  0.00    +0.000 HD
ATOM     18  H   UNL     1      -8.033   0.140 129.425  0.00  0.00    +0.000 HD
ATOM     19  H   UNL     1      -7.943   1.847 129.395  0.00  0.00    +0.000 HD
ENDBRANCH  11  15
ENDBRANCH   1  11
TORSDOF 2
ENDMDL
MODEL 9
REMARK VINA RESULT:      -5.4      3.471      5.527
REMARK  Name = Guanadrel
REMARK  2 active torsions:
REMARK  status: ('A' for Active; 'I' for Inactive)
REMARK    1  A    between atoms: N_4  and  C_5
REMARK    2  A    between atoms: C_5  and  C_6
REMARK                            x       y       z     vdW  Elec       q    Type
REMARK                         _______ _______ _______ _____ _____    ______ ____
ROOT
ATOM      1  C   UNL     1     -10.110   6.616 129.980  0.00  0.00    +0.000 C 
ATOM      2  C   UNL     1      -9.440   5.271 129.748  0.00  0.00    +0.000 C 
ATOM      3  O   UNL     1      -8.639   5.002 130.888  0.00  0.00    +0.000 OA
ATOM      4  C   UNL     1      -8.553   6.228 131.606  0.00  0.00    +0.000 C 
ATOM      5  C   UNL     1      -7.243   6.918 131.198  0.00  0.00    +0.000 C 
ATOM      6  C   UNL     1      -6.026   6.063 131.562  0.00  0.00    +0.000 C 
ATOM      7  C   UNL     1      -6.023   5.674 133.039  0.00  0.00    +0.000 C 
ATOM      8  C   UNL     1      -7.343   5.041 133.475  0.00  0.00    +0.000 C 
ATOM      9  C   UNL     1      -8.542   5.914 133.102  0.00  0.00    +0.000 C 
ATOM     10  O   UNL     1      -9.687   7.040 131.286  0.00  0.00    +0.000 OA
ENDROOT
BRANCH   1  11
ATOM     11  C   UNL     1     -11.637   6.534 129.858  0.00  0.00    +0.000 C 
BRANCH  11  15
ATOM     12  N   UNL     1     -12.865   9.795 128.919  0.00  0.00    +0.000 N 
ATOM     13  C   UNL     1     -12.459   8.520 128.844  0.00  0.00    +0.000 C 
ATOM     14  N   UNL     1     -12.351   8.057 127.590  0.00  0.00    +0.000 N 
ATOM     15  N   UNL     1     -12.191   7.887 129.928  0.00  0.00    +0.000 NA
ATOM     16  H   UNL     1     -13.059  10.371 128.116  0.00  0.00    +0.000 HD
ATOM     17  H   UNL     1     -12.800  10.249 129.822  0.00  0.00    +0.000 HD
ATOM     18  H   UNL     1     -12.810   8.530 126.826  0.00  0.00    +0.000 HD
ATOM     19  H   UNL     1     -12.213   7.062 127.470  0.00  0.00    +0.000 HD
ENDBRANCH  11  15
ENDBRANCH   1  11
TORSDOF 2
ENDMDL
