MODEL 1
REMARK VINA RESULT:      -6.1      0.000      0.000
REMARK  Name = Guanethidine
REMARK  3 active torsions:
REMARK  status: ('A' for Active; 'I' for Inactive)
REMARK    1  A    between atoms: N_4  and  C_5
REMARK    2  A    between atoms: C_5  and  C_6
REMARK    3  A    between atoms: C_6  and  N_7
REMARK                            x       y       z     vdW  Elec       q    Type
REMARK                         _______ _______ _______ _____ _____    ______ ____
ROOT
ATOM      1  C   UNL     1     -10.867   6.254 132.123  0.00  0.00    +0.000 C 
ENDROOT
BRANCH   1   5
ATOM      2  N   UNL     1      -7.795   5.320 133.640  0.00  0.00    +0.000 N 
ATOM      3  C   UNL     1      -9.080   5.369 133.263  0.00  0.00    +0.000 C 
ATOM      4  N   UNL     1      -9.797   4.322 133.734  0.00  0.00    +0.000 N 
ATOM      5  N   UNL     1      -9.463   6.336 132.513  0.00  0.00    +0.000 NA
ATOM      6  H   UNL     1      -7.409   4.630 134.255  0.00  0.00    +0.000 HD
ATOM      7  H   UNL     1      -7.208   6.073 133.306  0.00  0.00    +0.000 HD
ATOM      8  H   UNL     1      -9.417   3.656 134.384  0.00  0.00    +0.000 HD
ATOM      9  H   UNL     1     -10.792   4.269 133.563  0.00  0.00    +0.000 HD
ENDBRANCH   1   5
BRANCH   1  10
ATOM     10  C   UNL     1     -11.071   5.633 130.738  0.00  0.00    +0.000 C 
BRANCH  10  11
ATOM     11  N   UNL     1     -11.429   6.614 129.685  0.00  0.00    +0.000 NA
ATOM     12  C   UNL     1     -12.801   7.105 129.872  0.00  0.00    +0.000 C 
ATOM     13  C   UNL     1     -13.439   7.688 128.605  0.00  0.00    +0.000 C 
ATOM     14  C   UNL     1     -13.189   6.822 127.363  0.00  0.00    +0.000 C 
ATOM     15  C   UNL     1     -12.136   7.412 126.418  0.00  0.00    +0.000 C 
ATOM     16  C   UNL     1     -10.712   7.354 126.970  0.00  0.00    +0.000 C 
ATOM     17  C   UNL     1     -10.497   8.361 128.106  0.00  0.00    +0.000 C 
ATOM     18  C   UNL     1     -10.450   7.686 129.474  0.00  0.00    +0.000 C 
ENDBRANCH  10  11
ENDBRANCH   1  10
TORSDOF 3
ENDMDL
MODEL 2
REMARK VINA RESULT:      -5.9      9.709     11.327
REMARK  Name = Guanethidine
REMARK  3 active torsions:
REMARK  status: ('A' for Active; 'I' for Inactive)
REMARK    1  A    between atoms: N_4  and  C_5
REMARK    2  A    between atoms: C_5  and  C_6
REMARK    3  A    between atoms: C_6  and  N_7
REMARK                            x       y       z     vdW  Elec       q    Type
REMARK                         _______ _______ _______ _____ _____    ______ ____
ROOT
ATOM      1  C   UNL     1      -8.071   1.930 123.642  0.00  0.00    +0.000 C 
ENDROOT
BRANCH   1   5
ATOM      2  N   UNL     1      -8.826   3.909 120.791  0.00  0.00    +0.000 N 
ATOM      3  C   UNL     1      -8.207   3.344 121.837  0.00  0.00    +0.000 C 
ATOM      4  N   UNL     1      -6.914   3.730 121.941  0.00  0.00    +0.000 N 
ATOM      5  N   UNL     1      -8.864   2.522 122.568  0.00  0.00    +0.000 NA
ATOM      6  H   UNL     1      -8.413   4.592 120.186  0.00  0.00    +0.000 HD
ATOM      7  H   UNL     1      -9.794   3.647 120.658  0.00  0.00    +0.000 HD
ATOM      8  H   UNL     1      -6.515   4.446 121.358  0.00  0.00    +0.000 HD
ATOM      9  H   UNL     1      -6.350   3.415 122.718  0.00  0.00    +0.000 HD
ENDBRANCH   1   5
BRANCH   1  10
ATOM     10  C   UNL     1      -8.766   0.744 124.318  0.00  0.00    +0.000 C 
BRANCH  10  11
ATOM     11  N   UNL     1      -8.285  -0.580 123.853  0.00  0.00    +0.000 NA
ATOM     12  C   UNL     1      -9.301  -1.245 123.026  0.00  0.00    +0.000 C 
ATOM     13  C   UNL     1      -9.141  -2.768 122.936  0.00  0.00    +0.000 C 
ATOM     14  C   UNL     1      -8.840  -3.413 124.295  0.00  0.00    +0.000 C 
ATOM     15  C   UNL     1      -7.375  -3.840 124.448  0.00  0.00    +0.000 C 
ATOM     16  C   UNL     1      -6.404  -2.667 124.584  0.00  0.00    +0.000 C 
ATOM     17  C   UNL     1      -6.220  -1.920 123.259  0.00  0.00    +0.000 C 
ATOM     18  C   UNL     1      -6.949  -0.580 123.247  0.00  0.00    +0.000 C 
ENDBRANCH  10  11
ENDBRANCH   1  10
TORSDOF 3
ENDMDL
MODEL 3
REMARK VINA RESULT:      -5.6      2.140      5.861
REMARK  Name = Guanethidine
REMARK  3 active torsions:
REMARK  status: ('A' for Active; 'I' for Inactive)
REMARK    1  A    between atoms: N_4  and  C_5
REMARK    2  A    between atoms: C_5  and  C_6
REMARK    3  A    between atoms: C_6  and  N_7
REMARK                            x       y       z     vdW  Elec       q    Type
REMARK                         _______ _______ _______ _____ _____    ______ ____
ROOT
ATOM      1  C   UNL     1     -11.860   6.826 130.138  0.00  0.00    +0.000 C 
ENDROOT
BRANCH   1   5
ATOM      2  N   UNL     1     -13.093   9.911 128.881  0.00  0.00    +0.000 N 
ATOM      3  C   UNL     1     -12.337   8.830 129.122  0.00  0.00    +0.000 C 
ATOM      4  N   UNL     1     -11.234   8.787 128.339  0.00  0.00    +0.000 N 
ATOM      5  N   UNL     1     -12.735   7.987 130.001  0.00  0.00    +0.000 NA
ATOM      6  H   UNL     1     -12.848  10.645 128.244  0.00  0.00    +0.000 HD
ATOM      7  H   UNL     1     -13.938   9.989 129.431  0.00  0.00    +0.000 HD
ATOM      8  H   UNL     1     -10.972   9.544 127.732  0.00  0.00    +0.000 HD
ATOM      9  H   UNL     1     -10.554   8.048 128.458  0.00  0.00    +0.000 HD
ENDBRANCH   1   5
BRANCH   1  10
ATOM     10  C   UNL     1     -11.484   6.526 131.592  0.00  0.00    +0.000 C 
BRANCH  10  11
ATOM     11  N   UNL     1     -10.406   5.517 131.739  0.00  0.00    +0.000 NA
ATOM     12  C   UNL     1     -10.047   4.942 130.436  0.00  0.00    +0.000 C 
ATOM     13  C   UNL     1      -9.357   3.574 130.521  0.00  0.00    +0.000 C 
ATOM     14  C   UNL     1     -10.037   2.628 131.519  0.00  0.00    +0.000 C 
ATOM     15  C   UNL     1      -9.254   2.468 132.827  0.00  0.00    +0.000 C 
ATOM     16  C   UNL     1      -9.275   3.714 133.714  0.00  0.00    +0.000 C 
ATOM     17  C   UNL     1      -8.407   4.839 133.139  0.00  0.00    +0.000 C 
ATOM     18  C   UNL     1      -9.245   5.955 132.523  0.00  0.00    +0.000 C 
ENDBRANCH  10  11
ENDBRANCH   1  10
TORSDOF 3
ENDMDL
MODEL 4
REMARK VINA RESULT:      -5.5      8.763     10.114
REMARK  Name = Guanethidine
REMARK  3 active torsions:
REMARK  status: ('A' for Active; 'I' for Inactive)
REMARK    1  A    between atoms: N_4  and  C_5
REMARK    2  A    between atoms: C_5  and  C_6
REMARK    3  A    between atoms: C_6  and  N_7
REMARK                            x       y       z     vdW  Elec       q    Type
REMARK                         _______ _______ _______ _____ _____    ______ ____
ROOT
ATOM      1  C   UNL     1      -9.272   1.970 124.314  0.00  0.00    +0.000 C 
ENDROOT
BRANCH   1   5
ATOM      2  N   UNL     1      -7.585   4.938 125.294  0.00  0.00    +0.000 N 
ATOM      3  C   UNL     1      -7.987   3.848 124.625  0.00  0.00    +0.000 C 
ATOM      4  N   UNL     1      -7.379   3.729 123.421  0.00  0.00    +0.000 N 
ATOM      5  N   UNL     1      -8.876   3.094 125.157  0.00  0.00    +0.000 NA
ATOM      6  H   UNL     1      -6.869   5.565 124.982  0.00  0.00    +0.000 HD
ATOM      7  H   UNL     1      -8.017   5.084 126.197  0.00  0.00    +0.000 HD
ATOM      8  H   UNL     1      -6.633   4.336 123.130  0.00  0.00    +0.000 HD
ATOM      9  H   UNL     1      -7.556   2.921 122.840  0.00  0.00    +0.000 HD
ENDBRANCH   1   5
BRANCH   1  10
ATOM     10  C   UNL     1      -9.614   0.710 125.115  0.00  0.00    +0.000 C 
BRANCH  10  11
ATOM     11  N   UNL     1      -8.836  -0.487 124.713  0.00  0.00    +0.000 NA
ATOM     12  C   UNL     1      -8.948  -0.723 123.267  0.00  0.00    +0.000 C 
ATOM     13  C   UNL     1      -8.642  -2.164 122.839  0.00  0.00    +0.000 C 
ATOM     14  C   UNL     1      -9.300  -3.207 123.753  0.00  0.00    +0.000 C 
ATOM     15  C   UNL     1      -8.310  -3.884 124.707  0.00  0.00    +0.000 C 
ATOM     16  C   UNL     1      -7.798  -2.964 125.817  0.00  0.00    +0.000 C 
ATOM     17  C   UNL     1      -6.821  -1.911 125.284  0.00  0.00    +0.000 C 
ATOM     18  C   UNL     1      -7.454  -0.525 125.203  0.00  0.00    +0.000 C 
ENDBRANCH  10  11
ENDBRANCH   1  10
TORSDOF 3
ENDMDL
MODEL 5
REMARK VINA RESULT:      -5.5      2.039      2.328
REMARK  Name = Guanethidine
REMARK  3 active torsions:
REMARK  status: ('A' for Active; 'I' for Inactive)
REMARK    1  A    between atoms: N_4  and  C_5
REMARK    2  A    between atoms: C_5  and  C_6
REMARK    3  A    between atoms: C_6  and  N_7
REMARK                            x       y       z     vdW  Elec       q    Type
REMARK                         _______ _______ _______ _____ _____    ______ ____
ROOT
ATOM      1  C   UNL     1      -8.626   6.676 131.181  0.00  0.00    +0.000 C 
ENDROOT
BRANCH   1   5
ATOM      2  N   UNL     1      -5.106   7.115 130.988  0.00  0.00    +0.000 N 
ATOM      3  C   UNL     1      -6.340   6.769 131.384  0.00  0.00    +0.000 C 
ATOM      4  N   UNL     1      -6.328   6.003 132.501  0.00  0.00    +0.000 N 
ATOM      5  N   UNL     1      -7.340   7.157 130.684  0.00  0.00    +0.000 NA
ATOM      6  H   UNL     1      -4.267   6.895 131.488  0.00  0.00    +0.000 HD
ATOM      7  H   UNL     1      -5.055   7.679 130.150  0.00  0.00    +0.000 HD
ATOM      8  H   UNL     1      -5.488   5.820 133.021  0.00  0.00    +0.000 HD
ATOM      9  H   UNL     1      -7.197   5.719 132.931  0.00  0.00    +0.000 HD
ENDBRANCH   1   5
BRANCH   1  10
ATOM     10  C   UNL     1      -9.453   5.958 130.110  0.00  0.00    +0.000 C 
BRANCH  10  11
ATOM     11  N   UNL     1     -10.532   6.790 129.524  0.00  0.00    +0.000 NA
ATOM     12  C   UNL     1     -11.565   7.087 130.526  0.00  0.00    +0.000 C 
ATOM     13  C   UNL     1     -12.927   7.469 129.931  0.00  0.00    +0.000 C 
ATOM     14  C   UNL     1     -13.344   6.555 128.771  0.00  0.00    +0.000 C 
ATOM     15  C   UNL     1     -13.197   7.218 127.397  0.00  0.00    +0.000 C 
ATOM     16  C   UNL     1     -11.745   7.414 126.961  0.00  0.00    +0.000 C 
ATOM     17  C   UNL     1     -11.053   8.527 127.757  0.00  0.00    +0.000 C 
ATOM     18  C   UNL     1     -10.075   7.975 128.789  0.00  0.00    +0.000 C 
ENDBRANCH  10  11
ENDBRANCH   1  10
TORSDOF 3
ENDMDL
MODEL 6
REMARK VINA RESULT:      -5.5      9.340     11.069
REMARK  Name = Guanethidine
REMARK  3 active torsions:
REMARK  status: ('A' for Active; 'I' for Inactive)
REMARK    1  A    between atoms: N_4  and  C_5
REMARK    2  A    between atoms: C_5  and  C_6
REMARK    3  A    between atoms: C_6  and  N_7
REMARK                            x       y       z     vdW  Elec       q    Type
REMARK                         _______ _______ _______ _____ _____    ______ ____
ROOT
ATOM      1  C   UNL     1      -7.592   1.982 123.359  0.00  0.00    +0.000 C 
ENDROOT
BRANCH   1   5
ATOM      2  N   UNL     1      -8.938   3.984 120.752  0.00  0.00    +0.000 N 
ATOM      3  C   UNL     1      -8.110   3.413 121.639  0.00  0.00    +0.000 C 
ATOM      4  N   UNL     1      -6.826   3.808 121.474  0.00  0.00    +0.000 N 
ATOM      5  N   UNL     1      -8.595   2.579 122.482  0.00  0.00    +0.000 NA
ATOM      6  H   UNL     1      -8.663   4.676 120.081  0.00  0.00    +0.000 HD
ATOM      7  H   UNL     1      -9.910   3.715 120.821  0.00  0.00    +0.000 HD
ATOM      8  H   UNL     1      -6.562   4.533 120.829  0.00  0.00    +0.000 HD
ATOM      9  H   UNL     1      -6.110   3.490 122.113  0.00  0.00    +0.000 HD
ENDBRANCH   1   5
BRANCH   1  10
ATOM     10  C   UNL     1      -8.201   1.266 124.568  0.00  0.00    +0.000 C 
BRANCH  10  11
ATOM     11  N   UNL     1      -8.000  -0.204 124.561  0.00  0.00    +0.000 NA
ATOM     12  C   UNL     1      -7.154  -0.610 123.431  0.00  0.00    +0.000 C 
ATOM     13  C   UNL     1      -7.308  -2.082 123.028  0.00  0.00    +0.000 C 
ATOM     14  C   UNL     1      -8.774  -2.534 122.979  0.00  0.00    +0.000 C 
ATOM     15  C   UNL     1      -9.175  -3.410 124.171  0.00  0.00    +0.000 C 
ATOM     16  C   UNL     1      -9.263  -2.646 125.493  0.00  0.00    +0.000 C 
ATOM     17  C   UNL     1      -7.878  -2.265 126.028  0.00  0.00    +0.000 C 
ATOM     18  C   UNL     1      -7.578  -0.780 125.842  0.00  0.00    +0.000 C 
ENDBRANCH  10  11
ENDBRANCH   1  10
TORSDOF 3
ENDMDL
MODEL 7
REMARK VINA RESULT:      -5.4      9.480     11.203
REMARK  Name = Guanethidine
REMARK  3 active torsions:
REMARK  status: ('A' for Active; 'I' for Inactive)
REMARK    1  A    between atoms: N_4  and  C_5
REMARK    2  A    between atoms: C_5  and  C_6
REMARK    3  A    between atoms: C_6  and  N_7
REMARK                            x       y       z     vdW  Elec       q    Type
REMARK                         _______ _______ _______ _____ _____    ______ ____
ROOT
ATOM      1  C   UNL     1      -7.865   2.111 123.643  0.00  0.00    +0.000 C 
ENDROOT
BRANCH   1   5
ATOM      2  N   UNL     1      -8.886   3.919 120.761  0.00  0.00    +0.000 N 
ATOM      3  C   UNL     1      -8.167   3.407 121.771  0.00  0.00    +0.000 C 
ATOM      4  N   UNL     1      -6.863   3.764 121.709  0.00  0.00    +0.000 N 
ATOM      5  N   UNL     1      -8.757   2.652 122.622  0.00  0.00    +0.000 NA
ATOM      6  H   UNL     1      -8.527   4.549 120.070  0.00  0.00    +0.000 HD
ATOM      7  H   UNL     1      -9.867   3.674 120.750  0.00  0.00    +0.000 HD
ATOM      8  H   UNL     1      -6.516   4.429 121.040  0.00  0.00    +0.000 HD
ATOM      9  H   UNL     1      -6.225   3.485 122.441  0.00  0.00    +0.000 HD
ENDBRANCH   1   5
BRANCH   1  10
ATOM     10  C   UNL     1      -8.541   1.073 124.543  0.00  0.00    +0.000 C 
BRANCH  10  11
ATOM     11  N   UNL     1      -8.055  -0.313 124.335  0.00  0.00    +0.000 NA
ATOM     12  C   UNL     1      -8.038  -1.057 125.602  0.00  0.00    +0.000 C 
ATOM     13  C   UNL     1      -7.097  -2.268 125.608  0.00  0.00    +0.000 C 
ATOM     14  C   UNL     1      -5.731  -1.960 124.980  0.00  0.00    +0.000 C 
ATOM     15  C   UNL     1      -5.564  -2.556 123.577  0.00  0.00    +0.000 C 
ATOM     16  C   UNL     1      -6.415  -1.865 122.511  0.00  0.00    +0.000 C 
ATOM     17  C   UNL     1      -7.903  -2.204 122.658  0.00  0.00    +0.000 C 
ATOM     18  C   UNL     1      -8.703  -1.042 123.240  0.00  0.00    +0.000 C 
ENDBRANCH  10  11
ENDBRANCH   1  10
TORSDOF 3
ENDMDL
MODEL 8
REMARK VINA RESULT:      -5.3      1.785      2.794
REMARK  Name = Guanethidine
REMARK  3 active torsions:
REMARK  status: ('A' for Active; 'I' for Inactive)
REMARK    1  A    between atoms: N_4  and  C_5
REMARK    2  A    between atoms: C_5  and  C_6
REMARK    3  A    between atoms: C_6  and  N_7
REMARK                            x       y       z     vdW  Elec       q    Type
REMARK                         _______ _______ _______ _____ _____    ______ ____
ROOT
ATOM      1  C   UNL     1      -9.269   5.319 132.208  0.00  0.00    +0.000 C 
ENDROOT
BRANCH   1   5
ATOM      2  N   UNL     1      -8.612   1.912 131.446  0.00  0.00    +0.000 N 
ATOM      3  C   UNL     1      -9.086   3.039 131.997  0.00  0.00    +0.000 C 
ATOM      4  N   UNL     1     -10.028   2.796 132.939  0.00  0.00    +0.000 N 
ATOM      5  N   UNL     1      -8.641   4.164 131.574  0.00  0.00    +0.000 NA
ATOM      6  H   UNL     1      -8.867   0.988 131.735  0.00  0.00    +0.000 HD
ATOM      7  H   UNL     1      -7.912   2.035 130.725  0.00  0.00    +0.000 HD
ATOM      8  H   UNL     1     -10.250   1.868 133.254  0.00  0.00    +0.000 HD
ATOM      9  H   UNL     1     -10.428   3.559 133.466  0.00  0.00    +0.000 HD
ENDBRANCH   1   5
BRANCH   1  10
ATOM     10  C   UNL     1      -9.154   6.598 131.374  0.00  0.00    +0.000 C 
BRANCH  10  11
ATOM     11  N   UNL     1     -10.301   6.828 130.463  0.00  0.00    +0.000 NA
ATOM     12  C   UNL     1      -9.989   6.369 129.102  0.00  0.00    +0.000 C 
ATOM     13  C   UNL     1     -10.853   7.010 128.009  0.00  0.00    +0.000 C 
ATOM     14  C   UNL     1     -11.021   8.524 128.196  0.00  0.00    +0.000 C 
ATOM     15  C   UNL     1     -12.406   8.916 128.725  0.00  0.00    +0.000 C 
ATOM     16  C   UNL     1     -12.641   8.524 130.184  0.00  0.00    +0.000 C 
ATOM     17  C   UNL     1     -12.825   7.011 130.348  0.00  0.00    +0.000 C 
ATOM     18  C   UNL     1     -11.595   6.344 130.957  0.00  0.00    +0.000 C 
ENDBRANCH  10  11
ENDBRANCH   1  10
TORSDOF 3
ENDMDL
MODEL 9
REMARK VINA RESULT:      -5.1      2.025      2.247
REMARK  Name = Guanethidine
REMARK  3 active torsions:
REMARK  status: ('A' for Active; 'I' for Inactive)
REMARK    1  A    between atoms: N_4  and  C_5
REMARK    2  A    between atoms: C_5  and  C_6
REMARK    3  A    between atoms: C_6  and  N_7
REMARK                            x       y       z     vdW  Elec       q    Type
REMARK                         _______ _______ _______ _____ _____    ______ ____
ROOT
ATOM      1  C   UNL     1      -9.818   4.549 130.217  0.00  0.00    +0.000 C 
ENDROOT
BRANCH   1   5
ATOM      2  N   UNL     1      -6.308   4.260 130.678  0.00  0.00    +0.000 N 
ATOM      3  C   UNL     1      -7.531   4.349 130.136  0.00  0.00    +0.000 C 
ATOM      4  N   UNL     1      -7.494   4.405 128.784  0.00  0.00    +0.000 N 
ATOM      5  N   UNL     1      -8.546   4.398 130.918  0.00  0.00    +0.000 NA
ATOM      6  H   UNL     1      -5.459   4.176 130.153  0.00  0.00    +0.000 HD
ATOM      7  H   UNL     1      -6.275   4.227 131.688  0.00  0.00    +0.000 HD
ATOM      8  H   UNL     1      -6.645   4.278 128.261  0.00  0.00    +0.000 HD
ATOM      9  H   UNL     1      -8.353   4.422 128.252  0.00  0.00    +0.000 HD
ENDBRANCH   1   5
BRANCH   1  10
ATOM     10  C   UNL     1     -10.694   5.663 130.798  0.00  0.00    +0.000 C 
BRANCH  10  11
ATOM     11  N   UNL     1     -11.187   6.630 129.787  0.00  0.00    +0.000 NA
ATOM     12  C   UNL     1     -12.524   7.123 130.143  0.00  0.00    +0.000 C 
ATOM     13  C   UNL     1     -13.322   7.689 128.961  0.00  0.00    +0.000 C 
ATOM     14  C   UNL     1     -13.232   6.806 127.709  0.00  0.00    +0.000 C 
ATOM     15  C   UNL     1     -12.311   7.385 126.628  0.00  0.00    +0.000 C 
ATOM     16  C   UNL     1     -10.827   7.335 126.993  0.00  0.00    +0.000 C 
ATOM     17  C   UNL     1     -10.470   8.356 128.079  0.00  0.00    +0.000 C 
ATOM     18  C   UNL     1     -10.246   7.700 129.437  0.00  0.00    +0.000 C 
ENDBRANCH  10  11
ENDBRANCH   1  10
TORSDOF 3
ENDMDL
