MODEL 1
REMARK VINA RESULT:      -9.2      0.000      0.000
REMARK  Name = Halazepam
REMARK  3 active torsions:
REMARK  status: ('A' for Active; 'I' for Inactive)
REMARK    1  A    between atoms: C_2  and  C_5
REMARK    2  A    between atoms: C_5  and  N_6
REMARK    3  A    between atoms: C_14  and  C_19
REMARK                            x       y       z     vdW  Elec       q    Type
REMARK                         _______ _______ _______ _____ _____    ______ ____
ROOT
ATOM      1  N   UNL     1      -8.404  -0.386 123.474  0.00  0.00    +0.000 N 
ATOM      2  C   UNL     1      -7.470   0.365 124.244  0.00  0.00    +0.000 A 
ATOM      3  C   UNL     1      -7.114   1.693 123.946  0.00  0.00    +0.000 A 
ATOM      4  C   UNL     1      -6.078   2.314 124.666  0.00  0.00    +0.000 A 
ATOM      5  C   UNL     1      -5.401   1.624 125.668  0.00  0.00    +0.000 A 
ATOM      6 CL   UNL     1      -4.125   2.388 126.526  0.00  0.00    +0.000 Cl
ATOM      7  C   UNL     1      -5.757   0.323 125.985  0.00  0.00    +0.000 A 
ATOM      8  C   UNL     1      -6.802  -0.288 125.296  0.00  0.00    +0.000 A 
ATOM      9  C   UNL     1      -7.756   2.470 122.848  0.00  0.00    +0.000 C 
ATOM     10  N   UNL     1      -9.013   2.444 122.562  0.00  0.00    +0.000 NA
ATOM     11  C   UNL     1      -9.912   1.587 123.335  0.00  0.00    +0.000 C 
ATOM     12  C   UNL     1      -9.621   0.128 123.030  0.00  0.00    +0.000 C 
ATOM     13  O   UNL     1     -10.466  -0.587 122.472  0.00  0.00    +0.000 OA
ENDROOT
BRANCH   9  14
ATOM     14  C   UNL     1      -6.900   3.368 122.019  0.00  0.00    +0.000 A 
ATOM     15  C   UNL     1      -7.323   3.705 120.729  0.00  0.00    +0.000 A 
ATOM     16  C   UNL     1      -6.473   4.427 119.890  0.00  0.00    +0.000 A 
ATOM     17  C   UNL     1      -5.247   4.888 120.370  0.00  0.00    +0.000 A 
ATOM     18  C   UNL     1      -4.873   4.639 121.692  0.00  0.00    +0.000 A 
ATOM     19  C   UNL     1      -5.677   3.837 122.507  0.00  0.00    +0.000 A 
ENDBRANCH   9  14
BRANCH   1  20
ATOM     20  C   UNL     1      -8.075  -1.793 123.144  0.00  0.00    +0.000 C 
BRANCH  20  22
ATOM     21  F   UNL     1      -9.783  -3.444 123.264  0.00  0.00    +0.000 F 
ATOM     22  C   UNL     1      -8.795  -2.860 123.982  0.00  0.00    +0.000 C 
ATOM     23  F   UNL     1      -9.387  -2.365 125.091  0.00  0.00    +0.000 F 
ATOM     24  F   UNL     1      -7.944  -3.831 124.382  0.00  0.00    +0.000 F 
ENDBRANCH  20  22
ENDBRANCH   1  20
TORSDOF 3
ENDMDL
MODEL 2
REMARK VINA RESULT:      -9.1      1.443      1.691
REMARK  Name = Halazepam
REMARK  3 active torsions:
REMARK  status: ('A' for Active; 'I' for Inactive)
REMARK    1  A    between atoms: C_2  and  C_5
REMARK    2  A    between atoms: C_5  and  N_6
REMARK    3  A    between atoms: C_14  and  C_19
REMARK                            x       y       z     vdW  Elec       q    Type
REMARK                         _______ _______ _______ _____ _____    ______ ____
ROOT
ATOM      1  N   UNL     1      -7.888   0.024 124.161  0.00  0.00    +0.000 N 
ATOM      2  C   UNL     1      -7.053   1.068 124.655  0.00  0.00    +0.000 A 
ATOM      3  C   UNL     1      -6.929   2.320 124.026  0.00  0.00    +0.000 A 
ATOM      4  C   UNL     1      -5.975   3.241 124.493  0.00  0.00    +0.000 A 
ATOM      5  C   UNL     1      -5.152   2.922 125.569  0.00  0.00    +0.000 A 
ATOM      6 CL   UNL     1      -3.977   4.049 126.117  0.00  0.00    +0.000 Cl
ATOM      7  C   UNL     1      -5.279   1.699 126.210  0.00  0.00    +0.000 A 
ATOM      8  C   UNL     1      -6.242   0.794 125.771  0.00  0.00    +0.000 A 
ATOM      9  C   UNL     1      -7.736   2.704 122.833  0.00  0.00    +0.000 C 
ATOM     10  N   UNL     1      -8.984   2.427 122.666  0.00  0.00    +0.000 NA
ATOM     11  C   UNL     1      -9.698   1.664 123.689  0.00  0.00    +0.000 C 
ATOM     12  C   UNL     1      -9.190   0.231 123.711  0.00  0.00    +0.000 C 
ATOM     13  O   UNL     1      -9.934  -0.712 123.407  0.00  0.00    +0.000 OA
ENDROOT
BRANCH   9  14
ATOM     14  C   UNL     1      -7.074   3.487 121.750  0.00  0.00    +0.000 A 
ATOM     15  C   UNL     1      -7.806   3.808 120.602  0.00  0.00    +0.000 A 
ATOM     16  C   UNL     1      -7.165   4.416 119.522  0.00  0.00    +0.000 A 
ATOM     17  C   UNL     1      -5.824   4.785 119.625  0.00  0.00    +0.000 A 
ATOM     18  C   UNL     1      -5.123   4.558 120.811  0.00  0.00    +0.000 A 
ATOM     19  C   UNL     1      -5.732   3.865 121.861  0.00  0.00    +0.000 A 
ENDBRANCH   9  14
BRANCH   1  20
ATOM     20  C   UNL     1      -7.352  -1.358 124.143  0.00  0.00    +0.000 C 
BRANCH  20  22
ATOM     21  F   UNL     1      -7.596  -2.318 121.980  0.00  0.00    +0.000 F 
ATOM     22  C   UNL     1      -6.683  -1.797 122.832  0.00  0.00    +0.000 C 
ATOM     23  F   UNL     1      -5.744  -2.755 123.000  0.00  0.00    +0.000 F 
ATOM     24  F   UNL     1      -6.083  -0.756 122.211  0.00  0.00    +0.000 F 
ENDBRANCH  20  22
ENDBRANCH   1  20
TORSDOF 3
ENDMDL
MODEL 3
REMARK VINA RESULT:      -8.5      3.501      6.520
REMARK  Name = Halazepam
REMARK  3 active torsions:
REMARK  status: ('A' for Active; 'I' for Inactive)
REMARK    1  A    between atoms: C_2  and  C_5
REMARK    2  A    between atoms: C_5  and  N_6
REMARK    3  A    between atoms: C_14  and  C_19
REMARK                            x       y       z     vdW  Elec       q    Type
REMARK                         _______ _______ _______ _____ _____    ______ ____
ROOT
ATOM      1  N   UNL     1      -7.828  -0.011 123.232  0.00  0.00    +0.000 N 
ATOM      2  C   UNL     1      -7.092  -1.224 123.356  0.00  0.00    +0.000 A 
ATOM      3  C   UNL     1      -7.366  -2.197 124.335  0.00  0.00    +0.000 A 
ATOM      4  C   UNL     1      -6.503  -3.297 124.484  0.00  0.00    +0.000 A 
ATOM      5  C   UNL     1      -5.378  -3.428 123.674  0.00  0.00    +0.000 A 
ATOM      6 CL   UNL     1      -4.322  -4.766 123.880  0.00  0.00    +0.000 Cl
ATOM      7  C   UNL     1      -5.109  -2.487 122.692  0.00  0.00    +0.000 A 
ATOM      8  C   UNL     1      -5.977  -1.411 122.519  0.00  0.00    +0.000 A 
ATOM      9  C   UNL     1      -8.518  -2.089 125.274  0.00  0.00    +0.000 C 
ATOM     10  N   UNL     1      -9.695  -1.670 124.955  0.00  0.00    +0.000 NA
ATOM     11  C   UNL     1      -9.961  -1.241 123.582  0.00  0.00    +0.000 C 
ATOM     12  C   UNL     1      -9.218   0.053 123.295  0.00  0.00    +0.000 C 
ATOM     13  O   UNL     1      -9.835   1.101 123.056  0.00  0.00    +0.000 OA
ENDROOT
BRANCH   9  14
ATOM     14  C   UNL     1      -8.320  -2.511 126.691  0.00  0.00    +0.000 A 
ATOM     15  C   UNL     1      -8.947  -3.677 127.144  0.00  0.00    +0.000 A 
ATOM     16  C   UNL     1      -8.888  -4.012 128.497  0.00  0.00    +0.000 A 
ATOM     17  C   UNL     1      -8.129  -3.237 129.374  0.00  0.00    +0.000 A 
ATOM     18  C   UNL     1      -7.419  -2.133 128.899  0.00  0.00    +0.000 A 
ATOM     19  C   UNL     1      -7.550  -1.739 127.565  0.00  0.00    +0.000 A 
ENDBRANCH   9  14
BRANCH   1  20
ATOM     20  C   UNL     1      -7.078   1.247 123.003  0.00  0.00    +0.000 C 
BRANCH  20  22
ATOM     21  F   UNL     1      -5.735   2.942 123.994  0.00  0.00    +0.000 F 
ATOM     22  C   UNL     1      -6.708   2.042 124.265  0.00  0.00    +0.000 C 
ATOM     23  F   UNL     1      -6.230   1.270 125.266  0.00  0.00    +0.000 F 
ATOM     24  F   UNL     1      -7.773   2.715 124.755  0.00  0.00    +0.000 F 
ENDBRANCH  20  22
ENDBRANCH   1  20
TORSDOF 3
ENDMDL
MODEL 4
REMARK VINA RESULT:      -8.5      3.782      6.730
REMARK  Name = Halazepam
REMARK  3 active torsions:
REMARK  status: ('A' for Active; 'I' for Inactive)
REMARK    1  A    between atoms: C_2  and  C_5
REMARK    2  A    between atoms: C_5  and  N_6
REMARK    3  A    between atoms: C_14  and  C_19
REMARK                            x       y       z     vdW  Elec       q    Type
REMARK                         _______ _______ _______ _____ _____    ______ ____
ROOT
ATOM      1  N   UNL     1      -7.923  -0.308 124.267  0.00  0.00    +0.000 N 
ATOM      2  C   UNL     1      -7.055  -1.430 124.123  0.00  0.00    +0.000 A 
ATOM      3  C   UNL     1      -6.769  -2.324 125.170  0.00  0.00    +0.000 A 
ATOM      4  C   UNL     1      -5.791  -3.318 124.988  0.00  0.00    +0.000 A 
ATOM      5  C   UNL     1      -5.103  -3.421 123.782  0.00  0.00    +0.000 A 
ATOM      6 CL   UNL     1      -3.897  -4.626 123.581  0.00  0.00    +0.000 Cl
ATOM      7  C   UNL     1      -5.391  -2.558 122.736  0.00  0.00    +0.000 A 
ATOM      8  C   UNL     1      -6.380  -1.591 122.899  0.00  0.00    +0.000 A 
ATOM      9  C   UNL     1      -7.425  -2.235 126.505  0.00  0.00    +0.000 C 
ATOM     10  N   UNL     1      -8.670  -1.962 126.700  0.00  0.00    +0.000 NA
ATOM     11  C   UNL     1      -9.538  -1.695 125.553  0.00  0.00    +0.000 C 
ATOM     12  C   UNL     1      -9.155  -0.370 124.915  0.00  0.00    +0.000 C 
ATOM     13  O   UNL     1      -9.942   0.587 124.913  0.00  0.00    +0.000 OA
ENDROOT
BRANCH   9  14
ATOM     14  C   UNL     1      -6.600  -2.498 127.720  0.00  0.00    +0.000 A 
ATOM     15  C   UNL     1      -5.282  -2.031 127.758  0.00  0.00    +0.000 A 
ATOM     16  C   UNL     1      -4.454  -2.386 128.823  0.00  0.00    +0.000 A 
ATOM     17  C   UNL     1      -4.968  -3.124 129.889  0.00  0.00    +0.000 A 
ATOM     18  C   UNL     1      -6.313  -3.499 129.899  0.00  0.00    +0.000 A 
ATOM     19  C   UNL     1      -7.122  -3.228 128.792  0.00  0.00    +0.000 A 
ENDBRANCH   9  14
BRANCH   1  20
ATOM     20  C   UNL     1      -7.504   0.987 123.681  0.00  0.00    +0.000 C 
BRANCH  20  22
ATOM     21  F   UNL     1      -5.871   1.197 125.398  0.00  0.00    +0.000 F 
ATOM     22  C   UNL     1      -6.707   1.914 124.612  0.00  0.00    +0.000 C 
ATOM     23  F   UNL     1      -7.485   2.629 125.454  0.00  0.00    +0.000 F 
ATOM     24  F   UNL     1      -5.962   2.797 123.910  0.00  0.00    +0.000 F 
ENDBRANCH  20  22
ENDBRANCH   1  20
TORSDOF 3
ENDMDL
MODEL 5
REMARK VINA RESULT:      -8.3      3.277      4.106
REMARK  Name = Halazepam
REMARK  3 active torsions:
REMARK  status: ('A' for Active; 'I' for Inactive)
REMARK    1  A    between atoms: C_2  and  C_5
REMARK    2  A    between atoms: C_5  and  N_6
REMARK    3  A    between atoms: C_14  and  C_19
REMARK                            x       y       z     vdW  Elec       q    Type
REMARK                         _______ _______ _______ _____ _____    ______ ____
ROOT
ATOM      1  N   UNL     1      -7.746  -2.346 124.536  0.00  0.00    +0.000 N 
ATOM      2  C   UNL     1      -7.839  -1.912 125.891  0.00  0.00    +0.000 A 
ATOM      3  C   UNL     1      -7.607  -0.585 126.295  0.00  0.00    +0.000 A 
ATOM      4  C   UNL     1      -7.575  -0.271 127.665  0.00  0.00    +0.000 A 
ATOM      5  C   UNL     1      -7.768  -1.262 128.623  0.00  0.00    +0.000 A 
ATOM      6 CL   UNL     1      -7.707  -0.867 130.293  0.00  0.00    +0.000 Cl
ATOM      7  C   UNL     1      -8.019  -2.569 128.236  0.00  0.00    +0.000 A 
ATOM      8  C   UNL     1      -8.082  -2.882 126.881  0.00  0.00    +0.000 A 
ATOM      9  C   UNL     1      -7.334   0.514 125.326  0.00  0.00    +0.000 C 
ATOM     10  N   UNL     1      -7.930   0.664 124.192  0.00  0.00    +0.000 NA
ATOM     11  C   UNL     1      -8.945  -0.303 123.777  0.00  0.00    +0.000 C 
ATOM     12  C   UNL     1      -8.288  -1.638 123.466  0.00  0.00    +0.000 C 
ATOM     13  O   UNL     1      -8.303  -2.102 122.317  0.00  0.00    +0.000 OA
ENDROOT
BRANCH   9  14
ATOM     14  C   UNL     1      -6.311   1.539 125.684  0.00  0.00    +0.000 A 
ATOM     15  C   UNL     1      -6.619   2.893 125.511  0.00  0.00    +0.000 A 
ATOM     16  C   UNL     1      -5.630   3.856 125.708  0.00  0.00    +0.000 A 
ATOM     17  C   UNL     1      -4.368   3.477 126.166  0.00  0.00    +0.000 A 
ATOM     18  C   UNL     1      -4.096   2.135 126.440  0.00  0.00    +0.000 A 
ATOM     19  C   UNL     1      -5.052   1.155 126.155  0.00  0.00    +0.000 A 
ENDBRANCH   9  14
BRANCH   1  20
ATOM     20  C   UNL     1      -7.055  -3.625 124.252  0.00  0.00    +0.000 C 
BRANCH  20  22
ATOM     21  F   UNL     1      -4.938  -2.848 125.008  0.00  0.00    +0.000 F 
ATOM     22  C   UNL     1      -5.542  -3.525 124.005  0.00  0.00    +0.000 C 
ATOM     23  F   UNL     1      -5.225  -2.866 122.869  0.00  0.00    +0.000 F 
ATOM     24  F   UNL     1      -4.973  -4.749 123.928  0.00  0.00    +0.000 F 
ENDBRANCH  20  22
ENDBRANCH   1  20
TORSDOF 3
ENDMDL
MODEL 6
REMARK VINA RESULT:      -8.3      4.024      6.156
REMARK  Name = Halazepam
REMARK  3 active torsions:
REMARK  status: ('A' for Active; 'I' for Inactive)
REMARK    1  A    between atoms: C_2  and  C_5
REMARK    2  A    between atoms: C_5  and  N_6
REMARK    3  A    between atoms: C_14  and  C_19
REMARK                            x       y       z     vdW  Elec       q    Type
REMARK                         _______ _______ _______ _____ _____    ______ ____
ROOT
ATOM      1  N   UNL     1      -5.583   3.662 125.996  0.00  0.00    +0.000 N 
ATOM      2  C   UNL     1      -5.868   3.642 124.600  0.00  0.00    +0.000 A 
ATOM      3  C   UNL     1      -6.711   2.690 123.998  0.00  0.00    +0.000 A 
ATOM      4  C   UNL     1      -6.824   2.649 122.597  0.00  0.00    +0.000 A 
ATOM      5  C   UNL     1      -6.107   3.540 121.803  0.00  0.00    +0.000 A 
ATOM      6 CL   UNL     1      -6.240   3.465 120.092  0.00  0.00    +0.000 Cl
ATOM      7  C   UNL     1      -5.290   4.495 122.386  0.00  0.00    +0.000 A 
ATOM      8  C   UNL     1      -5.196   4.561 123.774  0.00  0.00    +0.000 A 
ATOM      9  C   UNL     1      -7.461   1.669 124.783  0.00  0.00    +0.000 C 
ATOM     10  N   UNL     1      -8.045   1.888 125.912  0.00  0.00    +0.000 NA
ATOM     11  C   UNL     1      -7.975   3.219 126.514  0.00  0.00    +0.000 C 
ATOM     12  C   UNL     1      -6.556   3.501 126.980  0.00  0.00    +0.000 C 
ATOM     13  O   UNL     1      -6.299   3.650 128.183  0.00  0.00    +0.000 OA
ENDROOT
BRANCH   9  14
ATOM     14  C   UNL     1      -7.575   0.289 124.228  0.00  0.00    +0.000 A 
ATOM     15  C   UNL     1      -6.456  -0.550 124.265  0.00  0.00    +0.000 A 
ATOM     16  C   UNL     1      -6.501  -1.790 123.628  0.00  0.00    +0.000 A 
ATOM     17  C   UNL     1      -7.687  -2.228 123.039  0.00  0.00    +0.000 A 
ATOM     18  C   UNL     1      -8.833  -1.432 123.096  0.00  0.00    +0.000 A 
ATOM     19  C   UNL     1      -8.768  -0.151 123.649  0.00  0.00    +0.000 A 
ENDBRANCH   9  14
BRANCH   1  20
ATOM     20  C   UNL     1      -4.183   3.886 126.426  0.00  0.00    +0.000 C 
BRANCH  20  22
ATOM     21  F   UNL     1      -3.232   2.400 128.021  0.00  0.00    +0.000 F 
ATOM     22  C   UNL     1      -3.356   2.619 126.692  0.00  0.00    +0.000 C 
ATOM     23  F   UNL     1      -2.095   2.688 126.210  0.00  0.00    +0.000 F 
ATOM     24  F   UNL     1      -3.934   1.528 126.143  0.00  0.00    +0.000 F 
ENDBRANCH  20  22
ENDBRANCH   1  20
TORSDOF 3
ENDMDL
MODEL 7
REMARK VINA RESULT:      -8.2      3.975      6.608
REMARK  Name = Halazepam
REMARK  3 active torsions:
REMARK  status: ('A' for Active; 'I' for Inactive)
REMARK    1  A    between atoms: C_2  and  C_5
REMARK    2  A    between atoms: C_5  and  N_6
REMARK    3  A    between atoms: C_14  and  C_19
REMARK                            x       y       z     vdW  Elec       q    Type
REMARK                         _______ _______ _______ _____ _____    ______ ____
ROOT
ATOM      1  N   UNL     1      -7.508  -1.539 124.458  0.00  0.00    +0.000 N 
ATOM      2  C   UNL     1      -7.721  -0.633 125.537  0.00  0.00    +0.000 A 
ATOM      3  C   UNL     1      -7.108  -0.774 126.795  0.00  0.00    +0.000 A 
ATOM      4  C   UNL     1      -7.482   0.076 127.851  0.00  0.00    +0.000 A 
ATOM      5  C   UNL     1      -8.456   1.052 127.661  0.00  0.00    +0.000 A 
ATOM      6 CL   UNL     1      -8.918   2.070 128.964  0.00  0.00    +0.000 Cl
ATOM      7  C   UNL     1      -9.052   1.214 126.420  0.00  0.00    +0.000 A 
ATOM      8  C   UNL     1      -8.664   0.395 125.362  0.00  0.00    +0.000 A 
ATOM      9  C   UNL     1      -6.101  -1.835 127.085  0.00  0.00    +0.000 C 
ATOM     10  N   UNL     1      -5.172  -2.212 126.274  0.00  0.00    +0.000 NA
ATOM     11  C   UNL     1      -5.071  -1.593 124.953  0.00  0.00    +0.000 C 
ATOM     12  C   UNL     1      -6.251  -2.017 124.094  0.00  0.00    +0.000 C 
ATOM     13  O   UNL     1      -6.083  -2.701 123.075  0.00  0.00    +0.000 OA
ENDROOT
BRANCH   9  14
ATOM     14  C   UNL     1      -6.143  -2.509 128.415  0.00  0.00    +0.000 A 
ATOM     15  C   UNL     1      -7.379  -2.911 128.933  0.00  0.00    +0.000 A 
ATOM     16  C   UNL     1      -7.453  -3.415 130.231  0.00  0.00    +0.000 A 
ATOM     17  C   UNL     1      -6.287  -3.603 130.973  0.00  0.00    +0.000 A 
ATOM     18  C   UNL     1      -5.044  -3.299 130.415  0.00  0.00    +0.000 A 
ATOM     19  C   UNL     1      -4.971  -2.706 129.151  0.00  0.00    +0.000 A 
ENDBRANCH   9  14
BRANCH   1  20
ATOM     20  C   UNL     1      -8.681  -1.979 123.666  0.00  0.00    +0.000 C 
BRANCH  20  22
ATOM     21  F   UNL     1     -10.021  -3.080 125.295  0.00  0.00    +0.000 F 
ATOM     22  C   UNL     1      -9.352  -3.279 124.136  0.00  0.00    +0.000 C 
ATOM     23  F   UNL     1      -8.476  -4.279 124.382  0.00  0.00    +0.000 F 
ATOM     24  F   UNL     1     -10.235  -3.738 123.220  0.00  0.00    +0.000 F 
ENDBRANCH  20  22
ENDBRANCH   1  20
TORSDOF 3
ENDMDL
MODEL 8
REMARK VINA RESULT:      -8.1      6.743      8.861
REMARK  Name = Halazepam
REMARK  3 active torsions:
REMARK  status: ('A' for Active; 'I' for Inactive)
REMARK    1  A    between atoms: C_2  and  C_5
REMARK    2  A    between atoms: C_5  and  N_6
REMARK    3  A    between atoms: C_14  and  C_19
REMARK                            x       y       z     vdW  Elec       q    Type
REMARK                         _______ _______ _______ _____ _____    ______ ____
ROOT
ATOM      1  N   UNL     1      -6.502  -1.041 132.437  0.00  0.00    +0.000 N 
ATOM      2  C   UNL     1      -5.588  -1.633 131.518  0.00  0.00    +0.000 A 
ATOM      3  C   UNL     1      -5.857  -1.772 130.144  0.00  0.00    +0.000 A 
ATOM      4  C   UNL     1      -4.968  -2.497 129.331  0.00  0.00    +0.000 A 
ATOM      5  C   UNL     1      -3.826  -3.079 129.876  0.00  0.00    +0.000 A 
ATOM      6 CL   UNL     1      -2.759  -3.979 128.876  0.00  0.00    +0.000 Cl
ATOM      7  C   UNL     1      -3.540  -2.931 131.224  0.00  0.00    +0.000 A 
ATOM      8  C   UNL     1      -4.401  -2.189 132.029  0.00  0.00    +0.000 A 
ATOM      9  C   UNL     1      -7.089  -1.226 129.506  0.00  0.00    +0.000 C 
ATOM     10  N   UNL     1      -7.619  -0.084 129.783  0.00  0.00    +0.000 NA
ATOM     11  C   UNL     1      -7.010   0.766 130.806  0.00  0.00    +0.000 C 
ATOM     12  C   UNL     1      -7.198   0.137 132.176  0.00  0.00    +0.000 C 
ATOM     13  O   UNL     1      -7.887   0.693 133.043  0.00  0.00    +0.000 OA
ENDROOT
BRANCH   9  14
ATOM     14  C   UNL     1      -7.762  -2.039 128.452  0.00  0.00    +0.000 A 
ATOM     15  C   UNL     1      -7.843  -1.528 127.152  0.00  0.00    +0.000 A 
ATOM     16  C   UNL     1      -8.588  -2.208 126.188  0.00  0.00    +0.000 A 
ATOM     17  C   UNL     1      -9.170  -3.437 126.496  0.00  0.00    +0.000 A 
ATOM     18  C   UNL     1      -9.000  -3.995 127.765  0.00  0.00    +0.000 A 
ATOM     19  C   UNL     1      -8.335  -3.275 128.762  0.00  0.00    +0.000 A 
ENDBRANCH   9  14
BRANCH   1  20
ATOM     20  C   UNL     1      -6.708  -1.701 133.748  0.00  0.00    +0.000 C 
BRANCH  20  22
ATOM     21  F   UNL     1      -8.037  -3.213 132.480  0.00  0.00    +0.000 F 
ATOM     22  C   UNL     1      -7.556  -2.983 133.723  0.00  0.00    +0.000 C 
ATOM     23  F   UNL     1      -8.636  -2.930 134.534  0.00  0.00    +0.000 F 
ATOM     24  F   UNL     1      -6.830  -4.062 134.094  0.00  0.00    +0.000 F 
ENDBRANCH  20  22
ENDBRANCH   1  20
TORSDOF 3
ENDMDL
MODEL 9
REMARK VINA RESULT:      -8.0      2.805      6.099
REMARK  Name = Halazepam
REMARK  3 active torsions:
REMARK  status: ('A' for Active; 'I' for Inactive)
REMARK    1  A    between atoms: C_2  and  C_5
REMARK    2  A    between atoms: C_5  and  N_6
REMARK    3  A    between atoms: C_14  and  C_19
REMARK                            x       y       z     vdW  Elec       q    Type
REMARK                         _______ _______ _______ _____ _____    ______ ____
ROOT
ATOM      1  N   UNL     1      -7.720  -0.049 123.808  0.00  0.00    +0.000 N 
ATOM      2  C   UNL     1      -6.732   0.500 124.675  0.00  0.00    +0.000 A 
ATOM      3  C   UNL     1      -6.152  -0.217 125.737  0.00  0.00    +0.000 A 
ATOM      4  C   UNL     1      -5.293   0.442 126.635  0.00  0.00    +0.000 A 
ATOM      5  C   UNL     1      -5.017   1.798 126.483  0.00  0.00    +0.000 A 
ATOM      6 CL   UNL     1      -3.983   2.595 127.598  0.00  0.00    +0.000 Cl
ATOM      7  C   UNL     1      -5.567   2.510 125.428  0.00  0.00    +0.000 A 
ATOM      8  C   UNL     1      -6.393   1.856 124.518  0.00  0.00    +0.000 A 
ATOM      9  C   UNL     1      -6.450  -1.655 125.994  0.00  0.00    +0.000 C 
ATOM     10  N   UNL     1      -6.578  -2.557 125.081  0.00  0.00    +0.000 NA
ATOM     11  C   UNL     1      -6.448  -2.183 123.673  0.00  0.00    +0.000 C 
ATOM     12  C   UNL     1      -7.632  -1.326 123.257  0.00  0.00    +0.000 C 
ATOM     13  O   UNL     1      -8.441  -1.727 122.408  0.00  0.00    +0.000 OA
ENDROOT
BRANCH   9  14
ATOM     14  C   UNL     1      -6.593  -2.109 127.408  0.00  0.00    +0.000 A 
ATOM     15  C   UNL     1      -5.454  -2.523 128.105  0.00  0.00    +0.000 A 
ATOM     16  C   UNL     1      -5.587  -3.080 129.377  0.00  0.00    +0.000 A 
ATOM     17  C   UNL     1      -6.841  -3.137 129.985  0.00  0.00    +0.000 A 
ATOM     18  C   UNL     1      -7.962  -2.626 129.328  0.00  0.00    +0.000 A 
ATOM     19  C   UNL     1      -7.850  -2.153 128.018  0.00  0.00    +0.000 A 
ENDBRANCH   9  14
BRANCH   1  20
ATOM     20  C   UNL     1      -8.893   0.786 123.457  0.00  0.00    +0.000 C 
BRANCH  20  22
ATOM     21  F   UNL     1      -9.416   2.255 125.254  0.00  0.00    +0.000 F 
ATOM     22  C   UNL     1      -9.834   1.136 124.620  0.00  0.00    +0.000 C 
ATOM     23  F   UNL     1      -9.899   0.175 125.568  0.00  0.00    +0.000 F 
ATOM     24  F   UNL     1     -11.096   1.352 124.185  0.00  0.00    +0.000 F 
ENDBRANCH  20  22
ENDBRANCH   1  20
TORSDOF 3
ENDMDL
