MODEL 1
REMARK VINA RESULT:      -8.1      0.000      0.000
REMARK  Name = Halcinonide
REMARK  7 active torsions:
REMARK  status: ('A' for Active; 'I' for Inactive)
REMARK    1  A    between atoms: C_6  and  C_7
REMARK    2  A    between atoms: C_6  and  C_8
REMARK    3  A    between atoms: C_10  and  C_11
REMARK    4  A    between atoms: C_11  and  C_13
REMARK    5  A    between atoms: C_15  and  C_16
REMARK    6  A    between atoms: C_18  and  O_19
REMARK    7  A    between atoms: C_32  and  C_33
REMARK                            x       y       z     vdW  Elec       q    Type
REMARK                         _______ _______ _______ _____ _____    ______ ____
ROOT
ATOM      1  C   UNL     1      -4.063  -3.904 129.625  0.00  0.00    +0.000 C 
ATOM      2  C   UNL     1      -3.027  -2.790 129.477  0.00  0.00    +0.000 C 
ATOM      3  C   UNL     1      -3.214  -1.711 130.659  0.00  0.00    +0.000 C 
ATOM      4  O   UNL     1      -2.693  -2.031 132.127  0.00  0.00    +0.000 OA
ATOM      5  C   UNL     1      -3.760  -1.729 133.160  0.00  0.00    +0.000 C 
ATOM      6  C   UNL     1      -4.766  -2.652 134.407  0.00  0.00    +0.000 C 
ATOM      7  C   UNL     1      -3.037  -1.119 134.296  0.00  0.00    +0.000 C 
ATOM      8  O   UNL     1      -4.626  -0.976 132.375  0.00  0.00    +0.000 OA
ATOM      9  C   UNL     1      -4.812  -1.647 130.929  0.00  0.00    +0.000 C 
ATOM     10  C   UNL     1      -4.604  -3.725 130.964  0.00  0.00    +0.000 C 
ATOM     11  C   UNL     1      -5.642  -5.224 131.041  0.00  0.00    +0.000 C 
ATOM     12  C   UNL     1      -4.456  -3.848 132.343  0.00  0.00    +0.000 C 
ATOM     13  C   UNL     1      -5.834  -3.013 132.414  0.00  0.00    +0.000 C 
ATOM     14  C   UNL     1      -6.305  -2.502 131.184  0.00  0.00    +0.000 C 
ATOM     15  F   UNL     1      -5.189  -2.348 129.633  0.00  0.00    +0.000 F 
ATOM     16  C   UNL     1      -5.478  -3.275 129.441  0.00  0.00    +0.000 C 
ATOM     17  C   UNL     1      -5.548  -1.938 127.808  0.00  0.00    +0.000 C 
ATOM     18  C   UNL     1      -7.133  -0.689 127.869  0.00  0.00    +0.000 C 
ATOM     19  C   UNL     1      -6.918   0.269 129.324  0.00  0.00    +0.000 C 
ATOM     20  C   UNL     1      -6.893   1.587 129.212  0.00  0.00    +0.000 C 
ATOM     21  C   UNL     1      -8.248   1.590 128.754  0.00  0.00    +0.000 C 
ATOM     22  O   UNL     1      -8.665   1.433 127.627  0.00  0.00    +0.000 OA
ATOM     23  C   UNL     1      -8.879   1.915 130.040  0.00  0.00    +0.000 C 
ATOM     24  C   UNL     1      -8.179   0.551 131.280  0.00  0.00    +0.000 C 
ATOM     25  C   UNL     1      -6.554  -0.345 131.052  0.00  0.00    +0.000 C 
ATOM     26  C   UNL     1      -5.193   0.597 130.789  0.00  0.00    +0.000 C 
ENDROOT
BRANCH   9  27
ATOM     27  C   UNL     1      -6.812  -1.755 129.811  0.00  0.00    +0.000 C 
ATOM     28  O   UNL     1      -7.974  -1.642 130.433  0.00  0.00    +0.000 OA
BRANCH  27  29
ATOM     29  C   UNL     1      -7.300  -2.839 128.698  0.00  0.00    +0.000 C 
ATOM     30 CL   UNL     1      -8.801  -3.565 128.846  0.00  0.00    +0.000 Cl
ENDBRANCH  27  29
ENDBRANCH   9  27
BRANCH  13  31
ATOM     31  O   UNL     1      -7.026  -3.596 132.904  0.00  0.00    +0.000 OA
ATOM     32  H   UNL     1      -7.615  -2.868 133.084  0.00  0.00    +0.000 HD
ENDBRANCH  13  31
TORSDOF 3
ENDMDL
MODEL 2
REMARK VINA RESULT:      -8.0      4.957      6.818
REMARK  Name = Halcinonide
REMARK  7 active torsions:
REMARK  status: ('A' for Active; 'I' for Inactive)
REMARK    1  A    between atoms: C_6  and  C_7
REMARK    2  A    between atoms: C_6  and  C_8
REMARK    3  A    between atoms: C_10  and  C_11
REMARK    4  A    between atoms: C_11  and  C_13
REMARK    5  A    between atoms: C_15  and  C_16
REMARK    6  A    between atoms: C_18  and  O_19
REMARK    7  A    between atoms: C_32  and  C_33
REMARK                            x       y       z     vdW  Elec       q    Type
REMARK                         _______ _______ _______ _____ _____    ______ ____
ROOT
ATOM      1  C   UNL     1      -3.951   3.551 129.612  0.00  0.00    +0.000 C 
ATOM      2  C   UNL     1      -3.823   4.942 128.994  0.00  0.00    +0.000 C 
ATOM      3  C   UNL     1      -4.109   6.066 130.113  0.00  0.00    +0.000 C 
ATOM      4  O   UNL     1      -3.000   6.420 131.196  0.00  0.00    +0.000 OA
ATOM      5  C   UNL     1      -3.589   6.433 132.593  0.00  0.00    +0.000 C 
ATOM      6  C   UNL     1      -3.392   5.499 134.176  0.00  0.00    +0.000 C 
ATOM      7  C   UNL     1      -2.951   7.581 133.272  0.00  0.00    +0.000 C 
ATOM      8  O   UNL     1      -4.940   6.455 132.267  0.00  0.00    +0.000 OA
ATOM      9  C   UNL     1      -5.253   5.431 131.072  0.00  0.00    +0.000 C 
ATOM     10  C   UNL     1      -3.963   3.788 131.048  0.00  0.00    +0.000 C 
ATOM     11  C   UNL     1      -3.911   2.053 131.612  0.00  0.00    +0.000 C 
ATOM     12  C   UNL     1      -3.275   4.109 132.215  0.00  0.00    +0.000 C 
ATOM     13  C   UNL     1      -4.742   4.176 132.882  0.00  0.00    +0.000 C 
ATOM     14  C   UNL     1      -5.828   4.067 131.986  0.00  0.00    +0.000 C 
ATOM     15  F   UNL     1      -5.640   4.329 130.097  0.00  0.00    +0.000 F 
ATOM     16  C   UNL     1      -5.429   3.362 130.072  0.00  0.00    +0.000 C 
ATOM     17  C   UNL     1      -6.807   4.035 128.620  0.00  0.00    +0.000 C 
ATOM     18  C   UNL     1      -8.658   4.351 129.363  0.00  0.00    +0.000 C 
ATOM     19  C   UNL     1      -8.473   5.633 130.548  0.00  0.00    +0.000 C 
ATOM     20  C   UNL     1      -9.206   6.725 130.413  0.00  0.00    +0.000 C 
ATOM     21  C   UNL     1     -10.403   5.967 130.613  0.00  0.00    +0.000 C 
ATOM     22  O   UNL     1     -11.050   5.348 129.796  0.00  0.00    +0.000 OA
ATOM     23  C   UNL     1     -10.581   6.272 132.038  0.00  0.00    +0.000 C 
ATOM     24  C   UNL     1      -8.857   5.773 132.856  0.00  0.00    +0.000 C 
ATOM     25  C   UNL     1      -7.228   5.732 131.940  0.00  0.00    +0.000 C 
ATOM     26  C   UNL     1      -6.804   7.103 131.076  0.00  0.00    +0.000 C 
ENDROOT
BRANCH   9  27
ATOM     27  C   UNL     1      -7.122   4.104 130.974  0.00  0.00    +0.000 C 
ATOM     28  O   UNL     1      -7.849   3.831 132.044  0.00  0.00    +0.000 OA
BRANCH  27  29
ATOM     29  C   UNL     1      -7.309   2.658 130.248  0.00  0.00    +0.000 C 
ATOM     30 CL   UNL     1      -8.024   1.395 131.081  0.00  0.00    +0.000 Cl
ENDBRANCH  27  29
ENDBRANCH   9  27
BRANCH  13  31
ATOM     31  O   UNL     1      -5.148   3.245 133.866  0.00  0.00    +0.000 OA
ATOM     32  H   UNL     1      -5.209   3.739 134.680  0.00  0.00    +0.000 HD
ENDBRANCH  13  31
TORSDOF 3
ENDMDL
MODEL 3
REMARK VINA RESULT:      -8.0      5.326      7.897
REMARK  Name = Halcinonide
REMARK  7 active torsions:
REMARK  status: ('A' for Active; 'I' for Inactive)
REMARK    1  A    between atoms: C_6  and  C_7
REMARK    2  A    between atoms: C_6  and  C_8
REMARK    3  A    between atoms: C_10  and  C_11
REMARK    4  A    between atoms: C_11  and  C_13
REMARK    5  A    between atoms: C_15  and  C_16
REMARK    6  A    between atoms: C_18  and  O_19
REMARK    7  A    between atoms: C_32  and  C_33
REMARK                            x       y       z     vdW  Elec       q    Type
REMARK                         _______ _______ _______ _____ _____    ______ ____
ROOT
ATOM      1  C   UNL     1      -7.696   1.814 130.963  0.00  0.00    +0.000 C 
ATOM      2  C   UNL     1      -7.756   2.100 132.462  0.00  0.00    +0.000 C 
ATOM      3  C   UNL     1      -8.180   3.636 132.708  0.00  0.00    +0.000 C 
ATOM      4  O   UNL     1      -9.695   4.087 132.537  0.00  0.00    +0.000 OA
ATOM      5  C   UNL     1      -9.798   5.333 131.680  0.00  0.00    +0.000 C 
ATOM      6  C   UNL     1     -10.524   5.826 130.054  0.00  0.00    +0.000 C 
ATOM      7  C   UNL     1     -10.845   6.158 132.320  0.00  0.00    +0.000 C 
ATOM      8  O   UNL     1      -8.465   5.728 131.698  0.00  0.00    +0.000 OA
ATOM      9  C   UNL     1      -7.495   4.466 131.495  0.00  0.00    +0.000 C 
ATOM     10  C   UNL     1      -8.360   2.951 130.345  0.00  0.00    +0.000 C 
ATOM     11  C   UNL     1      -8.379   2.354 128.621  0.00  0.00    +0.000 C 
ATOM     12  C   UNL     1      -9.536   3.633 130.042  0.00  0.00    +0.000 C 
ATOM     13  C   UNL     1      -8.549   4.797 129.522  0.00  0.00    +0.000 C 
ATOM     14  C   UNL     1      -7.176   4.603 129.790  0.00  0.00    +0.000 C 
ATOM     15  F   UNL     1      -6.546   3.347 131.094  0.00  0.00    +0.000 F 
ATOM     16  C   UNL     1      -6.566   2.695 130.349  0.00  0.00    +0.000 C 
ATOM     17  C   UNL     1      -4.814   2.681 131.528  0.00  0.00    +0.000 C 
ATOM     18  C   UNL     1      -3.562   4.210 131.115  0.00  0.00    +0.000 C 
ATOM     19  C   UNL     1      -4.455   5.667 131.517  0.00  0.00    +0.000 C 
ATOM     20  C   UNL     1      -3.923   6.513 132.383  0.00  0.00    +0.000 C 
ATOM     21  C   UNL     1      -2.836   6.770 131.490  0.00  0.00    +0.000 C 
ATOM     22  O   UNL     1      -1.804   6.148 131.358  0.00  0.00    +0.000 OA
ATOM     23  C   UNL     1      -3.360   8.013 130.911  0.00  0.00    +0.000 C 
ATOM     24  C   UNL     1      -5.163   7.527 130.278  0.00  0.00    +0.000 C 
ATOM     25  C   UNL     1      -6.187   6.130 130.982  0.00  0.00    +0.000 C 
ATOM     26  C   UNL     1      -6.397   6.101 132.644  0.00  0.00    +0.000 C 
ENDROOT
BRANCH   9  27
ATOM     27  C   UNL     1      -5.591   4.502 130.214  0.00  0.00    +0.000 C 
ATOM     28  O   UNL     1      -5.384   5.421 129.286  0.00  0.00    +0.000 OA
BRANCH  27  29
ATOM     29  C   UNL     1      -4.870   3.273 129.426  0.00  0.00    +0.000 C 
ATOM     30 CL   UNL     1      -4.455   3.449 127.814  0.00  0.00    +0.000 Cl
ENDBRANCH  27  29
ENDBRANCH   9  27
BRANCH  13  31
ATOM     31  O   UNL     1      -8.478   5.148 128.153  0.00  0.00    +0.000 OA
ATOM     32  H   UNL     1      -8.878   4.422 127.680  0.00  0.00    +0.000 HD
ENDBRANCH  13  31
TORSDOF 3
ENDMDL
MODEL 4
REMARK VINA RESULT:      -7.9      2.204      4.384
REMARK  Name = Halcinonide
REMARK  7 active torsions:
REMARK  status: ('A' for Active; 'I' for Inactive)
REMARK    1  A    between atoms: C_6  and  C_7
REMARK    2  A    between atoms: C_6  and  C_8
REMARK    3  A    between atoms: C_10  and  C_11
REMARK    4  A    between atoms: C_11  and  C_13
REMARK    5  A    between atoms: C_15  and  C_16
REMARK    6  A    between atoms: C_18  and  O_19
REMARK    7  A    between atoms: C_32  and  C_33
REMARK                            x       y       z     vdW  Elec       q    Type
REMARK                         _______ _______ _______ _____ _____    ______ ____
ROOT
ATOM      1  C   UNL     1      -6.681   0.278 131.714  0.00  0.00    +0.000 C 
ATOM      2  C   UNL     1      -7.921  -0.604 131.862  0.00  0.00    +0.000 C 
ATOM      3  C   UNL     1      -7.626  -2.066 131.253  0.00  0.00    +0.000 C 
ATOM      4  O   UNL     1      -6.754  -3.115 132.071  0.00  0.00    +0.000 OA
ATOM      5  C   UNL     1      -5.680  -3.728 131.194  0.00  0.00    +0.000 C 
ATOM      6  C   UNL     1      -3.833  -3.780 131.118  0.00  0.00    +0.000 C 
ATOM      7  C   UNL     1      -5.635  -5.155 131.578  0.00  0.00    +0.000 C 
ATOM      8  O   UNL     1      -6.155  -3.337 129.948  0.00  0.00    +0.000 OA
ATOM      9  C   UNL     1      -6.651  -1.811 129.983  0.00  0.00    +0.000 C 
ATOM     10  C   UNL     1      -5.612  -0.648 131.374  0.00  0.00    +0.000 C 
ATOM     11  C   UNL     1      -4.210   0.518 131.439  0.00  0.00    +0.000 C 
ATOM     12  C   UNL     1      -4.711  -1.635 131.765  0.00  0.00    +0.000 C 
ATOM     13  C   UNL     1      -4.399  -1.765 130.188  0.00  0.00    +0.000 C 
ATOM     14  C   UNL     1      -5.243  -1.022 129.333  0.00  0.00    +0.000 C 
ATOM     15  F   UNL     1      -6.932  -0.318 129.904  0.00  0.00    +0.000 F 
ATOM     16  C   UNL     1      -6.407   0.472 130.191  0.00  0.00    +0.000 C 
ATOM     17  C   UNL     1      -8.173   0.891 129.111  0.00  0.00    +0.000 C 
ATOM     18  C   UNL     1      -7.984   0.583 127.125  0.00  0.00    +0.000 C 
ATOM     19  C   UNL     1      -7.653  -1.132 126.946  0.00  0.00    +0.000 C 
ATOM     20  C   UNL     1      -8.452  -1.851 126.176  0.00  0.00    +0.000 C 
ATOM     21  C   UNL     1      -8.052  -1.097 125.028  0.00  0.00    +0.000 C 
ATOM     22  O   UNL     1      -8.495  -0.044 124.624  0.00  0.00    +0.000 OA
ATOM     23  C   UNL     1      -7.050  -2.044 124.523  0.00  0.00    +0.000 C 
ATOM     24  C   UNL     1      -5.857  -2.352 126.063  0.00  0.00    +0.000 C 
ATOM     25  C   UNL     1      -6.368  -2.147 127.850  0.00  0.00    +0.000 C 
ATOM     26  C   UNL     1      -7.759  -2.940 128.341  0.00  0.00    +0.000 C 
ENDROOT
BRANCH   9  27
ATOM     27  C   UNL     1      -6.291  -0.304 128.290  0.00  0.00    +0.000 C 
ATOM     28  O   UNL     1      -5.374  -0.500 127.357  0.00  0.00    +0.000 OA
BRANCH  27  29
ATOM     29  C   UNL     1      -6.122   1.313 128.383  0.00  0.00    +0.000 C 
ATOM     30 CL   UNL     1      -4.830   2.059 127.623  0.00  0.00    +0.000 Cl
ENDBRANCH  27  29
ENDBRANCH   9  27
BRANCH  13  31
ATOM     31  O   UNL     1      -3.140  -1.406 129.653  0.00  0.00    +0.000 OA
ATOM     32  H   UNL     1      -3.107  -1.799 128.785  0.00  0.00    +0.000 HD
ENDBRANCH  13  31
TORSDOF 3
ENDMDL
MODEL 5
REMARK VINA RESULT:      -7.8      2.749      6.124
REMARK  Name = Halcinonide
REMARK  7 active torsions:
REMARK  status: ('A' for Active; 'I' for Inactive)
REMARK    1  A    between atoms: C_6  and  C_7
REMARK    2  A    between atoms: C_6  and  C_8
REMARK    3  A    between atoms: C_10  and  C_11
REMARK    4  A    between atoms: C_11  and  C_13
REMARK    5  A    between atoms: C_15  and  C_16
REMARK    6  A    between atoms: C_18  and  O_19
REMARK    7  A    between atoms: C_32  and  C_33
REMARK                            x       y       z     vdW  Elec       q    Type
REMARK                         _______ _______ _______ _____ _____    ______ ____
ROOT
ATOM      1  C   UNL     1      -7.798  -2.280 125.513  0.00  0.00    +0.000 C 
ATOM      2  C   UNL     1      -9.226  -1.774 125.716  0.00  0.00    +0.000 C 
ATOM      3  C   UNL     1      -9.203  -0.199 126.054  0.00  0.00    +0.000 C 
ATOM      4  O   UNL     1      -8.966   0.866 124.897  0.00  0.00    +0.000 OA
ATOM      5  C   UNL     1      -7.907   1.875 125.296  0.00  0.00    +0.000 C 
ATOM      6  C   UNL     1      -6.224   2.394 124.735  0.00  0.00    +0.000 C 
ATOM      7  C   UNL     1      -8.401   3.174 124.793  0.00  0.00    +0.000 C 
ATOM      8  O   UNL     1      -7.848   1.611 126.660  0.00  0.00    +0.000 OA
ATOM      9  C   UNL     1      -7.861   0.030 126.934  0.00  0.00    +0.000 C 
ATOM     10  C   UNL     1      -6.997  -1.072 125.384  0.00  0.00    +0.000 C 
ATOM     11  C   UNL     1      -5.402  -1.847 124.951  0.00  0.00    +0.000 C 
ATOM     12  C   UNL     1      -6.587   0.019 124.622  0.00  0.00    +0.000 C 
ATOM     13  C   UNL     1      -5.866   0.506 125.980  0.00  0.00    +0.000 C 
ATOM     14  C   UNL     1      -6.156  -0.255 127.134  0.00  0.00    +0.000 C 
ATOM     15  F   UNL     1      -7.654  -1.446 127.238  0.00  0.00    +0.000 F 
ATOM     16  C   UNL     1      -7.033  -2.120 126.863  0.00  0.00    +0.000 C 
ATOM     17  C   UNL     1      -8.186  -2.759 128.512  0.00  0.00    +0.000 C 
ATOM     18  C   UNL     1      -7.507  -2.058 130.280  0.00  0.00    +0.000 C 
ATOM     19  C   UNL     1      -7.655  -0.312 130.179  0.00  0.00    +0.000 C 
ATOM     20  C   UNL     1      -8.358   0.315 131.107  0.00  0.00    +0.000 C 
ATOM     21  C   UNL     1      -7.428  -0.095 132.112  0.00  0.00    +0.000 C 
ATOM     22  O   UNL     1      -7.399  -1.133 132.737  0.00  0.00    +0.000 OA
ATOM     23  C   UNL     1      -6.644   1.146 132.159  0.00  0.00    +0.000 C 
ATOM     24  C   UNL     1      -6.117   1.454 130.284  0.00  0.00    +0.000 C 
ATOM     25  C   UNL     1      -7.059   0.808 128.804  0.00  0.00    +0.000 C 
ATOM     26  C   UNL     1      -8.702   1.130 128.746  0.00  0.00    +0.000 C 
ENDROOT
BRANCH   9  27
ATOM     27  C   UNL     1      -6.582  -1.007 128.532  0.00  0.00    +0.000 C 
ATOM     28  O   UNL     1      -5.518  -0.431 129.066  0.00  0.00    +0.000 OA
BRANCH  27  29
ATOM     29  C   UNL     1      -5.996  -2.527 128.541  0.00  0.00    +0.000 C 
ATOM     30 CL   UNL     1      -4.364  -2.787 128.804  0.00  0.00    +0.000 Cl
ENDBRANCH  27  29
ENDBRANCH   9  27
BRANCH  13  31
ATOM     31  O   UNL     1      -4.458   0.573 126.084  0.00  0.00    +0.000 OA
ATOM     32  H   UNL     1      -4.206  -0.150 126.654  0.00  0.00    +0.000 HD
ENDBRANCH  13  31
TORSDOF 3
ENDMDL
MODEL 6
REMARK VINA RESULT:      -7.8      5.501      8.175
REMARK  Name = Halcinonide
REMARK  7 active torsions:
REMARK  status: ('A' for Active; 'I' for Inactive)
REMARK    1  A    between atoms: C_6  and  C_7
REMARK    2  A    between atoms: C_6  and  C_8
REMARK    3  A    between atoms: C_10  and  C_11
REMARK    4  A    between atoms: C_11  and  C_13
REMARK    5  A    between atoms: C_15  and  C_16
REMARK    6  A    between atoms: C_18  and  O_19
REMARK    7  A    between atoms: C_32  and  C_33
REMARK                            x       y       z     vdW  Elec       q    Type
REMARK                         _______ _______ _______ _____ _____    ______ ____
ROOT
ATOM      1  C   UNL     1      -7.313   3.932 134.805  0.00  0.00    +0.000 C 
ATOM      2  C   UNL     1      -7.939   5.326 134.828  0.00  0.00    +0.000 C 
ATOM      3  C   UNL     1      -8.437   5.725 133.348  0.00  0.00    +0.000 C 
ATOM      4  O   UNL     1      -9.779   5.107 132.759  0.00  0.00    +0.000 OA
ATOM      5  C   UNL     1      -9.560   4.568 131.359  0.00  0.00    +0.000 C 
ATOM      6  C   UNL     1      -9.622   2.937 130.491  0.00  0.00    +0.000 C 
ATOM      7  C   UNL     1     -10.778   4.937 130.608  0.00  0.00    +0.000 C 
ATOM      8  O   UNL     1      -8.337   5.164 131.078  0.00  0.00    +0.000 OA
ATOM      9  C   UNL     1      -7.351   5.065 132.341  0.00  0.00    +0.000 C 
ATOM     10  C   UNL     1      -7.705   3.376 133.518  0.00  0.00    +0.000 C 
ATOM     11  C   UNL     1      -7.065   1.682 133.747  0.00  0.00    +0.000 C 
ATOM     12  C   UNL     1      -8.684   2.815 132.703  0.00  0.00    +0.000 C 
ATOM     13  C   UNL     1      -7.583   2.965 131.534  0.00  0.00    +0.000 C 
ATOM     14  C   UNL     1      -6.413   3.674 131.882  0.00  0.00    +0.000 C 
ATOM     15  F   UNL     1      -6.311   4.811 133.421  0.00  0.00    +0.000 F 
ATOM     16  C   UNL     1      -6.043   3.988 133.903  0.00  0.00    +0.000 C 
ATOM     17  C   UNL     1      -4.867   5.699 134.290  0.00  0.00    +0.000 C 
ATOM     18  C   UNL     1      -3.565   6.124 132.806  0.00  0.00    +0.000 C 
ATOM     19  C   UNL     1      -4.555   6.473 131.400  0.00  0.00    +0.000 C 
ATOM     20  C   UNL     1      -4.397   7.637 130.792  0.00  0.00    +0.000 C 
ATOM     21  C   UNL     1      -3.055   7.290 130.440  0.00  0.00    +0.000 C 
ATOM     22  O   UNL     1      -2.045   7.418 131.097  0.00  0.00    +0.000 OA
ATOM     23  C   UNL     1      -3.331   6.843 129.068  0.00  0.00    +0.000 C 
ATOM     24  C   UNL     1      -4.758   5.498 129.278  0.00  0.00    +0.000 C 
ATOM     25  C   UNL     1      -5.960   5.450 130.709  0.00  0.00    +0.000 C 
ATOM     26  C   UNL     1      -6.782   6.866 131.063  0.00  0.00    +0.000 C 
ENDROOT
BRANCH   9  27
ATOM     27  C   UNL     1      -5.105   4.622 132.186  0.00  0.00    +0.000 C 
ATOM     28  O   UNL     1      -4.570   4.064 131.113  0.00  0.00    +0.000 OA
BRANCH  27  29
ATOM     29  C   UNL     1      -4.130   3.907 133.276  0.00  0.00    +0.000 C 
ATOM     30 CL   UNL     1      -3.091   2.687 132.789  0.00  0.00    +0.000 Cl
ENDBRANCH  27  29
ENDBRANCH   9  27
BRANCH  13  31
ATOM     31  O   UNL     1      -7.004   1.832 130.917  0.00  0.00    +0.000 OA
ATOM     32  H   UNL     1      -7.713   1.405 130.442  0.00  0.00    +0.000 HD
ENDBRANCH  13  31
TORSDOF 3
ENDMDL
MODEL 7
REMARK VINA RESULT:      -7.8      4.253      6.866
REMARK  Name = Halcinonide
REMARK  7 active torsions:
REMARK  status: ('A' for Active; 'I' for Inactive)
REMARK    1  A    between atoms: C_6  and  C_7
REMARK    2  A    between atoms: C_6  and  C_8
REMARK    3  A    between atoms: C_10  and  C_11
REMARK    4  A    between atoms: C_11  and  C_13
REMARK    5  A    between atoms: C_15  and  C_16
REMARK    6  A    between atoms: C_18  and  O_19
REMARK    7  A    between atoms: C_32  and  C_33
REMARK                            x       y       z     vdW  Elec       q    Type
REMARK                         _______ _______ _______ _____ _____    ______ ____
ROOT
ATOM      1  C   UNL     1      -6.420   1.032 128.604  0.00  0.00    +0.000 C 
ATOM      2  C   UNL     1      -5.896   0.526 129.948  0.00  0.00    +0.000 C 
ATOM      3  C   UNL     1      -6.420   1.484 131.133  0.00  0.00    +0.000 C 
ATOM      4  O   UNL     1      -7.920   1.374 131.650  0.00  0.00    +0.000 OA
ATOM      5  C   UNL     1      -8.568   2.742 131.732  0.00  0.00    +0.000 C 
ATOM      6  C   UNL     1      -9.975   3.645 130.942  0.00  0.00    +0.000 C 
ATOM      7  C   UNL     1      -9.372   2.716 132.973  0.00  0.00    +0.000 C 
ATOM      8  O   UNL     1      -7.431   3.535 131.632  0.00  0.00    +0.000 OA
ATOM      9  C   UNL     1      -6.445   2.975 130.497  0.00  0.00    +0.000 C 
ATOM     10  C   UNL     1      -7.454   1.994 128.953  0.00  0.00    +0.000 C 
ATOM     11  C   UNL     1      -8.092   2.329 127.276  0.00  0.00    +0.000 C 
ATOM     12  C   UNL     1      -8.742   2.255 129.413  0.00  0.00    +0.000 C 
ATOM     13  C   UNL     1      -8.263   3.795 129.429  0.00  0.00    +0.000 C 
ATOM     14  C   UNL     1      -6.891   4.012 129.173  0.00  0.00    +0.000 C 
ATOM     15  F   UNL     1      -5.582   2.617 129.296  0.00  0.00    +0.000 F 
ATOM     16  C   UNL     1      -5.806   2.442 128.348  0.00  0.00    +0.000 C 
ATOM     17  C   UNL     1      -3.745   2.509 128.804  0.00  0.00    +0.000 C 
ATOM     18  C   UNL     1      -3.042   4.386 129.046  0.00  0.00    +0.000 C 
ATOM     19  C   UNL     1      -3.908   5.035 130.427  0.00  0.00    +0.000 C 
ATOM     20  C   UNL     1      -3.208   5.494 131.451  0.00  0.00    +0.000 C 
ATOM     21  C   UNL     1      -2.647   6.521 130.628  0.00  0.00    +0.000 C 
ATOM     22  O   UNL     1      -1.678   6.462 129.901  0.00  0.00    +0.000 OA
ATOM     23  C   UNL     1      -3.557   7.601 131.031  0.00  0.00    +0.000 C 
ATOM     24  C   UNL     1      -5.356   6.855 130.723  0.00  0.00    +0.000 C 
ATOM     25  C   UNL     1      -5.755   5.028 130.724  0.00  0.00    +0.000 C 
ATOM     26  C   UNL     1      -5.247   4.138 132.049  0.00  0.00    +0.000 C 
ENDROOT
BRANCH   9  27
ATOM     27  C   UNL     1      -5.279   4.307 129.036  0.00  0.00    +0.000 C 
ATOM     28  O   UNL     1      -5.612   5.568 128.814  0.00  0.00    +0.000 OA
BRANCH  27  29
ATOM     29  C   UNL     1      -4.790   3.972 127.520  0.00  0.00    +0.000 C 
ATOM     30 CL   UNL     1      -5.263   4.962 126.255  0.00  0.00    +0.000 Cl
ENDBRANCH  27  29
ENDBRANCH   9  27
BRANCH  13  31
ATOM     31  O   UNL     1      -8.825   4.752 128.552  0.00  0.00    +0.000 OA
ATOM     32  H   UNL     1      -9.731   4.855 128.830  0.00  0.00    +0.000 HD
ENDBRANCH  13  31
TORSDOF 3
ENDMDL
MODEL 8
REMARK VINA RESULT:      -7.7      4.759      7.413
REMARK  Name = Halcinonide
REMARK  7 active torsions:
REMARK  status: ('A' for Active; 'I' for Inactive)
REMARK    1  A    between atoms: C_6  and  C_7
REMARK    2  A    between atoms: C_6  and  C_8
REMARK    3  A    between atoms: C_10  and  C_11
REMARK    4  A    between atoms: C_11  and  C_13
REMARK    5  A    between atoms: C_15  and  C_16
REMARK    6  A    between atoms: C_18  and  O_19
REMARK    7  A    between atoms: C_32  and  C_33
REMARK                            x       y       z     vdW  Elec       q    Type
REMARK                         _______ _______ _______ _____ _____    ______ ____
ROOT
ATOM      1  C   UNL     1      -3.120   4.099 131.332  0.00  0.00    +0.000 C 
ATOM      2  C   UNL     1      -3.626   2.811 131.981  0.00  0.00    +0.000 C 
ATOM      3  C   UNL     1      -4.725   2.116 131.030  0.00  0.00    +0.000 C 
ATOM      4  O   UNL     1      -4.272   1.312 129.735  0.00  0.00    +0.000 OA
ATOM      5  C   UNL     1      -5.079   1.733 128.523  0.00  0.00    +0.000 C 
ATOM      6  C   UNL     1      -4.781   2.542 126.888  0.00  0.00    +0.000 C 
ATOM      7  C   UNL     1      -5.342   0.483 127.779  0.00  0.00    +0.000 C 
ATOM      8  O   UNL     1      -6.107   2.415 129.164  0.00  0.00    +0.000 OA
ATOM      9  C   UNL     1      -5.528   3.344 130.338  0.00  0.00    +0.000 C 
ATOM     10  C   UNL     1      -3.590   4.025 129.957  0.00  0.00    +0.000 C 
ATOM     11  C   UNL     1      -2.740   5.499 129.298  0.00  0.00    +0.000 C 
ATOM     12  C   UNL     1      -3.479   3.483 128.679  0.00  0.00    +0.000 C 
ATOM     13  C   UNL     1      -4.856   4.271 128.388  0.00  0.00    +0.000 C 
ATOM     14  C   UNL     1      -5.467   4.872 129.511  0.00  0.00    +0.000 C 
ATOM     15  F   UNL     1      -5.018   4.395 131.312  0.00  0.00    +0.000 F 
ATOM     16  C   UNL     1      -4.318   5.091 131.230  0.00  0.00    +0.000 C 
ATOM     17  C   UNL     1      -5.459   5.147 133.006  0.00  0.00    +0.000 C 
ATOM     18  C   UNL     1      -7.298   5.940 132.747  0.00  0.00    +0.000 C 
ATOM     19  C   UNL     1      -8.118   4.864 131.629  0.00  0.00    +0.000 C 
ATOM     20  C   UNL     1      -9.271   4.331 131.998  0.00  0.00    +0.000 C 
ATOM     21  C   UNL     1      -9.874   5.627 132.048  0.00  0.00    +0.000 C 
ATOM     22  O   UNL     1      -9.872   6.427 132.958  0.00  0.00    +0.000 OA
ATOM     23  C   UNL     1     -10.513   5.586 130.726  0.00  0.00    +0.000 C 
ATOM     24  C   UNL     1      -9.040   5.144 129.492  0.00  0.00    +0.000 C 
ATOM     25  C   UNL     1      -7.488   4.226 129.987  0.00  0.00    +0.000 C 
ATOM     26  C   UNL     1      -7.687   2.776 130.802  0.00  0.00    +0.000 C 
ENDROOT
BRANCH   9  27
ATOM     27  C   UNL     1      -6.297   5.455 130.804  0.00  0.00    +0.000 C 
ATOM     28  O   UNL     1      -7.049   6.133 129.954  0.00  0.00    +0.000 OA
BRANCH  27  29
ATOM     29  C   UNL     1      -5.475   6.733 131.389  0.00  0.00    +0.000 C 
ATOM     30 CL   UNL     1      -5.052   7.989 130.366  0.00  0.00    +0.000 Cl
ENDBRANCH  27  29
ENDBRANCH   9  27
BRANCH  13  31
ATOM     31  O   UNL     1      -4.909   5.352 127.478  0.00  0.00    +0.000 OA
ATOM     32  H   UNL     1      -4.347   6.029 127.848  0.00  0.00    +0.000 HD
ENDBRANCH  13  31
TORSDOF 3
ENDMDL
MODEL 9
REMARK VINA RESULT:      -7.7      4.292      7.519
REMARK  Name = Halcinonide
REMARK  7 active torsions:
REMARK  status: ('A' for Active; 'I' for Inactive)
REMARK    1  A    between atoms: C_6  and  C_7
REMARK    2  A    between atoms: C_6  and  C_8
REMARK    3  A    between atoms: C_10  and  C_11
REMARK    4  A    between atoms: C_11  and  C_13
REMARK    5  A    between atoms: C_15  and  C_16
REMARK    6  A    between atoms: C_18  and  O_19
REMARK    7  A    between atoms: C_32  and  C_33
REMARK                            x       y       z     vdW  Elec       q    Type
REMARK                         _______ _______ _______ _____ _____    ______ ____
ROOT
ATOM      1  C   UNL     1      -5.791   5.729 133.238  0.00  0.00    +0.000 C 
ATOM      2  C   UNL     1      -5.314   6.415 131.960  0.00  0.00    +0.000 C 
ATOM      3  C   UNL     1      -6.454   6.308 130.825  0.00  0.00    +0.000 C 
ATOM      4  O   UNL     1      -7.733   7.252 130.882  0.00  0.00    +0.000 OA
ATOM      5  C   UNL     1      -9.007   6.451 130.697  0.00  0.00    +0.000 C 
ATOM      6  C   UNL     1     -10.522   6.037 131.672  0.00  0.00    +0.000 C 
ATOM      7  C   UNL     1      -9.871   7.291 129.841  0.00  0.00    +0.000 C 
ATOM      8  O   UNL     1      -8.461   5.266 130.219  0.00  0.00    +0.000 OA
ATOM      9  C   UNL     1      -7.153   4.863 131.058  0.00  0.00    +0.000 C 
ATOM     10  C   UNL     1      -7.219   5.530 133.037  0.00  0.00    +0.000 C 
ATOM     11  C   UNL     1      -7.645   4.908 134.699  0.00  0.00    +0.000 C 
ATOM     12  C   UNL     1      -8.507   6.056 132.986  0.00  0.00    +0.000 C 
ATOM     13  C   UNL     1      -8.920   4.594 132.443  0.00  0.00    +0.000 C 
ATOM     14  C   UNL     1      -7.848   3.717 132.167  0.00  0.00    +0.000 C 
ATOM     15  F   UNL     1      -6.044   4.326 131.949  0.00  0.00    +0.000 F 
ATOM     16  C   UNL     1      -5.979   4.212 132.931  0.00  0.00    +0.000 C 
ATOM     17  C   UNL     1      -4.373   3.422 131.810  0.00  0.00    +0.000 C 
ATOM     18  C   UNL     1      -4.816   1.671 130.907  0.00  0.00    +0.000 C 
ATOM     19  C   UNL     1      -6.112   2.040 129.782  0.00  0.00    +0.000 C 
ATOM     20  C   UNL     1      -5.941   1.741 128.505  0.00  0.00    +0.000 C 
ATOM     21  C   UNL     1      -5.876   0.348 128.822  0.00  0.00    +0.000 C 
ATOM     22  O   UNL     1      -4.916  -0.302 129.175  0.00  0.00    +0.000 OA
ATOM     23  C   UNL     1      -7.271   0.018 128.501  0.00  0.00    +0.000 C 
ATOM     24  C   UNL     1      -8.326   1.303 129.562  0.00  0.00    +0.000 C 
ATOM     25  C   UNL     1      -7.697   2.970 130.130  0.00  0.00    +0.000 C 
ATOM     26  C   UNL     1      -7.027   3.969 128.964  0.00  0.00    +0.000 C 
ENDROOT
BRANCH   9  27
ATOM     27  C   UNL     1      -6.638   2.716 131.682  0.00  0.00    +0.000 C 
ATOM     28  O   UNL     1      -7.551   1.761 131.738  0.00  0.00    +0.000 OA
BRANCH  27  29
ATOM     29  C   UNL     1      -5.756   2.208 132.953  0.00  0.00    +0.000 C 
ATOM     30 CL   UNL     1      -6.373   1.039 133.980  0.00  0.00    +0.000 Cl
ENDBRANCH  27  29
ENDBRANCH   9  27
BRANCH  13  31
ATOM     31  O   UNL     1      -9.746   3.732 133.202  0.00  0.00    +0.000 OA
ATOM     32  H   UNL     1      -9.164   3.291 133.816  0.00  0.00    +0.000 HD
ENDBRANCH  13  31
TORSDOF 3
ENDMDL
