MODEL 1
REMARK VINA RESULT:      -4.0      0.000      0.000
REMARK  Name = Halothane
REMARK  1 active torsions:
REMARK  status: ('A' for Active; 'I' for Inactive)
REMARK    1  A    between atoms: C_2  and  C_5
REMARK                            x       y       z     vdW  Elec       q    Type
REMARK                         _______ _______ _______ _____ _____    ______ ____
ROOT
ATOM      1  C   UNL     1     -12.620   8.161 129.997  0.00  0.00    +0.000 C 
ATOM      2  F   UNL     1     -13.389   7.138 130.444  0.00  0.00    +0.000 F 
ATOM      3  F   UNL     1     -11.344   7.860 130.342  0.00  0.00    +0.000 F 
ATOM      4  F   UNL     1     -12.975   9.268 130.687  0.00  0.00    +0.000 F 
ENDROOT
BRANCH   1   5
ATOM      5  C   UNL     1     -12.753   8.332 128.492  0.00  0.00    +0.000 C 
ATOM      6 CL   UNL     1     -13.886   7.166 127.763  0.00  0.00    +0.000 Cl
ATOM      7 BR   UNL     1     -11.020   8.141 127.607  0.00  0.00    +0.000 Br
ENDBRANCH   1   5
TORSDOF 1
ENDMDL
MODEL 2
REMARK VINA RESULT:      -4.0      2.827      3.298
REMARK  Name = Halothane
REMARK  1 active torsions:
REMARK  status: ('A' for Active; 'I' for Inactive)
REMARK    1  A    between atoms: C_2  and  C_5
REMARK                            x       y       z     vdW  Elec       q    Type
REMARK                         _______ _______ _______ _____ _____    ______ ____
ROOT
ATOM      1  C   UNL     1     -11.070   8.142 127.660  0.00  0.00    +0.000 C 
ATOM      2  F   UNL     1     -10.119   8.907 128.249  0.00  0.00    +0.000 F 
ATOM      3  F   UNL     1     -10.796   6.860 128.002  0.00  0.00    +0.000 F 
ATOM      4  F   UNL     1     -10.905   8.247 126.322  0.00  0.00    +0.000 F 
ENDROOT
BRANCH   1   5
ATOM      5  C   UNL     1     -12.463   8.544 128.119  0.00  0.00    +0.000 C 
ATOM      6 CL   UNL     1     -12.512   9.016 129.838  0.00  0.00    +0.000 Cl
ATOM      7 BR   UNL     1     -13.741   7.091 127.843  0.00  0.00    +0.000 Br
ENDBRANCH   1   5
TORSDOF 1
ENDMDL
MODEL 3
REMARK VINA RESULT:      -3.9      1.824      2.144
REMARK  Name = Halothane
REMARK  1 active torsions:
REMARK  status: ('A' for Active; 'I' for Inactive)
REMARK    1  A    between atoms: C_2  and  C_5
REMARK                            x       y       z     vdW  Elec       q    Type
REMARK                         _______ _______ _______ _____ _____    ______ ____
ROOT
ATOM      1  C   UNL     1     -12.875   7.142 129.610  0.00  0.00    +0.000 C 
ATOM      2  F   UNL     1     -12.103   6.050 129.388  0.00  0.00    +0.000 F 
ATOM      3  F   UNL     1     -13.418   6.983 130.841  0.00  0.00    +0.000 F 
ATOM      4  F   UNL     1     -13.887   7.111 128.714  0.00  0.00    +0.000 F 
ENDROOT
BRANCH   1   5
ATOM      5  C   UNL     1     -12.055   8.420 129.535  0.00  0.00    +0.000 C 
ATOM      6 CL   UNL     1     -13.063   9.872 129.304  0.00  0.00    +0.000 Cl
ATOM      7 BR   UNL     1     -10.753   8.337 128.079  0.00  0.00    +0.000 Br
ENDBRANCH   1   5
TORSDOF 1
ENDMDL
MODEL 4
REMARK VINA RESULT:      -3.9      2.019      2.178
REMARK  Name = Halothane
REMARK  1 active torsions:
REMARK  status: ('A' for Active; 'I' for Inactive)
REMARK    1  A    between atoms: C_2  and  C_5
REMARK                            x       y       z     vdW  Elec       q    Type
REMARK                         _______ _______ _______ _____ _____    ______ ____
ROOT
ATOM      1  C   UNL     1     -13.015   8.582 128.432  0.00  0.00    +0.000 C 
ATOM      2  F   UNL     1     -13.876   7.830 127.704  0.00  0.00    +0.000 F 
ATOM      3  F   UNL     1     -13.124   8.156 129.714  0.00  0.00    +0.000 F 
ATOM      4  F   UNL     1     -13.457   9.859 128.392  0.00  0.00    +0.000 F 
ENDROOT
BRANCH   1   5
ATOM      5  C   UNL     1     -11.589   8.433 127.926  0.00  0.00    +0.000 C 
ATOM      6 CL   UNL     1     -11.482   7.438 126.450  0.00  0.00    +0.000 Cl
ATOM      7 BR   UNL     1     -10.438   7.634 129.290  0.00  0.00    +0.000 Br
ENDBRANCH   1   5
TORSDOF 1
ENDMDL
MODEL 5
REMARK VINA RESULT:      -3.8      2.258      2.742
REMARK  Name = Halothane
REMARK  1 active torsions:
REMARK  status: ('A' for Active; 'I' for Inactive)
REMARK    1  A    between atoms: C_2  and  C_5
REMARK                            x       y       z     vdW  Elec       q    Type
REMARK                         _______ _______ _______ _____ _____    ______ ____
ROOT
ATOM      1  C   UNL     1     -11.516   8.358 128.500  0.00  0.00    +0.000 C 
ATOM      2  F   UNL     1     -11.427   8.393 127.148  0.00  0.00    +0.000 F 
ATOM      3  F   UNL     1     -12.125   9.510 128.873  0.00  0.00    +0.000 F 
ATOM      4  F   UNL     1     -10.256   8.390 128.991  0.00  0.00    +0.000 F 
ENDROOT
BRANCH   1   5
ATOM      5  C   UNL     1     -12.305   7.146 128.970  0.00  0.00    +0.000 C 
ATOM      6 CL   UNL     1     -13.838   6.937 128.085  0.00  0.00    +0.000 Cl
ATOM      7 BR   UNL     1     -12.708   7.266 130.879  0.00  0.00    +0.000 Br
ENDBRANCH   1   5
TORSDOF 1
ENDMDL
MODEL 6
REMARK VINA RESULT:      -3.8      2.306      2.662
REMARK  Name = Halothane
REMARK  1 active torsions:
REMARK  status: ('A' for Active; 'I' for Inactive)
REMARK    1  A    between atoms: C_2  and  C_5
REMARK                            x       y       z     vdW  Elec       q    Type
REMARK                         _______ _______ _______ _____ _____    ______ ____
ROOT
ATOM      1  C   UNL     1     -12.640   8.727 128.996  0.00  0.00    +0.000 C 
ATOM      2  F   UNL     1     -11.644   8.990 128.116  0.00  0.00    +0.000 F 
ATOM      3  F   UNL     1     -13.760   8.532 128.258  0.00  0.00    +0.000 F 
ATOM      4  F   UNL     1     -12.834   9.843 129.735  0.00  0.00    +0.000 F 
ENDROOT
BRANCH   1   5
ATOM      5  C   UNL     1     -12.322   7.504 129.840  0.00  0.00    +0.000 C 
ATOM      6 CL   UNL     1     -12.936   7.639 131.508  0.00  0.00    +0.000 Cl
ATOM      7 BR   UNL     1     -10.395   7.185 129.917  0.00  0.00    +0.000 Br
ENDBRANCH   1   5
TORSDOF 1
ENDMDL
MODEL 7
REMARK VINA RESULT:      -3.8      2.739      3.057
REMARK  Name = Halothane
REMARK  1 active torsions:
REMARK  status: ('A' for Active; 'I' for Inactive)
REMARK    1  A    between atoms: C_2  and  C_5
REMARK                            x       y       z     vdW  Elec       q    Type
REMARK                         _______ _______ _______ _____ _____    ______ ____
ROOT
ATOM      1  C   UNL     1     -13.005   8.210 128.400  0.00  0.00    +0.000 C 
ATOM      2  F   UNL     1     -13.887   7.200 128.602  0.00  0.00    +0.000 F 
ATOM      3  F   UNL     1     -13.744   9.324 128.176  0.00  0.00    +0.000 F 
ATOM      4  F   UNL     1     -12.330   7.938 127.261  0.00  0.00    +0.000 F 
ENDROOT
BRANCH   1   5
ATOM      5  C   UNL     1     -12.092   8.392 129.602  0.00  0.00    +0.000 C 
ATOM      6 CL   UNL     1     -10.407   7.914 129.266  0.00  0.00    +0.000 Cl
ATOM      7 BR   UNL     1     -12.730   7.359 131.134  0.00  0.00    +0.000 Br
ENDBRANCH   1   5
TORSDOF 1
ENDMDL
MODEL 8
REMARK VINA RESULT:      -3.8     12.350     12.683
REMARK  Name = Halothane
REMARK  1 active torsions:
REMARK  status: ('A' for Active; 'I' for Inactive)
REMARK    1  A    between atoms: C_2  and  C_5
REMARK                            x       y       z     vdW  Elec       q    Type
REMARK                         _______ _______ _______ _____ _____    ______ ____
ROOT
ATOM      1  C   UNL     1      -9.215  -3.177 124.229  0.00  0.00    +0.000 C 
ATOM      2  F   UNL     1     -10.051  -3.631 123.263  0.00  0.00    +0.000 F 
ATOM      3  F   UNL     1      -8.249  -4.117 124.371  0.00  0.00    +0.000 F 
ATOM      4  F   UNL     1      -9.914  -3.139 125.386  0.00  0.00    +0.000 F 
ENDROOT
BRANCH   1   5
ATOM      5  C   UNL     1      -8.617  -1.831 123.852  0.00  0.00    +0.000 C 
ATOM      6 CL   UNL     1      -9.592  -0.958 122.642  0.00  0.00    +0.000 Cl
ATOM      7 BR   UNL     1      -6.805  -2.039 123.148  0.00  0.00    +0.000 Br
ENDBRANCH   1   5
TORSDOF 1
ENDMDL
MODEL 9
REMARK VINA RESULT:      -3.8      2.710      2.982
REMARK  Name = Halothane
REMARK  1 active torsions:
REMARK  status: ('A' for Active; 'I' for Inactive)
REMARK    1  A    between atoms: C_2  and  C_5
REMARK                            x       y       z     vdW  Elec       q    Type
REMARK                         _______ _______ _______ _____ _____    ______ ____
ROOT
ATOM      1  C   UNL     1     -12.694   8.103 128.311  0.00  0.00    +0.000 C 
ATOM      2  F   UNL     1     -13.885   8.511 127.809  0.00  0.00    +0.000 F 
ATOM      3  F   UNL     1     -11.751   8.483 127.414  0.00  0.00    +0.000 F 
ATOM      4  F   UNL     1     -12.705   6.752 128.337  0.00  0.00    +0.000 F 
ENDROOT
BRANCH   1   5
ATOM      5  C   UNL     1     -12.430   8.721 129.675  0.00  0.00    +0.000 C 
ATOM      6 CL   UNL     1     -12.922   7.658 131.019  0.00  0.00    +0.000 Cl
ATOM      7 BR   UNL     1     -13.363  10.428 129.867  0.00  0.00    +0.000 Br
ENDBRANCH   1   5
TORSDOF 1
ENDMDL
