MODEL 1
REMARK VINA RESULT:      -7.0      0.000      0.000
REMARK  Name = Halofantrine
REMARK  14 active torsions:
REMARK  status: ('A' for Active; 'I' for Inactive)
REMARK    1  A    between atoms: C_1  and  C_2
REMARK    2  A    between atoms: C_2  and  C_3
REMARK    3  A    between atoms: C_3  and  C_4
REMARK    4  A    between atoms: C_4  and  N_5
REMARK    5  A    between atoms: N_5  and  C_6
REMARK    6  A    between atoms: N_5  and  C_10
REMARK    7  A    between atoms: C_6  and  C_7
REMARK    8  A    between atoms: C_7  and  C_8
REMARK    9  A    between atoms: C_8  and  C_9
REMARK   10  A    between atoms: C_10  and  C_11
REMARK   11  A    between atoms: C_11  and  C_12
REMARK   12  A    between atoms: C_12  and  O_13
REMARK   13  A    between atoms: C_12  and  C_14
REMARK   14  A    between atoms: C_18  and  C_30
REMARK                            x       y       z     vdW  Elec       q    Type
REMARK                         _______ _______ _______ _____ _____    ______ ____
ROOT
ATOM      1  C   UNL     1      -8.073   5.360 133.074  0.00  0.00    +0.000 A 
ATOM      2  C   UNL     1      -8.775   6.068 132.066  0.00  0.00    +0.000 A 
ATOM      3  C   UNL     1     -10.186   6.060 131.990  0.00  0.00    +0.000 A 
ATOM      4  C   UNL     1     -10.890   6.660 130.958  0.00  0.00    +0.000 A 
ATOM      5  C   UNL     1     -10.206   7.370 129.997  0.00  0.00    +0.000 A 
ATOM      6  C   UNL     1      -8.807   7.459 130.085  0.00  0.00    +0.000 A 
ATOM      7  C   UNL     1      -8.052   6.815 131.111  0.00  0.00    +0.000 A 
ATOM      8  C   UNL     1      -6.616   6.913 131.198  0.00  0.00    +0.000 A 
ATOM      9  C   UNL     1      -5.836   7.658 130.288  0.00  0.00    +0.000 A 
ATOM     10  C   UNL     1      -4.451   7.752 130.390  0.00  0.00    +0.000 A 
ATOM     11 CL   UNL     1      -3.573   8.680 129.238  0.00  0.00    +0.000 Cl
ATOM     12  C   UNL     1      -3.781   7.105 131.411  0.00  0.00    +0.000 A 
ATOM     13  C   UNL     1      -4.510   6.362 132.334  0.00  0.00    +0.000 A 
ATOM     14 CL   UNL     1      -3.593   5.583 133.587  0.00  0.00    +0.000 Cl
ATOM     15  C   UNL     1      -5.925   6.246 132.248  0.00  0.00    +0.000 A 
ATOM     16  C   UNL     1      -6.675   5.490 133.156  0.00  0.00    +0.000 A 
ENDROOT
BRANCH   5  17
ATOM     17  C   UNL     1     -10.964   8.060 128.899  0.00  0.00    +0.000 C 
ATOM     18  F   UNL     1     -11.927   8.889 129.382  0.00  0.00    +0.000 F 
ATOM     19  F   UNL     1     -10.162   8.821 128.109  0.00  0.00    +0.000 F 
ATOM     20  F   UNL     1     -11.601   7.192 128.063  0.00  0.00    +0.000 F 
ENDBRANCH   5  17
BRANCH   1  21
ATOM     21  C   UNL     1      -8.738   4.516 134.151  0.00  0.00    +0.000 C 
BRANCH  21  22
ATOM     22  O   UNL     1      -8.350   4.895 135.464  0.00  0.00    +0.000 OA
ATOM     23  H   UNL     1      -7.653   4.292 135.763  0.00  0.00    +0.000 HD
ENDBRANCH  21  22
BRANCH  21  24
ATOM     24  C   UNL     1      -8.501   3.042 133.837  0.00  0.00    +0.000 C 
BRANCH  24  25
ATOM     25  C   UNL     1      -9.487   2.507 132.799  0.00  0.00    +0.000 C 
BRANCH  25  26
ATOM     26  N   UNL     1      -8.821   1.874 131.635  0.00  0.00    +0.000 NA
BRANCH  26  27
ATOM     27  C   UNL     1      -9.138   0.417 131.682  0.00  0.00    +0.000 C 
BRANCH  27  28
ATOM     28  C   UNL     1      -8.156  -0.466 130.926  0.00  0.00    +0.000 C 
BRANCH  28  30
ATOM     29  C   UNL     1      -6.447  -0.841 132.641  0.00  0.00    +0.000 C 
ATOM     30  C   UNL     1      -6.684  -0.314 131.221  0.00  0.00    +0.000 C 
ENDBRANCH  28  30
ENDBRANCH  27  28
ENDBRANCH  26  27
BRANCH  26  31
ATOM     31  C   UNL     1      -9.250   2.559 130.386  0.00  0.00    +0.000 C 
BRANCH  31  32
ATOM     32  C   UNL     1      -8.199   3.427 129.720  0.00  0.00    +0.000 C 
BRANCH  32  33
ATOM     33  C   UNL     1      -6.778   3.253 130.196  0.00  0.00    +0.000 C 
ATOM     34  C   UNL     1      -5.887   3.986 129.192  0.00  0.00    +0.000 C 
ENDBRANCH  32  33
ENDBRANCH  31  32
ENDBRANCH  26  31
ENDBRANCH  25  26
ENDBRANCH  24  25
ENDBRANCH  21  24
ENDBRANCH   1  21
TORSDOF 12
ENDMDL
MODEL 2
REMARK VINA RESULT:      -7.0      6.659      8.482
REMARK  Name = Halofantrine
REMARK  14 active torsions:
REMARK  status: ('A' for Active; 'I' for Inactive)
REMARK    1  A    between atoms: C_1  and  C_2
REMARK    2  A    between atoms: C_2  and  C_3
REMARK    3  A    between atoms: C_3  and  C_4
REMARK    4  A    between atoms: C_4  and  N_5
REMARK    5  A    between atoms: N_5  and  C_6
REMARK    6  A    between atoms: N_5  and  C_10
REMARK    7  A    between atoms: C_6  and  C_7
REMARK    8  A    between atoms: C_7  and  C_8
REMARK    9  A    between atoms: C_8  and  C_9
REMARK   10  A    between atoms: C_10  and  C_11
REMARK   11  A    between atoms: C_11  and  C_12
REMARK   12  A    between atoms: C_12  and  O_13
REMARK   13  A    between atoms: C_12  and  C_14
REMARK   14  A    between atoms: C_18  and  C_30
REMARK                            x       y       z     vdW  Elec       q    Type
REMARK                         _______ _______ _______ _____ _____    ______ ____
ROOT
ATOM      1  C   UNL     1      -8.634   1.852 124.662  0.00  0.00    +0.000 A 
ATOM      2  C   UNL     1      -7.759   2.569 123.809  0.00  0.00    +0.000 A 
ATOM      3  C   UNL     1      -8.100   2.874 122.471  0.00  0.00    +0.000 A 
ATOM      4  C   UNL     1      -7.223   3.485 121.589  0.00  0.00    +0.000 A 
ATOM      5  C   UNL     1      -5.988   3.895 122.038  0.00  0.00    +0.000 A 
ATOM      6  C   UNL     1      -5.646   3.672 123.382  0.00  0.00    +0.000 A 
ATOM      7  C   UNL     1      -6.510   3.006 124.303  0.00  0.00    +0.000 A 
ATOM      8  C   UNL     1      -6.156   2.785 125.682  0.00  0.00    +0.000 A 
ATOM      9  C   UNL     1      -4.933   3.211 126.244  0.00  0.00    +0.000 A 
ATOM     10  C   UNL     1      -4.607   2.999 127.580  0.00  0.00    +0.000 A 
ATOM     11 CL   UNL     1      -3.095   3.550 128.187  0.00  0.00    +0.000 Cl
ATOM     12  C   UNL     1      -5.493   2.349 128.419  0.00  0.00    +0.000 A 
ATOM     13  C   UNL     1      -6.712   1.914 127.910  0.00  0.00    +0.000 A 
ATOM     14 CL   UNL     1      -7.768   1.109 129.030  0.00  0.00    +0.000 Cl
ATOM     15  C   UNL     1      -7.066   2.114 126.547  0.00  0.00    +0.000 A 
ATOM     16  C   UNL     1      -8.279   1.668 126.011  0.00  0.00    +0.000 A 
ENDROOT
BRANCH   5  17
ATOM     17  C   UNL     1      -5.047   4.596 121.100  0.00  0.00    +0.000 C 
ATOM     18  F   UNL     1      -5.708   5.314 120.153  0.00  0.00    +0.000 F 
ATOM     19  F   UNL     1      -4.225   5.468 121.740  0.00  0.00    +0.000 F 
ATOM     20  F   UNL     1      -4.234   3.740 120.421  0.00  0.00    +0.000 F 
ENDBRANCH   5  17
BRANCH   1  21
ATOM     21  C   UNL     1      -9.998   1.324 124.244  0.00  0.00    +0.000 C 
BRANCH  21  22
ATOM     22  O   UNL     1     -10.596   0.503 125.237  0.00  0.00    +0.000 OA
ATOM     23  H   UNL     1     -11.371   0.965 125.591  0.00  0.00    +0.000 HD
ENDBRANCH  21  22
BRANCH  21  24
ATOM     24  C   UNL     1      -9.869   0.653 122.880  0.00  0.00    +0.000 C 
BRANCH  24  25
ATOM     25  C   UNL     1      -9.760  -0.867 122.992  0.00  0.00    +0.000 C 
BRANCH  25  26
ATOM     26  N   UNL     1      -8.712  -1.309 123.945  0.00  0.00    +0.000 NA
BRANCH  26  27
ATOM     27  C   UNL     1      -9.146  -2.622 124.502  0.00  0.00    +0.000 C 
BRANCH  27  28
ATOM     28  C   UNL     1      -9.298  -2.645 126.016  0.00  0.00    +0.000 C 
BRANCH  28  30
ATOM     29  C   UNL     1      -8.491  -3.258 128.248  0.00  0.00    +0.000 C 
ATOM     30  C   UNL     1      -8.576  -3.723 126.789  0.00  0.00    +0.000 C 
ENDBRANCH  28  30
ENDBRANCH  27  28
ENDBRANCH  26  27
BRANCH  26  31
ATOM     31  C   UNL     1      -7.394  -1.335 123.255  0.00  0.00    +0.000 C 
BRANCH  31  32
ATOM     32  C   UNL     1      -6.225  -1.816 124.093  0.00  0.00    +0.000 C 
BRANCH  32  33
ATOM     33  C   UNL     1      -5.612  -0.813 125.039  0.00  0.00    +0.000 C 
ATOM     34  C   UNL     1      -5.686  -1.428 126.436  0.00  0.00    +0.000 C 
ENDBRANCH  32  33
ENDBRANCH  31  32
ENDBRANCH  26  31
ENDBRANCH  25  26
ENDBRANCH  24  25
ENDBRANCH  21  24
ENDBRANCH   1  21
TORSDOF 12
ENDMDL
MODEL 3
REMARK VINA RESULT:      -7.0      6.346      8.118
REMARK  Name = Halofantrine
REMARK  14 active torsions:
REMARK  status: ('A' for Active; 'I' for Inactive)
REMARK    1  A    between atoms: C_1  and  C_2
REMARK    2  A    between atoms: C_2  and  C_3
REMARK    3  A    between atoms: C_3  and  C_4
REMARK    4  A    between atoms: C_4  and  N_5
REMARK    5  A    between atoms: N_5  and  C_6
REMARK    6  A    between atoms: N_5  and  C_10
REMARK    7  A    between atoms: C_6  and  C_7
REMARK    8  A    between atoms: C_7  and  C_8
REMARK    9  A    between atoms: C_8  and  C_9
REMARK   10  A    between atoms: C_10  and  C_11
REMARK   11  A    between atoms: C_11  and  C_12
REMARK   12  A    between atoms: C_12  and  O_13
REMARK   13  A    between atoms: C_12  and  C_14
REMARK   14  A    between atoms: C_18  and  C_30
REMARK                            x       y       z     vdW  Elec       q    Type
REMARK                         _______ _______ _______ _____ _____    ______ ____
ROOT
ATOM      1  C   UNL     1      -7.425   1.872 126.008  0.00  0.00    +0.000 A 
ATOM      2  C   UNL     1      -6.902   2.523 124.862  0.00  0.00    +0.000 A 
ATOM      3  C   UNL     1      -7.316   2.183 123.554  0.00  0.00    +0.000 A 
ATOM      4  C   UNL     1      -6.749   2.734 122.416  0.00  0.00    +0.000 A 
ATOM      5  C   UNL     1      -5.794   3.718 122.545  0.00  0.00    +0.000 A 
ATOM      6  C   UNL     1      -5.414   4.130 123.833  0.00  0.00    +0.000 A 
ATOM      7  C   UNL     1      -5.948   3.551 125.022  0.00  0.00    +0.000 A 
ATOM      8  C   UNL     1      -5.557   3.982 126.341  0.00  0.00    +0.000 A 
ATOM      9  C   UNL     1      -4.624   5.015 126.571  0.00  0.00    +0.000 A 
ATOM     10  C   UNL     1      -4.262   5.428 127.850  0.00  0.00    +0.000 A 
ATOM     11 CL   UNL     1      -3.115   6.695 128.045  0.00  0.00    +0.000 Cl
ATOM     12  C   UNL     1      -4.821   4.825 128.962  0.00  0.00    +0.000 A 
ATOM     13  C   UNL     1      -5.748   3.805 128.783  0.00  0.00    +0.000 A 
ATOM     14 CL   UNL     1      -6.405   3.102 130.230  0.00  0.00    +0.000 Cl
ATOM     15  C   UNL     1      -6.130   3.361 127.487  0.00  0.00    +0.000 A 
ATOM     16  C   UNL     1      -7.049   2.325 127.285  0.00  0.00    +0.000 A 
ENDROOT
BRANCH   5  17
ATOM     17  C   UNL     1      -5.204   4.351 121.317  0.00  0.00    +0.000 C 
ATOM     18  F   UNL     1      -4.473   3.468 120.586  0.00  0.00    +0.000 F 
ATOM     19  F   UNL     1      -6.151   4.851 120.481  0.00  0.00    +0.000 F 
ATOM     20  F   UNL     1      -4.366   5.387 121.601  0.00  0.00    +0.000 F 
ENDBRANCH   5  17
BRANCH   1  21
ATOM     21  C   UNL     1      -8.449   0.748 125.964  0.00  0.00    +0.000 C 
BRANCH  21  22
ATOM     22  O   UNL     1      -9.755   1.181 126.318  0.00  0.00    +0.000 OA
ATOM     23  H   UNL     1     -10.360   0.429 126.231  0.00  0.00    +0.000 HD
ENDBRANCH  21  22
BRANCH  21  24
ATOM     24  C   UNL     1      -7.935  -0.419 126.801  0.00  0.00    +0.000 C 
BRANCH  24  25
ATOM     25  C   UNL     1      -8.572  -1.747 126.394  0.00  0.00    +0.000 C 
BRANCH  25  26
ATOM     26  N   UNL     1      -7.575  -2.787 126.039  0.00  0.00    +0.000 NA
BRANCH  26  27
ATOM     27  C   UNL     1      -8.263  -3.777 125.161  0.00  0.00    +0.000 C 
BRANCH  27  28
ATOM     28  C   UNL     1      -9.337  -3.182 124.262  0.00  0.00    +0.000 C 
BRANCH  28  30
ATOM     29  C   UNL     1      -9.036  -1.199 122.855  0.00  0.00    +0.000 C 
ATOM     30  C   UNL     1      -8.939  -2.728 122.878  0.00  0.00    +0.000 C 
ENDBRANCH  28  30
ENDBRANCH  27  28
ENDBRANCH  26  27
BRANCH  26  31
ATOM     31  C   UNL     1      -6.382  -2.142 125.428  0.00  0.00    +0.000 C 
BRANCH  31  32
ATOM     32  C   UNL     1      -5.246  -3.078 125.060  0.00  0.00    +0.000 C 
BRANCH  32  33
ATOM     33  C   UNL     1      -4.986  -3.279 123.588  0.00  0.00    +0.000 C 
ATOM     34  C   UNL     1      -4.265  -4.620 123.450  0.00  0.00    +0.000 C 
ENDBRANCH  32  33
ENDBRANCH  31  32
ENDBRANCH  26  31
ENDBRANCH  25  26
ENDBRANCH  24  25
ENDBRANCH  21  24
ENDBRANCH   1  21
TORSDOF 12
ENDMDL
MODEL 4
REMARK VINA RESULT:      -6.9      6.331      8.538
REMARK  Name = Halofantrine
REMARK  14 active torsions:
REMARK  status: ('A' for Active; 'I' for Inactive)
REMARK    1  A    between atoms: C_1  and  C_2
REMARK    2  A    between atoms: C_2  and  C_3
REMARK    3  A    between atoms: C_3  and  C_4
REMARK    4  A    between atoms: C_4  and  N_5
REMARK    5  A    between atoms: N_5  and  C_6
REMARK    6  A    between atoms: N_5  and  C_10
REMARK    7  A    between atoms: C_6  and  C_7
REMARK    8  A    between atoms: C_7  and  C_8
REMARK    9  A    between atoms: C_8  and  C_9
REMARK   10  A    between atoms: C_10  and  C_11
REMARK   11  A    between atoms: C_11  and  C_12
REMARK   12  A    between atoms: C_12  and  O_13
REMARK   13  A    between atoms: C_12  and  C_14
REMARK   14  A    between atoms: C_18  and  C_30
REMARK                            x       y       z     vdW  Elec       q    Type
REMARK                         _______ _______ _______ _____ _____    ______ ____
ROOT
ATOM      1  C   UNL     1      -8.135   1.690 126.732  0.00  0.00    +0.000 A 
ATOM      2  C   UNL     1      -8.356   0.584 125.871  0.00  0.00    +0.000 A 
ATOM      3  C   UNL     1      -9.064  -0.564 126.294  0.00  0.00    +0.000 A 
ATOM      4  C   UNL     1      -9.207  -1.695 125.507  0.00  0.00    +0.000 A 
ATOM      5  C   UNL     1      -8.713  -1.691 124.221  0.00  0.00    +0.000 A 
ATOM      6  C   UNL     1      -8.069  -0.537 123.746  0.00  0.00    +0.000 A 
ATOM      7  C   UNL     1      -7.868   0.626 124.547  0.00  0.00    +0.000 A 
ATOM      8  C   UNL     1      -7.209   1.809 124.052  0.00  0.00    +0.000 A 
ATOM      9  C   UNL     1      -6.715   1.924 122.735  0.00  0.00    +0.000 A 
ATOM     10  C   UNL     1      -6.089   3.075 122.266  0.00  0.00    +0.000 A 
ATOM     11 CL   UNL     1      -5.513   3.133 120.647  0.00  0.00    +0.000 Cl
ATOM     12  C   UNL     1      -5.930   4.169 123.096  0.00  0.00    +0.000 A 
ATOM     13  C   UNL     1      -6.405   4.103 124.401  0.00  0.00    +0.000 A 
ATOM     14 CL   UNL     1      -6.168   5.520 125.377  0.00  0.00    +0.000 Cl
ATOM     15  C   UNL     1      -7.043   2.936 124.905  0.00  0.00    +0.000 A 
ATOM     16  C   UNL     1      -7.512   2.842 126.220  0.00  0.00    +0.000 A 
ENDROOT
BRANCH   5  17
ATOM     17  C   UNL     1      -8.900  -2.897 123.346  0.00  0.00    +0.000 C 
ATOM     18  F   UNL     1      -8.411  -2.702 122.092  0.00  0.00    +0.000 F 
ATOM     19  F   UNL     1      -8.276  -4.000 123.835  0.00  0.00    +0.000 F 
ATOM     20  F   UNL     1     -10.208  -3.243 123.187  0.00  0.00    +0.000 F 
ENDBRANCH   5  17
BRANCH   1  21
ATOM     21  C   UNL     1      -8.604   1.759 128.177  0.00  0.00    +0.000 C 
BRANCH  21  22
ATOM     22  O   UNL     1      -8.826   3.090 128.619  0.00  0.00    +0.000 OA
ATOM     23  H   UNL     1      -8.509   3.697 127.933  0.00  0.00    +0.000 HD
ENDBRANCH  21  22
BRANCH  21  24
ATOM     24  C   UNL     1      -7.631   0.971 129.048  0.00  0.00    +0.000 C 
BRANCH  24  25
ATOM     25  C   UNL     1      -6.339   1.743 129.315  0.00  0.00    +0.000 C 
BRANCH  25  26
ATOM     26  N   UNL     1      -5.132   1.060 128.789  0.00  0.00    +0.000 NA
BRANCH  26  27
ATOM     27  C   UNL     1      -5.521  -0.344 128.473  0.00  0.00    +0.000 C 
BRANCH  27  28
ATOM     28  C   UNL     1      -5.311  -0.744 127.019  0.00  0.00    +0.000 C 
BRANCH  28  30
ATOM     29  C   UNL     1      -5.326  -2.296 125.123  0.00  0.00    +0.000 C 
ATOM     30  C   UNL     1      -5.725  -2.132 126.594  0.00  0.00    +0.000 C 
ENDBRANCH  28  30
ENDBRANCH  27  28
ENDBRANCH  26  27
BRANCH  26  31
ATOM     31  C   UNL     1      -4.592   1.827 127.635  0.00  0.00    +0.000 C 
BRANCH  31  32
ATOM     32  C   UNL     1      -3.553   2.879 127.975  0.00  0.00    +0.000 C 
BRANCH  32  33
ATOM     33  C   UNL     1      -2.969   3.651 126.818  0.00  0.00    +0.000 C 
ATOM     34  C   UNL     1      -1.631   2.994 126.483  0.00  0.00    +0.000 C 
ENDBRANCH  32  33
ENDBRANCH  31  32
ENDBRANCH  26  31
ENDBRANCH  25  26
ENDBRANCH  24  25
ENDBRANCH  21  24
ENDBRANCH   1  21
TORSDOF 12
ENDMDL
MODEL 5
REMARK VINA RESULT:      -6.9      6.373      8.027
REMARK  Name = Halofantrine
REMARK  14 active torsions:
REMARK  status: ('A' for Active; 'I' for Inactive)
REMARK    1  A    between atoms: C_1  and  C_2
REMARK    2  A    between atoms: C_2  and  C_3
REMARK    3  A    between atoms: C_3  and  C_4
REMARK    4  A    between atoms: C_4  and  N_5
REMARK    5  A    between atoms: N_5  and  C_6
REMARK    6  A    between atoms: N_5  and  C_10
REMARK    7  A    between atoms: C_6  and  C_7
REMARK    8  A    between atoms: C_7  and  C_8
REMARK    9  A    between atoms: C_8  and  C_9
REMARK   10  A    between atoms: C_10  and  C_11
REMARK   11  A    between atoms: C_11  and  C_12
REMARK   12  A    between atoms: C_12  and  O_13
REMARK   13  A    between atoms: C_12  and  C_14
REMARK   14  A    between atoms: C_18  and  C_30
REMARK                            x       y       z     vdW  Elec       q    Type
REMARK                         _______ _______ _______ _____ _____    ______ ____
ROOT
ATOM      1  C   UNL     1      -7.321   1.728 126.032  0.00  0.00    +0.000 A 
ATOM      2  C   UNL     1      -6.839   2.412 124.887  0.00  0.00    +0.000 A 
ATOM      3  C   UNL     1      -7.278   2.090 123.582  0.00  0.00    +0.000 A 
ATOM      4  C   UNL     1      -6.749   2.674 122.443  0.00  0.00    +0.000 A 
ATOM      5  C   UNL     1      -5.811   3.674 122.568  0.00  0.00    +0.000 A 
ATOM      6  C   UNL     1      -5.408   4.068 123.854  0.00  0.00    +0.000 A 
ATOM      7  C   UNL     1      -5.901   3.455 125.044  0.00  0.00    +0.000 A 
ATOM      8  C   UNL     1      -5.486   3.868 126.362  0.00  0.00    +0.000 A 
ATOM      9  C   UNL     1      -4.567   4.915 126.590  0.00  0.00    +0.000 A 
ATOM     10  C   UNL     1      -4.182   5.310 127.868  0.00  0.00    +0.000 A 
ATOM     11 CL   UNL     1      -3.055   6.594 128.060  0.00  0.00    +0.000 Cl
ATOM     12  C   UNL     1      -4.702   4.674 128.981  0.00  0.00    +0.000 A 
ATOM     13  C   UNL     1      -5.614   3.639 128.803  0.00  0.00    +0.000 A 
ATOM     14 CL   UNL     1      -6.221   2.895 130.252  0.00  0.00    +0.000 Cl
ATOM     15  C   UNL     1      -6.019   3.214 127.508  0.00  0.00    +0.000 A 
ATOM     16  C   UNL     1      -6.922   2.163 127.308  0.00  0.00    +0.000 A 
ENDROOT
BRANCH   5  17
ATOM     17  C   UNL     1      -5.264   4.342 121.339  0.00  0.00    +0.000 C 
ATOM     18  F   UNL     1      -6.250   4.783 120.513  0.00  0.00    +0.000 F 
ATOM     19  F   UNL     1      -4.495   5.424 121.631  0.00  0.00    +0.000 F 
ATOM     20  F   UNL     1      -4.484   3.518 120.585  0.00  0.00    +0.000 F 
ENDBRANCH   5  17
BRANCH   1  21
ATOM     21  C   UNL     1      -8.323   0.586 125.990  0.00  0.00    +0.000 C 
BRANCH  21  22
ATOM     22  O   UNL     1      -9.669   1.037 125.954  0.00  0.00    +0.000 OA
ATOM     23  H   UNL     1      -9.821   1.608 126.723  0.00  0.00    +0.000 HD
ENDBRANCH  21  22
BRANCH  21  24
ATOM     24  C   UNL     1      -8.023  -0.375 127.136  0.00  0.00    +0.000 C 
BRANCH  24  25
ATOM     25  C   UNL     1      -8.326  -1.827 126.768  0.00  0.00    +0.000 C 
BRANCH  25  26
ATOM     26  N   UNL     1      -7.741  -2.233 125.466  0.00  0.00    +0.000 NA
BRANCH  26  27
ATOM     27  C   UNL     1      -6.335  -2.655 125.726  0.00  0.00    +0.000 C 
BRANCH  27  28
ATOM     28  C   UNL     1      -5.410  -2.540 124.523  0.00  0.00    +0.000 C 
BRANCH  28  30
ATOM     29  C   UNL     1      -4.035  -4.371 123.650  0.00  0.00    +0.000 C 
ATOM     30  C   UNL     1      -5.394  -3.673 123.525  0.00  0.00    +0.000 C 
ENDBRANCH  28  30
ENDBRANCH  27  28
ENDBRANCH  26  27
BRANCH  26  31
ATOM     31  C   UNL     1      -8.596  -3.279 124.844  0.00  0.00    +0.000 C 
BRANCH  31  32
ATOM     32  C   UNL     1      -9.144  -2.947 123.469  0.00  0.00    +0.000 C 
BRANCH  32  33
ATOM     33  C   UNL     1      -8.531  -1.762 122.766  0.00  0.00    +0.000 C 
ATOM     34  C   UNL     1      -9.620  -0.693 122.679  0.00  0.00    +0.000 C 
ENDBRANCH  32  33
ENDBRANCH  31  32
ENDBRANCH  26  31
ENDBRANCH  25  26
ENDBRANCH  24  25
ENDBRANCH  21  24
ENDBRANCH   1  21
TORSDOF 12
ENDMDL
MODEL 6
REMARK VINA RESULT:      -6.9      6.486      8.670
REMARK  Name = Halofantrine
REMARK  14 active torsions:
REMARK  status: ('A' for Active; 'I' for Inactive)
REMARK    1  A    between atoms: C_1  and  C_2
REMARK    2  A    between atoms: C_2  and  C_3
REMARK    3  A    between atoms: C_3  and  C_4
REMARK    4  A    between atoms: C_4  and  N_5
REMARK    5  A    between atoms: N_5  and  C_6
REMARK    6  A    between atoms: N_5  and  C_10
REMARK    7  A    between atoms: C_6  and  C_7
REMARK    8  A    between atoms: C_7  and  C_8
REMARK    9  A    between atoms: C_8  and  C_9
REMARK   10  A    between atoms: C_10  and  C_11
REMARK   11  A    between atoms: C_11  and  C_12
REMARK   12  A    between atoms: C_12  and  O_13
REMARK   13  A    between atoms: C_12  and  C_14
REMARK   14  A    between atoms: C_18  and  C_30
REMARK                            x       y       z     vdW  Elec       q    Type
REMARK                         _______ _______ _______ _____ _____    ______ ____
ROOT
ATOM      1  C   UNL     1      -8.103   1.681 126.768  0.00  0.00    +0.000 A 
ATOM      2  C   UNL     1      -8.338   0.585 125.900  0.00  0.00    +0.000 A 
ATOM      3  C   UNL     1      -9.042  -0.566 126.321  0.00  0.00    +0.000 A 
ATOM      4  C   UNL     1      -9.198  -1.689 125.524  0.00  0.00    +0.000 A 
ATOM      5  C   UNL     1      -8.723  -1.672 124.232  0.00  0.00    +0.000 A 
ATOM      6  C   UNL     1      -8.083  -0.515 123.759  0.00  0.00    +0.000 A 
ATOM      7  C   UNL     1      -7.869   0.640 124.570  0.00  0.00    +0.000 A 
ATOM      8  C   UNL     1      -7.216   1.827 124.077  0.00  0.00    +0.000 A 
ATOM      9  C   UNL     1      -6.740   1.954 122.754  0.00  0.00    +0.000 A 
ATOM     10  C   UNL     1      -6.119   3.110 122.288  0.00  0.00    +0.000 A 
ATOM     11 CL   UNL     1      -5.567   3.184 120.661  0.00  0.00    +0.000 Cl
ATOM     12  C   UNL     1      -5.946   4.195 123.127  0.00  0.00    +0.000 A 
ATOM     13  C   UNL     1      -6.402   4.115 124.438  0.00  0.00    +0.000 A 
ATOM     14 CL   UNL     1      -6.149   5.523 125.426  0.00  0.00    +0.000 Cl
ATOM     15  C   UNL     1      -7.035   2.945 124.940  0.00  0.00    +0.000 A 
ATOM     16  C   UNL     1      -7.486   2.838 126.260  0.00  0.00    +0.000 A 
ENDROOT
BRANCH   5  17
ATOM     17  C   UNL     1      -8.925  -2.869 123.347  0.00  0.00    +0.000 C 
ATOM     18  F   UNL     1      -8.427  -2.672 122.097  0.00  0.00    +0.000 F 
ATOM     19  F   UNL     1      -8.320  -3.985 123.831  0.00  0.00    +0.000 F 
ATOM     20  F   UNL     1     -10.238  -3.194 123.180  0.00  0.00    +0.000 F 
ENDBRANCH   5  17
BRANCH   1  21
ATOM     21  C   UNL     1      -8.551   1.736 128.221  0.00  0.00    +0.000 C 
BRANCH  21  22
ATOM     22  O   UNL     1      -9.066   3.007 128.589  0.00  0.00    +0.000 OA
ATOM     23  H   UNL     1     -10.006   3.037 128.352  0.00  0.00    +0.000 HD
ENDBRANCH  21  22
BRANCH  21  24
ATOM     24  C   UNL     1      -7.407   1.252 129.107  0.00  0.00    +0.000 C 
BRANCH  24  25
ATOM     25  C   UNL     1      -7.559  -0.218 129.496  0.00  0.00    +0.000 C 
BRANCH  25  26
ATOM     26  N   UNL     1      -6.363  -1.034 129.174  0.00  0.00    +0.000 NA
BRANCH  26  27
ATOM     27  C   UNL     1      -5.509  -0.224 128.259  0.00  0.00    +0.000 C 
BRANCH  27  28
ATOM     28  C   UNL     1      -5.313  -0.832 126.877  0.00  0.00    +0.000 C 
BRANCH  28  30
ATOM     29  C   UNL     1      -5.431  -2.615 125.200  0.00  0.00    +0.000 C 
ATOM     30  C   UNL     1      -5.763  -2.255 126.653  0.00  0.00    +0.000 C 
ENDBRANCH  28  30
ENDBRANCH  27  28
ENDBRANCH  26  27
BRANCH  26  31
ATOM     31  C   UNL     1      -5.695  -1.452 130.436  0.00  0.00    +0.000 C 
BRANCH  31  32
ATOM     32  C   UNL     1      -4.321  -2.076 130.275  0.00  0.00    +0.000 C 
BRANCH  32  33
ATOM     33  C   UNL     1      -4.282  -3.550 129.956  0.00  0.00    +0.000 C 
ATOM     34  C   UNL     1      -3.097  -3.762 129.014  0.00  0.00    +0.000 C 
ENDBRANCH  32  33
ENDBRANCH  31  32
ENDBRANCH  26  31
ENDBRANCH  25  26
ENDBRANCH  24  25
ENDBRANCH  21  24
ENDBRANCH   1  21
TORSDOF 12
ENDMDL
MODEL 7
REMARK VINA RESULT:      -6.8      6.406      8.416
REMARK  Name = Halofantrine
REMARK  14 active torsions:
REMARK  status: ('A' for Active; 'I' for Inactive)
REMARK    1  A    between atoms: C_1  and  C_2
REMARK    2  A    between atoms: C_2  and  C_3
REMARK    3  A    between atoms: C_3  and  C_4
REMARK    4  A    between atoms: C_4  and  N_5
REMARK    5  A    between atoms: N_5  and  C_6
REMARK    6  A    between atoms: N_5  and  C_10
REMARK    7  A    between atoms: C_6  and  C_7
REMARK    8  A    between atoms: C_7  and  C_8
REMARK    9  A    between atoms: C_8  and  C_9
REMARK   10  A    between atoms: C_10  and  C_11
REMARK   11  A    between atoms: C_11  and  C_12
REMARK   12  A    between atoms: C_12  and  O_13
REMARK   13  A    between atoms: C_12  and  C_14
REMARK   14  A    between atoms: C_18  and  C_30
REMARK                            x       y       z     vdW  Elec       q    Type
REMARK                         _______ _______ _______ _____ _____    ______ ____
ROOT
ATOM      1  C   UNL     1      -8.084   1.766 126.768  0.00  0.00    +0.000 A 
ATOM      2  C   UNL     1      -8.315   0.666 125.903  0.00  0.00    +0.000 A 
ATOM      3  C   UNL     1      -9.020  -0.484 126.325  0.00  0.00    +0.000 A 
ATOM      4  C   UNL     1      -9.172  -1.610 125.532  0.00  0.00    +0.000 A 
ATOM      5  C   UNL     1      -8.692  -1.598 124.242  0.00  0.00    +0.000 A 
ATOM      6  C   UNL     1      -8.051  -0.442 123.767  0.00  0.00    +0.000 A 
ATOM      7  C   UNL     1      -7.841   0.716 124.574  0.00  0.00    +0.000 A 
ATOM      8  C   UNL     1      -7.186   1.901 124.079  0.00  0.00    +0.000 A 
ATOM      9  C   UNL     1      -6.705   2.024 122.758  0.00  0.00    +0.000 A 
ATOM     10  C   UNL     1      -6.083   3.178 122.290  0.00  0.00    +0.000 A 
ATOM     11 CL   UNL     1      -5.524   3.246 120.665  0.00  0.00    +0.000 Cl
ATOM     12  C   UNL     1      -5.914   4.266 123.125  0.00  0.00    +0.000 A 
ATOM     13  C   UNL     1      -6.375   4.192 124.435  0.00  0.00    +0.000 A 
ATOM     14 CL   UNL     1      -6.127   5.603 125.418  0.00  0.00    +0.000 Cl
ATOM     15  C   UNL     1      -7.009   3.023 124.938  0.00  0.00    +0.000 A 
ATOM     16  C   UNL     1      -7.465   2.921 126.257  0.00  0.00    +0.000 A 
ENDROOT
BRANCH   5  17
ATOM     17  C   UNL     1      -8.889  -2.798 123.361  0.00  0.00    +0.000 C 
ATOM     18  F   UNL     1     -10.204  -3.105 123.199  0.00  0.00    +0.000 F 
ATOM     19  F   UNL     1      -8.380  -2.620 122.114  0.00  0.00    +0.000 F 
ATOM     20  F   UNL     1      -8.300  -3.924 123.852  0.00  0.00    +0.000 F 
ENDBRANCH   5  17
BRANCH   1  21
ATOM     21  C   UNL     1      -8.538   1.826 128.218  0.00  0.00    +0.000 C 
BRANCH  21  22
ATOM     22  O   UNL     1      -9.109   3.080 128.563  0.00  0.00    +0.000 OA
ATOM     23  H   UNL     1      -8.394   3.683 128.815  0.00  0.00    +0.000 HD
ENDBRANCH  21  22
BRANCH  21  24
ATOM     24  C   UNL     1      -7.377   1.407 129.115  0.00  0.00    +0.000 C 
BRANCH  24  25
ATOM     25  C   UNL     1      -7.340  -0.103 129.346  0.00  0.00    +0.000 C 
BRANCH  25  26
ATOM     26  N   UNL     1      -6.086  -0.565 129.987  0.00  0.00    +0.000 NA
BRANCH  26  27
ATOM     27  C   UNL     1      -6.437  -1.714 130.870  0.00  0.00    +0.000 C 
BRANCH  27  28
ATOM     28  C   UNL     1      -7.676  -2.485 130.437  0.00  0.00    +0.000 C 
BRANCH  28  30
ATOM     29  C   UNL     1      -8.614  -3.610 128.472  0.00  0.00    +0.000 C 
ATOM     30  C   UNL     1      -7.494  -3.669 129.517  0.00  0.00    +0.000 C 
ENDBRANCH  28  30
ENDBRANCH  27  28
ENDBRANCH  26  27
BRANCH  26  31
ATOM     31  C   UNL     1      -5.078  -0.876 128.938  0.00  0.00    +0.000 C 
BRANCH  31  32
ATOM     32  C   UNL     1      -5.593  -0.871 127.511  0.00  0.00    +0.000 C 
BRANCH  32  33
ATOM     33  C   UNL     1      -5.612  -2.198 126.794  0.00  0.00    +0.000 C 
ATOM     34  C   UNL     1      -5.274  -1.910 125.331  0.00  0.00    +0.000 C 
ENDBRANCH  32  33
ENDBRANCH  31  32
ENDBRANCH  26  31
ENDBRANCH  25  26
ENDBRANCH  24  25
ENDBRANCH  21  24
ENDBRANCH   1  21
TORSDOF 12
ENDMDL
MODEL 8
REMARK VINA RESULT:      -6.7      6.435      8.545
REMARK  Name = Halofantrine
REMARK  14 active torsions:
REMARK  status: ('A' for Active; 'I' for Inactive)
REMARK    1  A    between atoms: C_1  and  C_2
REMARK    2  A    between atoms: C_2  and  C_3
REMARK    3  A    between atoms: C_3  and  C_4
REMARK    4  A    between atoms: C_4  and  N_5
REMARK    5  A    between atoms: N_5  and  C_6
REMARK    6  A    between atoms: N_5  and  C_10
REMARK    7  A    between atoms: C_6  and  C_7
REMARK    8  A    between atoms: C_7  and  C_8
REMARK    9  A    between atoms: C_8  and  C_9
REMARK   10  A    between atoms: C_10  and  C_11
REMARK   11  A    between atoms: C_11  and  C_12
REMARK   12  A    between atoms: C_12  and  O_13
REMARK   13  A    between atoms: C_12  and  C_14
REMARK   14  A    between atoms: C_18  and  C_30
REMARK                            x       y       z     vdW  Elec       q    Type
REMARK                         _______ _______ _______ _____ _____    ______ ____
ROOT
ATOM      1  C   UNL     1      -7.765   2.139 126.197  0.00  0.00    +0.000 A 
ATOM      2  C   UNL     1      -6.493   2.650 126.560  0.00  0.00    +0.000 A 
ATOM      3  C   UNL     1      -5.974   2.507 127.868  0.00  0.00    +0.000 A 
ATOM      4  C   UNL     1      -4.781   3.082 128.273  0.00  0.00    +0.000 A 
ATOM      5  C   UNL     1      -4.010   3.760 127.355  0.00  0.00    +0.000 A 
ATOM      6  C   UNL     1      -4.463   3.856 126.029  0.00  0.00    +0.000 A 
ATOM      7  C   UNL     1      -5.708   3.313 125.592  0.00  0.00    +0.000 A 
ATOM      8  C   UNL     1      -6.165   3.411 124.228  0.00  0.00    +0.000 A 
ATOM      9  C   UNL     1      -5.423   4.043 123.208  0.00  0.00    +0.000 A 
ATOM     10  C   UNL     1      -5.872   4.124 121.893  0.00  0.00    +0.000 A 
ATOM     11 CL   UNL     1      -4.906   4.913 120.710  0.00  0.00    +0.000 Cl
ATOM     12  C   UNL     1      -7.088   3.572 121.537  0.00  0.00    +0.000 A 
ATOM     13  C   UNL     1      -7.853   2.935 122.509  0.00  0.00    +0.000 A 
ATOM     14 CL   UNL     1      -9.366   2.266 121.979  0.00  0.00    +0.000 Cl
ATOM     15  C   UNL     1      -7.419   2.845 123.860  0.00  0.00    +0.000 A 
ATOM     16  C   UNL     1      -8.180   2.224 124.856  0.00  0.00    +0.000 A 
ENDROOT
BRANCH   5  17
ATOM     17  C   UNL     1      -2.695   4.350 127.774  0.00  0.00    +0.000 C 
ATOM     18  F   UNL     1      -2.489   4.244 129.115  0.00  0.00    +0.000 F 
ATOM     19  F   UNL     1      -1.636   3.747 127.174  0.00  0.00    +0.000 F 
ATOM     20  F   UNL     1      -2.588   5.677 127.484  0.00  0.00    +0.000 F 
ENDBRANCH   5  17
BRANCH   1  21
ATOM     21  C   UNL     1      -8.703   1.415 127.151  0.00  0.00    +0.000 C 
BRANCH  21  22
ATOM     22  O   UNL     1      -9.116   2.230 128.238  0.00  0.00    +0.000 OA
ATOM     23  H   UNL     1     -10.064   2.410 128.143  0.00  0.00    +0.000 HD
ENDBRANCH  21  22
BRANCH  21  24
ATOM     24  C   UNL     1      -8.056   0.099 127.574  0.00  0.00    +0.000 C 
BRANCH  24  25
ATOM     25  C   UNL     1      -8.196  -0.983 126.505  0.00  0.00    +0.000 C 
BRANCH  25  26
ATOM     26  N   UNL     1      -7.490  -2.241 126.852  0.00  0.00    +0.000 NA
BRANCH  26  27
ATOM     27  C   UNL     1      -8.308  -3.368 126.319  0.00  0.00    +0.000 C 
BRANCH  27  28
ATOM     28  C   UNL     1      -9.410  -2.948 125.359  0.00  0.00    +0.000 C 
BRANCH  28  30
ATOM     29  C   UNL     1      -9.068  -2.188 123.054  0.00  0.00    +0.000 C 
ATOM     30  C   UNL     1      -9.329  -3.421 123.927  0.00  0.00    +0.000 C 
ENDBRANCH  28  30
ENDBRANCH  27  28
ENDBRANCH  26  27
BRANCH  26  31
ATOM     31  C   UNL     1      -6.097  -2.187 126.332  0.00  0.00    +0.000 C 
BRANCH  31  32
ATOM     32  C   UNL     1      -5.949  -1.699 124.903  0.00  0.00    +0.000 C 
BRANCH  32  33
ATOM     33  C   UNL     1      -4.992  -2.465 124.023  0.00  0.00    +0.000 C 
ATOM     34  C   UNL     1      -5.539  -3.888 123.917  0.00  0.00    +0.000 C 
ENDBRANCH  32  33
ENDBRANCH  31  32
ENDBRANCH  26  31
ENDBRANCH  25  26
ENDBRANCH  24  25
ENDBRANCH  21  24
ENDBRANCH   1  21
TORSDOF 12
ENDMDL
MODEL 9
REMARK VINA RESULT:      -6.7      6.180      9.105
REMARK  Name = Halofantrine
REMARK  14 active torsions:
REMARK  status: ('A' for Active; 'I' for Inactive)
REMARK    1  A    between atoms: C_1  and  C_2
REMARK    2  A    between atoms: C_2  and  C_3
REMARK    3  A    between atoms: C_3  and  C_4
REMARK    4  A    between atoms: C_4  and  N_5
REMARK    5  A    between atoms: N_5  and  C_6
REMARK    6  A    between atoms: N_5  and  C_10
REMARK    7  A    between atoms: C_6  and  C_7
REMARK    8  A    between atoms: C_7  and  C_8
REMARK    9  A    between atoms: C_8  and  C_9
REMARK   10  A    between atoms: C_10  and  C_11
REMARK   11  A    between atoms: C_11  and  C_12
REMARK   12  A    between atoms: C_12  and  O_13
REMARK   13  A    between atoms: C_12  and  C_14
REMARK   14  A    between atoms: C_18  and  C_30
REMARK                            x       y       z     vdW  Elec       q    Type
REMARK                         _______ _______ _______ _____ _____    ______ ____
ROOT
ATOM      1  C   UNL     1      -8.277   1.496 128.232  0.00  0.00    +0.000 A 
ATOM      2  C   UNL     1      -7.883   0.274 128.833  0.00  0.00    +0.000 A 
ATOM      3  C   UNL     1      -7.504   0.195 130.193  0.00  0.00    +0.000 A 
ATOM      4  C   UNL     1      -7.021  -0.965 130.775  0.00  0.00    +0.000 A 
ATOM      5  C   UNL     1      -6.976  -2.126 130.036  0.00  0.00    +0.000 A 
ATOM      6  C   UNL     1      -7.416  -2.098 128.702  0.00  0.00    +0.000 A 
ATOM      7  C   UNL     1      -7.876  -0.909 128.062  0.00  0.00    +0.000 A 
ATOM      8  C   UNL     1      -8.330  -0.888 126.694  0.00  0.00    +0.000 A 
ATOM      9  C   UNL     1      -8.367  -2.036 125.874  0.00  0.00    +0.000 A 
ATOM     10  C   UNL     1      -8.816  -2.004 124.557  0.00  0.00    +0.000 A 
ATOM     11 CL   UNL     1      -8.827  -3.448 123.624  0.00  0.00    +0.000 Cl
ATOM     12  C   UNL     1      -9.252  -0.817 123.998  0.00  0.00    +0.000 A 
ATOM     13  C   UNL     1      -9.237   0.340 124.770  0.00  0.00    +0.000 A 
ATOM     14 CL   UNL     1      -9.804   1.788 123.994  0.00  0.00    +0.000 Cl
ATOM     15  C   UNL     1      -8.778   0.334 126.116  0.00  0.00    +0.000 A 
ATOM     16  C   UNL     1      -8.739   1.490 126.904  0.00  0.00    +0.000 A 
ENDROOT
BRANCH   5  17
ATOM     17  C   UNL     1      -6.494  -3.398 130.672  0.00  0.00    +0.000 C 
ATOM     18  F   UNL     1      -6.718  -4.483 129.883  0.00  0.00    +0.000 F 
ATOM     19  F   UNL     1      -5.161  -3.380 130.932  0.00  0.00    +0.000 F 
ATOM     20  F   UNL     1      -7.106  -3.666 131.860  0.00  0.00    +0.000 F 
ENDBRANCH   5  17
BRANCH   1  21
ATOM     21  C   UNL     1      -8.317   2.834 128.955  0.00  0.00    +0.000 C 
BRANCH  21  22
ATOM     22  O   UNL     1      -9.617   3.169 129.417  0.00  0.00    +0.000 OA
ATOM     23  H   UNL     1     -10.073   3.663 128.718  0.00  0.00    +0.000 HD
ENDBRANCH  21  22
BRANCH  21  24
ATOM     24  C   UNL     1      -7.684   3.896 128.062  0.00  0.00    +0.000 C 
BRANCH  24  25
ATOM     25  C   UNL     1      -6.272   4.265 128.513  0.00  0.00    +0.000 C 
BRANCH  25  26
ATOM     26  N   UNL     1      -5.232   3.930 127.510  0.00  0.00    +0.000 NA
BRANCH  26  27
ATOM     27  C   UNL     1      -5.934   3.615 126.233  0.00  0.00    +0.000 C 
BRANCH  27  28
ATOM     28  C   UNL     1      -5.524   2.295 125.597  0.00  0.00    +0.000 C 
BRANCH  28  30
ATOM     29  C   UNL     1      -5.121  -0.120 125.701  0.00  0.00    +0.000 C 
ATOM     30  C   UNL     1      -5.043   1.185 126.501  0.00  0.00    +0.000 C 
ENDBRANCH  28  30
ENDBRANCH  27  28
ENDBRANCH  26  27
BRANCH  26  31
ATOM     31  C   UNL     1      -4.253   5.046 127.419  0.00  0.00    +0.000 C 
BRANCH  31  32
ATOM     32  C   UNL     1      -2.846   4.726 127.886  0.00  0.00    +0.000 C 
BRANCH  32  33
ATOM     33  C   UNL     1      -2.370   3.310 127.674  0.00  0.00    +0.000 C 
ATOM     34  C   UNL     1      -1.800   3.247 126.257  0.00  0.00    +0.000 C 
ENDBRANCH  32  33
ENDBRANCH  31  32
ENDBRANCH  26  31
ENDBRANCH  25  26
ENDBRANCH  24  25
ENDBRANCH  21  24
ENDBRANCH   1  21
TORSDOF 12
ENDMDL
