MODEL 1
REMARK VINA RESULT:      -9.1      0.000      0.000
REMARK  Name = Haloperidol
REMARK  7 active torsions:
REMARK  status: ('A' for Active; 'I' for Inactive)
REMARK    1  A    between atoms: O_1  and  C_2
REMARK    2  A    between atoms: C_2  and  C_20
REMARK    3  A    between atoms: N_5  and  C_6
REMARK    4  A    between atoms: C_6  and  C_7
REMARK    5  A    between atoms: C_7  and  C_8
REMARK    6  A    between atoms: C_8  and  C_9
REMARK    7  A    between atoms: C_9  and  C_11
REMARK                            x       y       z     vdW  Elec       q    Type
REMARK                         _______ _______ _______ _____ _____    ______ ____
ROOT
ATOM      1  C   UNL     1      -8.181   2.786 123.599  0.00  0.00    +0.000 C 
ATOM      2  C   UNL     1      -9.457   1.928 123.538  0.00  0.00    +0.000 C 
ATOM      3  C   UNL     1      -9.779   1.227 124.839  0.00  0.00    +0.000 C 
ATOM      4  N   UNL     1      -8.621   0.437 125.263  0.00  0.00    +0.000 NA
ATOM      5  C   UNL     1      -7.445   1.288 125.482  0.00  0.00    +0.000 C 
ATOM      6  C   UNL     1      -7.027   1.984 124.202  0.00  0.00    +0.000 C 
ENDROOT
BRANCH   1   7
ATOM      7  C   UNL     1      -7.772   3.298 122.222  0.00  0.00    +0.000 A 
ATOM      8  C   UNL     1      -8.746   3.542 121.238  0.00  0.00    +0.000 A 
ATOM      9  C   UNL     1      -8.382   4.044 119.988  0.00  0.00    +0.000 A 
ATOM     10  C   UNL     1      -7.043   4.304 119.707  0.00  0.00    +0.000 A 
ATOM     11 CL   UNL     1      -6.581   4.888 118.159  0.00  0.00    +0.000 Cl
ATOM     12  C   UNL     1      -6.066   4.084 120.666  0.00  0.00    +0.000 A 
ATOM     13  C   UNL     1      -6.431   3.581 121.909  0.00  0.00    +0.000 A 
ENDBRANCH   1   7
BRANCH   1  14
ATOM     14  O   UNL     1      -8.431   3.937 124.418  0.00  0.00    +0.000 OA
ATOM     15  H   UNL     1      -7.801   3.930 125.156  0.00  0.00    +0.000 HD
ENDBRANCH   1  14
BRANCH   4  16
ATOM     16  C   UNL     1      -8.967  -0.338 126.455  0.00  0.00    +0.000 C 
BRANCH  16  17
ATOM     17  C   UNL     1      -8.463  -1.770 126.344  0.00  0.00    +0.000 C 
BRANCH  17  18
ATOM     18  C   UNL     1      -9.480  -2.666 125.669  0.00  0.00    +0.000 C 
BRANCH  18  19
ATOM     19  C   UNL     1      -9.121  -2.826 124.208  0.00  0.00    +0.000 C 
ATOM     20  O   UNL     1      -9.948  -2.828 123.295  0.00  0.00    +0.000 OA
BRANCH  19  21
ATOM     21  C   UNL     1      -7.691  -2.918 123.863  0.00  0.00    +0.000 A 
ATOM     22  C   UNL     1      -7.106  -2.004 122.982  0.00  0.00    +0.000 A 
ATOM     23  C   UNL     1      -5.744  -2.100 122.699  0.00  0.00    +0.000 A 
ATOM     24  C   UNL     1      -4.987  -3.105 123.294  0.00  0.00    +0.000 A 
ATOM     25  F   UNL     1      -3.678  -3.186 123.023  0.00  0.00    +0.000 F 
ATOM     26  C   UNL     1      -5.563  -4.020 124.169  0.00  0.00    +0.000 A 
ATOM     27  C   UNL     1      -6.923  -3.927 124.460  0.00  0.00    +0.000 A 
ENDBRANCH  19  21
ENDBRANCH  18  19
ENDBRANCH  17  18
ENDBRANCH  16  17
ENDBRANCH   4  16
TORSDOF 7
ENDMDL
MODEL 2
REMARK VINA RESULT:      -8.4      1.737      2.462
REMARK  Name = Haloperidol
REMARK  7 active torsions:
REMARK  status: ('A' for Active; 'I' for Inactive)
REMARK    1  A    between atoms: O_1  and  C_2
REMARK    2  A    between atoms: C_2  and  C_20
REMARK    3  A    between atoms: N_5  and  C_6
REMARK    4  A    between atoms: C_6  and  C_7
REMARK    5  A    between atoms: C_7  and  C_8
REMARK    6  A    between atoms: C_8  and  C_9
REMARK    7  A    between atoms: C_9  and  C_11
REMARK                            x       y       z     vdW  Elec       q    Type
REMARK                         _______ _______ _______ _____ _____    ______ ____
ROOT
ATOM      1  C   UNL     1      -7.838   2.711 124.126  0.00  0.00    +0.000 C 
ATOM      2  C   UNL     1      -8.151   1.206 124.172  0.00  0.00    +0.000 C 
ATOM      3  C   UNL     1      -8.124   0.623 125.568  0.00  0.00    +0.000 C 
ATOM      4  N   UNL     1      -6.834   0.922 126.194  0.00  0.00    +0.000 NA
ATOM      5  C   UNL     1      -6.615   2.369 126.299  0.00  0.00    +0.000 C 
ATOM      6  C   UNL     1      -6.572   3.018 124.930  0.00  0.00    +0.000 C 
ENDROOT
BRANCH   1   7
ATOM      7  C   UNL     1      -7.660   3.214 122.698  0.00  0.00    +0.000 A 
ATOM      8  C   UNL     1      -6.381   3.546 122.217  0.00  0.00    +0.000 A 
ATOM      9  C   UNL     1      -6.207   3.974 120.900  0.00  0.00    +0.000 A 
ATOM     10  C   UNL     1      -7.307   4.077 120.052  0.00  0.00    +0.000 A 
ATOM     11 CL   UNL     1      -7.107   4.635 118.440  0.00  0.00    +0.000 Cl
ATOM     12  C   UNL     1      -8.576   3.741 120.500  0.00  0.00    +0.000 A 
ATOM     13  C   UNL     1      -8.747   3.319 121.812  0.00  0.00    +0.000 A 
ENDBRANCH   1   7
BRANCH   1  14
ATOM     14  O   UNL     1      -8.940   3.434 124.693  0.00  0.00    +0.000 OA
ATOM     15  H   UNL     1      -9.162   3.034 125.548  0.00  0.00    +0.000 HD
ENDBRANCH   1  14
BRANCH   4  16
ATOM     16  C   UNL     1      -6.757   0.259 127.496  0.00  0.00    +0.000 C 
BRANCH  16  17
ATOM     17  C   UNL     1      -7.946  -0.666 127.711  0.00  0.00    +0.000 C 
BRANCH  17  18
ATOM     18  C   UNL     1      -7.504  -2.054 128.124  0.00  0.00    +0.000 C 
BRANCH  18  19
ATOM     19  C   UNL     1      -8.224  -3.085 127.282  0.00  0.00    +0.000 C 
ATOM     20  O   UNL     1      -8.886  -4.012 127.751  0.00  0.00    +0.000 OA
BRANCH  19  21
ATOM     21  C   UNL     1      -8.177  -2.924 125.818  0.00  0.00    +0.000 A 
ATOM     22  C   UNL     1      -9.353  -2.901 125.061  0.00  0.00    +0.000 A 
ATOM     23  C   UNL     1      -9.277  -2.717 123.682  0.00  0.00    +0.000 A 
ATOM     24  C   UNL     1      -8.033  -2.560 123.076  0.00  0.00    +0.000 A 
ATOM     25  F   UNL     1      -7.969  -2.377 121.751  0.00  0.00    +0.000 F 
ATOM     26  C   UNL     1      -6.860  -2.584 123.822  0.00  0.00    +0.000 A 
ATOM     27  C   UNL     1      -6.929  -2.764 125.202  0.00  0.00    +0.000 A 
ENDBRANCH  19  21
ENDBRANCH  18  19
ENDBRANCH  17  18
ENDBRANCH  16  17
ENDBRANCH   4  16
TORSDOF 7
ENDMDL
MODEL 3
REMARK VINA RESULT:      -8.0      2.218      3.064
REMARK  Name = Haloperidol
REMARK  7 active torsions:
REMARK  status: ('A' for Active; 'I' for Inactive)
REMARK    1  A    between atoms: O_1  and  C_2
REMARK    2  A    between atoms: C_2  and  C_20
REMARK    3  A    between atoms: N_5  and  C_6
REMARK    4  A    between atoms: C_6  and  C_7
REMARK    5  A    between atoms: C_7  and  C_8
REMARK    6  A    between atoms: C_8  and  C_9
REMARK    7  A    between atoms: C_9  and  C_11
REMARK                            x       y       z     vdW  Elec       q    Type
REMARK                         _______ _______ _______ _____ _____    ______ ____
ROOT
ATOM      1  C   UNL     1      -7.152   3.056 123.438  0.00  0.00    +0.000 C 
ATOM      2  C   UNL     1      -7.472   1.553 123.365  0.00  0.00    +0.000 C 
ATOM      3  C   UNL     1      -7.521   0.877 124.718  0.00  0.00    +0.000 C 
ATOM      4  N   UNL     1      -6.264   1.124 125.429  0.00  0.00    +0.000 NA
ATOM      5  C   UNL     1      -6.046   2.560 125.643  0.00  0.00    +0.000 C 
ATOM      6  C   UNL     1      -5.929   3.299 124.325  0.00  0.00    +0.000 C 
ENDROOT
BRANCH   1   7
ATOM      7  C   UNL     1      -6.899   3.653 122.058  0.00  0.00    +0.000 A 
ATOM      8  C   UNL     1      -5.628   4.154 121.725  0.00  0.00    +0.000 A 
ATOM      9  C   UNL     1      -5.380   4.670 120.452  0.00  0.00    +0.000 A 
ATOM     10  C   UNL     1      -6.398   4.693 119.501  0.00  0.00    +0.000 A 
ATOM     11 CL   UNL     1      -6.111   5.358 117.943  0.00  0.00    +0.000 Cl
ATOM     12  C   UNL     1      -7.654   4.191 119.802  0.00  0.00    +0.000 A 
ATOM     13  C   UNL     1      -7.900   3.681 121.071  0.00  0.00    +0.000 A 
ENDBRANCH   1   7
BRANCH   1  14
ATOM     14  O   UNL     1      -8.280   3.747 123.994  0.00  0.00    +0.000 OA
ATOM     15  H   UNL     1      -8.003   4.165 124.825  0.00  0.00    +0.000 HD
ENDBRANCH   1  14
BRANCH   4  16
ATOM     16  C   UNL     1      -6.257   0.374 126.685  0.00  0.00    +0.000 C 
BRANCH  16  17
ATOM     17  C   UNL     1      -5.896  -1.085 126.450  0.00  0.00    +0.000 C 
BRANCH  17  18
ATOM     18  C   UNL     1      -5.005  -1.250 125.237  0.00  0.00    +0.000 C 
BRANCH  18  19
ATOM     19  C   UNL     1      -5.316  -2.565 124.556  0.00  0.00    +0.000 C 
ATOM     20  O   UNL     1      -4.490  -3.465 124.394  0.00  0.00    +0.000 OA
BRANCH  19  21
ATOM     21  C   UNL     1      -6.705  -2.798 124.124  0.00  0.00    +0.000 A 
ATOM     22  C   UNL     1      -7.542  -3.662 124.837  0.00  0.00    +0.000 A 
ATOM     23  C   UNL     1      -8.860  -3.838 124.421  0.00  0.00    +0.000 A 
ATOM     24  C   UNL     1      -9.325  -3.154 123.300  0.00  0.00    +0.000 A 
ATOM     25  F   UNL     1     -10.595  -3.324 122.910  0.00  0.00    +0.000 F 
ATOM     26  C   UNL     1      -8.497  -2.296 122.584  0.00  0.00    +0.000 A 
ATOM     27  C   UNL     1      -7.179  -2.112 122.998  0.00  0.00    +0.000 A 
ENDBRANCH  19  21
ENDBRANCH  18  19
ENDBRANCH  17  18
ENDBRANCH  16  17
ENDBRANCH   4  16
TORSDOF 7
ENDMDL
MODEL 4
REMARK VINA RESULT:      -8.0      3.268      3.992
REMARK  Name = Haloperidol
REMARK  7 active torsions:
REMARK  status: ('A' for Active; 'I' for Inactive)
REMARK    1  A    between atoms: O_1  and  C_2
REMARK    2  A    between atoms: C_2  and  C_20
REMARK    3  A    between atoms: N_5  and  C_6
REMARK    4  A    between atoms: C_6  and  C_7
REMARK    5  A    between atoms: C_7  and  C_8
REMARK    6  A    between atoms: C_8  and  C_9
REMARK    7  A    between atoms: C_9  and  C_11
REMARK                            x       y       z     vdW  Elec       q    Type
REMARK                         _______ _______ _______ _____ _____    ______ ____
ROOT
ATOM      1  C   UNL     1      -8.080   2.785 123.166  0.00  0.00    +0.000 C 
ATOM      2  C   UNL     1      -9.384   1.993 122.968  0.00  0.00    +0.000 C 
ATOM      3  C   UNL     1      -9.776   1.159 124.167  0.00  0.00    +0.000 C 
ATOM      4  N   UNL     1      -8.664   0.278 124.530  0.00  0.00    +0.000 NA
ATOM      5  C   UNL     1      -7.465   1.049 124.881  0.00  0.00    +0.000 C 
ATOM      6  C   UNL     1      -6.977   1.871 123.705  0.00  0.00    +0.000 C 
ENDROOT
BRANCH   1   7
ATOM      7  C   UNL     1      -7.606   3.436 121.872  0.00  0.00    +0.000 A 
ATOM      8  C   UNL     1      -6.246   3.743 121.690  0.00  0.00    +0.000 A 
ATOM      9  C   UNL     1      -5.800   4.307 120.494  0.00  0.00    +0.000 A 
ATOM     10  C   UNL     1      -6.706   4.573 119.471  0.00  0.00    +0.000 A 
ATOM     11 CL   UNL     1      -6.171   5.300 118.008  0.00  0.00    +0.000 Cl
ATOM     12  C   UNL     1      -8.049   4.266 119.622  0.00  0.00    +0.000 A 
ATOM     13  C   UNL     1      -8.492   3.707 120.815  0.00  0.00    +0.000 A 
ENDBRANCH   1   7
BRANCH   1  14
ATOM     14  O   UNL     1      -8.315   3.841 124.108  0.00  0.00    +0.000 OA
ATOM     15  H   UNL     1      -8.405   3.451 124.991  0.00  0.00    +0.000 HD
ENDBRANCH   1  14
BRANCH   4  16
ATOM     16  C   UNL     1      -9.079  -0.615 125.612  0.00  0.00    +0.000 C 
BRANCH  16  17
ATOM     17  C   UNL     1      -8.182  -1.842 125.685  0.00  0.00    +0.000 C 
BRANCH  17  18
ATOM     18  C   UNL     1      -7.923  -2.258 127.118  0.00  0.00    +0.000 C 
BRANCH  18  19
ATOM     19  C   UNL     1      -6.462  -2.045 127.449  0.00  0.00    +0.000 C 
ATOM     20  O   UNL     1      -5.733  -1.251 126.853  0.00  0.00    +0.000 OA
BRANCH  19  21
ATOM     21  C   UNL     1      -5.906  -2.788 128.594  0.00  0.00    +0.000 A 
ATOM     22  C   UNL     1      -4.524  -2.942 128.745  0.00  0.00    +0.000 A 
ATOM     23  C   UNL     1      -4.028  -3.624 129.854  0.00  0.00    +0.000 A 
ATOM     24  C   UNL     1      -4.913  -4.146 130.794  0.00  0.00    +0.000 A 
ATOM     25  F   UNL     1      -4.428  -4.795 131.860  0.00  0.00    +0.000 F 
ATOM     26  C   UNL     1      -6.289  -3.999 130.648  0.00  0.00    +0.000 A 
ATOM     27  C   UNL     1      -6.791  -3.315 129.544  0.00  0.00    +0.000 A 
ENDBRANCH  19  21
ENDBRANCH  18  19
ENDBRANCH  17  18
ENDBRANCH  16  17
ENDBRANCH   4  16
TORSDOF 7
ENDMDL
MODEL 5
REMARK VINA RESULT:      -7.8      8.375      9.797
REMARK  Name = Haloperidol
REMARK  7 active torsions:
REMARK  status: ('A' for Active; 'I' for Inactive)
REMARK    1  A    between atoms: O_1  and  C_2
REMARK    2  A    between atoms: C_2  and  C_20
REMARK    3  A    between atoms: N_5  and  C_6
REMARK    4  A    between atoms: C_6  and  C_7
REMARK    5  A    between atoms: C_7  and  C_8
REMARK    6  A    between atoms: C_8  and  C_9
REMARK    7  A    between atoms: C_9  and  C_11
REMARK                            x       y       z     vdW  Elec       q    Type
REMARK                         _______ _______ _______ _____ _____    ______ ____
ROOT
ATOM      1  C   UNL     1      -9.460   5.984 131.973  0.00  0.00    +0.000 C 
ATOM      2  C   UNL     1      -9.555   4.453 131.859  0.00  0.00    +0.000 C 
ATOM      3  C   UNL     1      -8.445   3.720 132.580  0.00  0.00    +0.000 C 
ATOM      4  N   UNL     1      -7.151   4.214 132.107  0.00  0.00    +0.000 NA
ATOM      5  C   UNL     1      -6.998   5.650 132.371  0.00  0.00    +0.000 C 
ATOM      6  C   UNL     1      -8.047   6.458 131.632  0.00  0.00    +0.000 C 
ENDROOT
BRANCH   1   7
ATOM      7  C   UNL     1     -10.460   6.687 131.062  0.00  0.00    +0.000 A 
ATOM      8  C   UNL     1     -11.822   6.734 131.406  0.00  0.00    +0.000 A 
ATOM      9  C   UNL     1     -12.737   7.406 130.594  0.00  0.00    +0.000 A 
ATOM     10  C   UNL     1     -12.301   8.034 129.429  0.00  0.00    +0.000 A 
ATOM     11 CL   UNL     1     -13.425   8.834 128.405  0.00  0.00    +0.000 Cl
ATOM     12  C   UNL     1     -10.960   8.013 129.077  0.00  0.00    +0.000 A 
ATOM     13  C   UNL     1     -10.052   7.340 129.885  0.00  0.00    +0.000 A 
ENDBRANCH   1   7
BRANCH   1  14
ATOM     14  O   UNL     1      -9.773   6.371 133.319  0.00  0.00    +0.000 OA
ATOM     15  H   UNL     1      -9.110   7.016 133.614  0.00  0.00    +0.000 HD
ENDBRANCH   1  14
BRANCH   4  16
ATOM     16  C   UNL     1      -6.076   3.428 132.712  0.00  0.00    +0.000 C 
BRANCH  16  17
ATOM     17  C   UNL     1      -5.765   2.192 131.879  0.00  0.00    +0.000 C 
BRANCH  17  18
ATOM     18  C   UNL     1      -4.311   2.158 131.455  0.00  0.00    +0.000 C 
BRANCH  18  19
ATOM     19  C   UNL     1      -4.220   2.319 129.953  0.00  0.00    +0.000 C 
ATOM     20  O   UNL     1      -4.707   1.525 129.147  0.00  0.00    +0.000 OA
BRANCH  19  21
ATOM     21  C   UNL     1      -3.562   3.532 129.435  0.00  0.00    +0.000 A 
ATOM     22  C   UNL     1      -3.151   3.610 128.101  0.00  0.00    +0.000 A 
ATOM     23  C   UNL     1      -2.559   4.782 127.634  0.00  0.00    +0.000 A 
ATOM     24  C   UNL     1      -2.384   5.858 128.501  0.00  0.00    +0.000 A 
ATOM     25  F   UNL     1      -1.821   6.983 128.043  0.00  0.00    +0.000 F 
ATOM     26  C   UNL     1      -2.788   5.786 129.830  0.00  0.00    +0.000 A 
ATOM     27  C   UNL     1      -3.384   4.618 130.303  0.00  0.00    +0.000 A 
ENDBRANCH  19  21
ENDBRANCH  18  19
ENDBRANCH  17  18
ENDBRANCH  16  17
ENDBRANCH   4  16
TORSDOF 7
ENDMDL
MODEL 6
REMARK VINA RESULT:      -7.7      6.806      8.213
REMARK  Name = Haloperidol
REMARK  7 active torsions:
REMARK  status: ('A' for Active; 'I' for Inactive)
REMARK    1  A    between atoms: O_1  and  C_2
REMARK    2  A    between atoms: C_2  and  C_20
REMARK    3  A    between atoms: N_5  and  C_6
REMARK    4  A    between atoms: C_6  and  C_7
REMARK    5  A    between atoms: C_7  and  C_8
REMARK    6  A    between atoms: C_8  and  C_9
REMARK    7  A    between atoms: C_9  and  C_11
REMARK                            x       y       z     vdW  Elec       q    Type
REMARK                         _______ _______ _______ _____ _____    ______ ____
ROOT
ATOM      1  C   UNL     1     -10.176   5.456 130.095  0.00  0.00    +0.000 C 
ATOM      2  C   UNL     1      -9.235   5.654 131.296  0.00  0.00    +0.000 C 
ATOM      3  C   UNL     1      -8.524   4.389 131.725  0.00  0.00    +0.000 C 
ATOM      4  N   UNL     1      -9.514   3.341 131.985  0.00  0.00    +0.000 NA
ATOM      5  C   UNL     1     -10.299   3.039 130.783  0.00  0.00    +0.000 C 
ATOM      6  C   UNL     1     -11.088   4.249 130.324  0.00  0.00    +0.000 C 
ENDROOT
BRANCH   1   7
ATOM      7  C   UNL     1     -11.032   6.690 129.831  0.00  0.00    +0.000 A 
ATOM      8  C   UNL     1     -12.078   7.028 130.707  0.00  0.00    +0.000 A 
ATOM      9  C   UNL     1     -12.842   8.175 130.491  0.00  0.00    +0.000 A 
ATOM     10  C   UNL     1     -12.573   8.993 129.396  0.00  0.00    +0.000 A 
ATOM     11 CL   UNL     1     -13.531  10.388 129.102  0.00  0.00    +0.000 Cl
ATOM     12  C   UNL     1     -11.538   8.687 128.526  0.00  0.00    +0.000 A 
ATOM     13  C   UNL     1     -10.780   7.543 128.741  0.00  0.00    +0.000 A 
ENDBRANCH   1   7
BRANCH   1  14
ATOM     14  O   UNL     1      -9.388   5.231 128.917  0.00  0.00    +0.000 OA
ATOM     15  H   UNL     1      -8.534   5.677 129.030  0.00  0.00    +0.000 HD
ENDBRANCH   1  14
BRANCH   4  16
ATOM     16  C   UNL     1      -8.842   2.154 132.515  0.00  0.00    +0.000 C 
BRANCH  16  17
ATOM     17  C   UNL     1      -9.259   0.903 131.755  0.00  0.00    +0.000 C 
BRANCH  17  18
ATOM     18  C   UNL     1      -8.310  -0.248 132.014  0.00  0.00    +0.000 C 
BRANCH  18  19
ATOM     19  C   UNL     1      -7.313  -0.344 130.880  0.00  0.00    +0.000 C 
ATOM     20  O   UNL     1      -6.235   0.252 130.862  0.00  0.00    +0.000 OA
BRANCH  19  21
ATOM     21  C   UNL     1      -7.632  -1.256 129.767  0.00  0.00    +0.000 A 
ATOM     22  C   UNL     1      -8.009  -2.580 130.011  0.00  0.00    +0.000 A 
ATOM     23  C   UNL     1      -8.333  -3.410 128.938  0.00  0.00    +0.000 A 
ATOM     24  C   UNL     1      -8.275  -2.909 127.640  0.00  0.00    +0.000 A 
ATOM     25  F   UNL     1      -8.595  -3.710 126.616  0.00  0.00    +0.000 F 
ATOM     26  C   UNL     1      -7.899  -1.594 127.390  0.00  0.00    +0.000 A 
ATOM     27  C   UNL     1      -7.577  -0.759 128.458  0.00  0.00    +0.000 A 
ENDBRANCH  19  21
ENDBRANCH  18  19
ENDBRANCH  17  18
ENDBRANCH  16  17
ENDBRANCH   4  16
TORSDOF 7
ENDMDL
MODEL 7
REMARK VINA RESULT:      -7.7      6.748      8.143
REMARK  Name = Haloperidol
REMARK  7 active torsions:
REMARK  status: ('A' for Active; 'I' for Inactive)
REMARK    1  A    between atoms: O_1  and  C_2
REMARK    2  A    between atoms: C_2  and  C_20
REMARK    3  A    between atoms: N_5  and  C_6
REMARK    4  A    between atoms: C_6  and  C_7
REMARK    5  A    between atoms: C_7  and  C_8
REMARK    6  A    between atoms: C_8  and  C_9
REMARK    7  A    between atoms: C_9  and  C_11
REMARK                            x       y       z     vdW  Elec       q    Type
REMARK                         _______ _______ _______ _____ _____    ______ ____
ROOT
ATOM      1  C   UNL     1     -10.099   5.000 131.404  0.00  0.00    +0.000 C 
ATOM      2  C   UNL     1     -10.667   3.684 130.845  0.00  0.00    +0.000 C 
ATOM      3  C   UNL     1      -9.828   2.470 131.180  0.00  0.00    +0.000 C 
ATOM      4  N   UNL     1      -8.451   2.694 130.732  0.00  0.00    +0.000 NA
ATOM      5  C   UNL     1      -7.856   3.859 131.398  0.00  0.00    +0.000 C 
ATOM      6  C   UNL     1      -8.613   5.128 131.062  0.00  0.00    +0.000 C 
ENDROOT
BRANCH   1   7
ATOM      7  C   UNL     1     -10.845   6.216 130.867  0.00  0.00    +0.000 A 
ATOM      8  C   UNL     1     -10.316   6.957 129.796  0.00  0.00    +0.000 A 
ATOM      9  C   UNL     1     -11.011   8.050 129.277  0.00  0.00    +0.000 A 
ATOM     10  C   UNL     1     -12.238   8.417 129.825  0.00  0.00    +0.000 A 
ATOM     11 CL   UNL     1     -13.083   9.783 129.216  0.00  0.00    +0.000 Cl
ATOM     12  C   UNL     1     -12.785   7.694 130.873  0.00  0.00    +0.000 A 
ATOM     13  C   UNL     1     -12.091   6.608 131.391  0.00  0.00    +0.000 A 
ENDBRANCH   1   7
BRANCH   1  14
ATOM     14  O   UNL     1     -10.254   5.006 132.830  0.00  0.00    +0.000 OA
ATOM     15  H   UNL     1      -9.382   5.140 133.233  0.00  0.00    +0.000 HD
ENDBRANCH   1  14
BRANCH   4  16
ATOM     16  C   UNL     1      -7.664   1.479 130.945  0.00  0.00    +0.000 C 
BRANCH  16  17
ATOM     17  C   UNL     1      -8.564   0.259 131.079  0.00  0.00    +0.000 C 
BRANCH  17  18
ATOM     18  C   UNL     1      -7.781  -0.968 131.497  0.00  0.00    +0.000 C 
BRANCH  18  19
ATOM     19  C   UNL     1      -6.881  -1.403 130.361  0.00  0.00    +0.000 C 
ATOM     20  O   UNL     1      -5.651  -1.335 130.396  0.00  0.00    +0.000 OA
BRANCH  19  21
ATOM     21  C   UNL     1      -7.519  -2.000 129.174  0.00  0.00    +0.000 A 
ATOM     22  C   UNL     1      -8.191  -3.223 129.262  0.00  0.00    +0.000 A 
ATOM     23  C   UNL     1      -8.810  -3.747 128.128  0.00  0.00    +0.000 A 
ATOM     24  C   UNL     1      -8.749  -3.048 126.926  0.00  0.00    +0.000 A 
ATOM     25  F   UNL     1      -9.352  -3.554 125.843  0.00  0.00    +0.000 F 
ATOM     26  C   UNL     1      -8.080  -1.832 126.831  0.00  0.00    +0.000 A 
ATOM     27  C   UNL     1      -7.462  -1.301 127.961  0.00  0.00    +0.000 A 
ENDBRANCH  19  21
ENDBRANCH  18  19
ENDBRANCH  17  18
ENDBRANCH  16  17
ENDBRANCH   4  16
TORSDOF 7
ENDMDL
MODEL 8
REMARK VINA RESULT:      -7.7      9.642     11.181
REMARK  Name = Haloperidol
REMARK  7 active torsions:
REMARK  status: ('A' for Active; 'I' for Inactive)
REMARK    1  A    between atoms: O_1  and  C_2
REMARK    2  A    between atoms: C_2  and  C_20
REMARK    3  A    between atoms: N_5  and  C_6
REMARK    4  A    between atoms: C_6  and  C_7
REMARK    5  A    between atoms: C_7  and  C_8
REMARK    6  A    between atoms: C_8  and  C_9
REMARK    7  A    between atoms: C_9  and  C_11
REMARK                            x       y       z     vdW  Elec       q    Type
REMARK                         _______ _______ _______ _____ _____    ______ ____
ROOT
ATOM      1  C   UNL     1      -9.764   5.744 131.632  0.00  0.00    +0.000 C 
ATOM      2  C   UNL     1      -9.617   4.379 130.940  0.00  0.00    +0.000 C 
ATOM      3  C   UNL     1      -8.556   3.496 131.558  0.00  0.00    +0.000 C 
ATOM      4  N   UNL     1      -7.283   4.219 131.592  0.00  0.00    +0.000 NA
ATOM      5  C   UNL     1      -7.386   5.442 132.397  0.00  0.00    +0.000 C 
ATOM      6  C   UNL     1      -8.395   6.406 131.804  0.00  0.00    +0.000 C 
ENDROOT
BRANCH   1   7
ATOM      7  C   UNL     1     -10.681   6.683 130.855  0.00  0.00    +0.000 A 
ATOM      8  C   UNL     1     -12.011   6.876 131.267  0.00  0.00    +0.000 A 
ATOM      9  C   UNL     1     -12.845   7.760 130.581  0.00  0.00    +0.000 A 
ATOM     10  C   UNL     1     -12.361   8.456 129.476  0.00  0.00    +0.000 A 
ATOM     11 CL   UNL     1     -13.391   9.519 128.604  0.00  0.00    +0.000 Cl
ATOM     12  C   UNL     1     -11.049   8.292 129.059  0.00  0.00    +0.000 A 
ATOM     13  C   UNL     1     -10.221   7.409 129.742  0.00  0.00    +0.000 A 
ENDBRANCH   1   7
BRANCH   1  14
ATOM     14  O   UNL     1     -10.357   5.551 132.924  0.00  0.00    +0.000 OA
ATOM     15  H   UNL     1     -10.132   6.313 133.481  0.00  0.00    +0.000 HD
ENDBRANCH   1  14
BRANCH   4  16
ATOM     16  C   UNL     1      -6.227   3.330 132.077  0.00  0.00    +0.000 C 
BRANCH  16  17
ATOM     17  C   UNL     1      -4.874   4.026 132.061  0.00  0.00    +0.000 C 
BRANCH  17  18
ATOM     18  C   UNL     1      -4.362   4.214 130.648  0.00  0.00    +0.000 C 
BRANCH  18  19
ATOM     19  C   UNL     1      -4.204   5.692 130.361  0.00  0.00    +0.000 C 
ATOM     20  O   UNL     1      -4.921   6.320 129.582  0.00  0.00    +0.000 OA
BRANCH  19  21
ATOM     21  C   UNL     1      -3.169   6.425 131.112  0.00  0.00    +0.000 A 
ATOM     22  C   UNL     1      -3.494   7.567 131.850  0.00  0.00    +0.000 A 
ATOM     23  C   UNL     1      -2.499   8.222 132.574  0.00  0.00    +0.000 A 
ATOM     24  C   UNL     1      -1.196   7.732 132.550  0.00  0.00    +0.000 A 
ATOM     25  F   UNL     1      -0.247   8.362 133.254  0.00  0.00    +0.000 F 
ATOM     26  C   UNL     1      -0.865   6.598 131.816  0.00  0.00    +0.000 A 
ATOM     27  C   UNL     1      -1.856   5.936 131.093  0.00  0.00    +0.000 A 
ENDBRANCH  19  21
ENDBRANCH  18  19
ENDBRANCH  17  18
ENDBRANCH  16  17
ENDBRANCH   4  16
TORSDOF 7
ENDMDL
MODEL 9
REMARK VINA RESULT:      -7.7      8.527     10.121
REMARK  Name = Haloperidol
REMARK  7 active torsions:
REMARK  status: ('A' for Active; 'I' for Inactive)
REMARK    1  A    between atoms: O_1  and  C_2
REMARK    2  A    between atoms: C_2  and  C_20
REMARK    3  A    between atoms: N_5  and  C_6
REMARK    4  A    between atoms: C_6  and  C_7
REMARK    5  A    between atoms: C_7  and  C_8
REMARK    6  A    between atoms: C_8  and  C_9
REMARK    7  A    between atoms: C_9  and  C_11
REMARK                            x       y       z     vdW  Elec       q    Type
REMARK                         _______ _______ _______ _____ _____    ______ ____
ROOT
ATOM      1  C   UNL     1      -9.629   6.061 131.771  0.00  0.00    +0.000 C 
ATOM      2  C   UNL     1      -9.701   4.543 131.536  0.00  0.00    +0.000 C 
ATOM      3  C   UNL     1      -8.600   3.769 132.227  0.00  0.00    +0.000 C 
ATOM      4  N   UNL     1      -7.300   4.313 131.827  0.00  0.00    +0.000 NA
ATOM      5  C   UNL     1      -7.173   5.725 132.205  0.00  0.00    +0.000 C 
ATOM      6  C   UNL     1      -8.213   6.576 131.504  0.00  0.00    +0.000 C 
ENDROOT
BRANCH   1   7
ATOM      7  C   UNL     1     -10.614   6.822 130.890  0.00  0.00    +0.000 A 
ATOM      8  C   UNL     1     -11.964   6.931 131.268  0.00  0.00    +0.000 A 
ATOM      9  C   UNL     1     -12.864   7.656 130.484  0.00  0.00    +0.000 A 
ATOM     10  C   UNL     1     -12.426   8.274 129.316  0.00  0.00    +0.000 A 
ATOM     11 CL   UNL     1     -13.534   9.138 128.327  0.00  0.00    +0.000 Cl
ATOM     12  C   UNL     1     -11.097   8.192 128.931  0.00  0.00    +0.000 A 
ATOM     13  C   UNL     1     -10.203   7.467 129.710  0.00  0.00    +0.000 A 
ENDBRANCH   1   7
BRANCH   1  14
ATOM     14  O   UNL     1      -9.980   6.340 133.133  0.00  0.00    +0.000 OA
ATOM     15  H   UNL     1     -10.433   5.563 133.498  0.00  0.00    +0.000 HD
ENDBRANCH   1  14
BRANCH   4  16
ATOM     16  C   UNL     1      -6.230   3.494 132.397  0.00  0.00    +0.000 C 
BRANCH  16  17
ATOM     17  C   UNL     1      -5.206   4.356 133.121  0.00  0.00    +0.000 C 
BRANCH  17  18
ATOM     18  C   UNL     1      -3.813   4.152 132.564  0.00  0.00    +0.000 C 
BRANCH  18  19
ATOM     19  C   UNL     1      -3.497   5.256 131.578  0.00  0.00    +0.000 C 
ATOM     20  O   UNL     1      -3.388   6.442 131.890  0.00  0.00    +0.000 OA
BRANCH  19  21
ATOM     21  C   UNL     1      -3.245   4.870 130.178  0.00  0.00    +0.000 A 
ATOM     22  C   UNL     1      -3.612   3.606 129.707  0.00  0.00    +0.000 A 
ATOM     23  C   UNL     1      -3.387   3.281 128.370  0.00  0.00    +0.000 A 
ATOM     24  C   UNL     1      -2.799   4.218 127.524  0.00  0.00    +0.000 A 
ATOM     25  F   UNL     1      -2.592   3.902 126.240  0.00  0.00    +0.000 F 
ATOM     26  C   UNL     1      -2.429   5.476 127.988  0.00  0.00    +0.000 A 
ATOM     27  C   UNL     1      -2.654   5.808 129.322  0.00  0.00    +0.000 A 
ENDBRANCH  19  21
ENDBRANCH  18  19
ENDBRANCH  17  18
ENDBRANCH  16  17
ENDBRANCH   4  16
TORSDOF 7
ENDMDL
