MODEL 1
REMARK VINA RESULT:      -5.8      0.000      0.000
REMARK  Name = Haloprogin
REMARK  3 active torsions:
REMARK  status: ('A' for Active; 'I' for Inactive)
REMARK    1  A    between atoms: C_9  and  O_10
REMARK    2  A    between atoms: O_10  and  C_11
REMARK    3  A    between atoms: C_11  and  C_12
REMARK                            x       y       z     vdW  Elec       q    Type
REMARK                         _______ _______ _______ _____ _____    ______ ____
ROOT
ATOM      1 CL   UNL     1      -6.085   2.735 124.278  0.00  0.00    +0.000 Cl
ATOM      2  C   UNL     1      -6.913   3.161 122.816  0.00  0.00    +0.000 A 
ATOM      3  C   UNL     1      -6.083   3.803 121.890  0.00  0.00    +0.000 A 
ATOM      4  C   UNL     1      -6.567   4.200 120.647  0.00  0.00    +0.000 A 
ATOM      5 CL   UNL     1      -5.449   4.963 119.575  0.00  0.00    +0.000 Cl
ATOM      6  C   UNL     1      -7.902   3.968 120.321  0.00  0.00    +0.000 A 
ATOM      7 CL   UNL     1      -8.560   4.428 118.792  0.00  0.00    +0.000 Cl
ATOM      8  C   UNL     1      -8.744   3.337 121.248  0.00  0.00    +0.000 A 
ATOM      9  C   UNL     1      -8.264   2.919 122.507  0.00  0.00    +0.000 A 
ENDROOT
BRANCH   9  10
ATOM     10  O   UNL     1      -9.240   2.310 123.264  0.00  0.00    +0.000 OA
BRANCH  10  11
ATOM     11  C   UNL     1      -9.915   1.206 122.677  0.00  0.00    +0.000 C 
BRANCH  11  12
ATOM     12  C   UNL     1      -9.367  -0.125 123.164  0.00  0.00    +0.000 C 
ATOM     13  C   UNL     1      -8.898  -1.268 123.581  0.00  0.00    +0.000 C 
ATOM     14  I   UNL     1      -8.151  -3.087 124.245  0.00  0.00    +0.000 I 
ENDBRANCH  11  12
ENDBRANCH  10  11
ENDBRANCH   9  10
TORSDOF 3
ENDMDL
MODEL 2
REMARK VINA RESULT:      -5.3      3.168      4.401
REMARK  Name = Haloprogin
REMARK  3 active torsions:
REMARK  status: ('A' for Active; 'I' for Inactive)
REMARK    1  A    between atoms: C_9  and  O_10
REMARK    2  A    between atoms: O_10  and  C_11
REMARK    3  A    between atoms: C_11  and  C_12
REMARK                            x       y       z     vdW  Elec       q    Type
REMARK                         _______ _______ _______ _____ _____    ______ ____
ROOT
ATOM      1 CL   UNL     1      -9.153   2.239 123.689  0.00  0.00    +0.000 Cl
ATOM      2  C   UNL     1      -8.215   2.986 122.438  0.00  0.00    +0.000 A 
ATOM      3  C   UNL     1      -8.973   3.297 121.303  0.00  0.00    +0.000 A 
ATOM      4  C   UNL     1      -8.395   3.922 120.202  0.00  0.00    +0.000 A 
ATOM      5 CL   UNL     1      -9.429   4.277 118.866  0.00  0.00    +0.000 Cl
ATOM      6  C   UNL     1      -7.037   4.234 120.222  0.00  0.00    +0.000 A 
ATOM      7 CL   UNL     1      -6.262   5.018 118.891  0.00  0.00    +0.000 Cl
ATOM      8  C   UNL     1      -6.267   3.915 121.349  0.00  0.00    +0.000 A 
ATOM      9  C   UNL     1      -6.842   3.292 122.476  0.00  0.00    +0.000 A 
ENDROOT
BRANCH   9  10
ATOM     10  O   UNL     1      -5.925   3.075 123.481  0.00  0.00    +0.000 OA
BRANCH  10  11
ATOM     11  C   UNL     1      -5.430   4.221 124.158  0.00  0.00    +0.000 C 
BRANCH  11  12
ATOM     12  C   UNL     1      -4.939   3.892 125.558  0.00  0.00    +0.000 C 
ATOM     13  C   UNL     1      -4.517   3.610 126.759  0.00  0.00    +0.000 C 
ATOM     14  I   UNL     1      -3.846   3.161 128.671  0.00  0.00    +0.000 I 
ENDBRANCH  11  12
ENDBRANCH  10  11
ENDBRANCH   9  10
TORSDOF 3
ENDMDL
MODEL 3
REMARK VINA RESULT:      -5.2      1.991      2.828
REMARK  Name = Haloprogin
REMARK  3 active torsions:
REMARK  status: ('A' for Active; 'I' for Inactive)
REMARK    1  A    between atoms: C_9  and  O_10
REMARK    2  A    between atoms: O_10  and  C_11
REMARK    3  A    between atoms: C_11  and  C_12
REMARK                            x       y       z     vdW  Elec       q    Type
REMARK                         _______ _______ _______ _____ _____    ______ ____
ROOT
ATOM      1 CL   UNL     1     -10.031   1.771 123.697  0.00  0.00    +0.000 Cl
ATOM      2  C   UNL     1      -8.536   2.478 123.176  0.00  0.00    +0.000 A 
ATOM      3  C   UNL     1      -8.602   2.989 121.875  0.00  0.00    +0.000 A 
ATOM      4  C   UNL     1      -7.503   3.614 121.293  0.00  0.00    +0.000 A 
ATOM      5 CL   UNL     1      -7.705   4.227 119.691  0.00  0.00    +0.000 Cl
ATOM      6  C   UNL     1      -6.314   3.725 122.010  0.00  0.00    +0.000 A 
ATOM      7 CL   UNL     1      -4.919   4.499 121.347  0.00  0.00    +0.000 Cl
ATOM      8  C   UNL     1      -6.235   3.205 123.310  0.00  0.00    +0.000 A 
ATOM      9  C   UNL     1      -7.344   2.578 123.917  0.00  0.00    +0.000 A 
ENDROOT
BRANCH   9  10
ATOM     10  O   UNL     1      -7.068   2.148 125.195  0.00  0.00    +0.000 OA
BRANCH  10  11
ATOM     11  C   UNL     1      -6.340   0.935 125.324  0.00  0.00    +0.000 C 
BRANCH  11  12
ATOM     12  C   UNL     1      -7.144  -0.268 124.858  0.00  0.00    +0.000 C 
ATOM     13  C   UNL     1      -7.834  -1.299 124.458  0.00  0.00    +0.000 C 
ATOM     14  I   UNL     1      -8.932  -2.941 123.821  0.00  0.00    +0.000 I 
ENDBRANCH  11  12
ENDBRANCH  10  11
ENDBRANCH   9  10
TORSDOF 3
ENDMDL
MODEL 4
REMARK VINA RESULT:      -5.2      6.176      8.005
REMARK  Name = Haloprogin
REMARK  3 active torsions:
REMARK  status: ('A' for Active; 'I' for Inactive)
REMARK    1  A    between atoms: C_9  and  O_10
REMARK    2  A    between atoms: O_10  and  C_11
REMARK    3  A    between atoms: C_11  and  C_12
REMARK                            x       y       z     vdW  Elec       q    Type
REMARK                         _______ _______ _______ _____ _____    ______ ____
ROOT
ATOM      1 CL   UNL     1      -8.861  -3.668 128.476  0.00  0.00    +0.000 Cl
ATOM      2  C   UNL     1      -8.221  -2.981 127.019  0.00  0.00    +0.000 A 
ATOM      3  C   UNL     1      -8.962  -3.329 125.884  0.00  0.00    +0.000 A 
ATOM      4  C   UNL     1      -8.611  -2.853 124.624  0.00  0.00    +0.000 A 
ATOM      5 CL   UNL     1      -9.609  -3.328 123.298  0.00  0.00    +0.000 Cl
ATOM      6  C   UNL     1      -7.499  -2.026 124.486  0.00  0.00    +0.000 A 
ATOM      7 CL   UNL     1      -7.018  -1.394 122.951  0.00  0.00    +0.000 Cl
ATOM      8  C   UNL     1      -6.743  -1.682 125.616  0.00  0.00    +0.000 A 
ATOM      9  C   UNL     1      -7.092  -2.149 126.900  0.00  0.00    +0.000 A 
ENDROOT
BRANCH   9  10
ATOM     10  O   UNL     1      -6.235  -1.690 127.876  0.00  0.00    +0.000 OA
BRANCH  10  11
ATOM     11  C   UNL     1      -5.055  -2.448 128.104  0.00  0.00    +0.000 C 
BRANCH  11  12
ATOM     12  C   UNL     1      -5.094  -3.183 129.434  0.00  0.00    +0.000 C 
ATOM     13  C   UNL     1      -5.127  -3.812 130.575  0.00  0.00    +0.000 C 
ATOM     14  I   UNL     1      -5.179  -4.815 132.391  0.00  0.00    +0.000 I 
ENDBRANCH  11  12
ENDBRANCH  10  11
ENDBRANCH   9  10
TORSDOF 3
ENDMDL
MODEL 5
REMARK VINA RESULT:      -5.1      3.840      5.791
REMARK  Name = Haloprogin
REMARK  3 active torsions:
REMARK  status: ('A' for Active; 'I' for Inactive)
REMARK    1  A    between atoms: C_9  and  O_10
REMARK    2  A    between atoms: O_10  and  C_11
REMARK    3  A    between atoms: C_11  and  C_12
REMARK                            x       y       z     vdW  Elec       q    Type
REMARK                         _______ _______ _______ _____ _____    ______ ____
ROOT
ATOM      1 CL   UNL     1      -5.661   1.336 125.653  0.00  0.00    +0.000 Cl
ATOM      2  C   UNL     1      -6.786   0.193 124.996  0.00  0.00    +0.000 A 
ATOM      3  C   UNL     1      -6.223  -1.074 124.803  0.00  0.00    +0.000 A 
ATOM      4  C   UNL     1      -6.981  -2.129 124.304  0.00  0.00    +0.000 A 
ATOM      5 CL   UNL     1      -6.189  -3.652 124.128  0.00  0.00    +0.000 Cl
ATOM      6  C   UNL     1      -8.320  -1.921 123.978  0.00  0.00    +0.000 A 
ATOM      7 CL   UNL     1      -9.317  -3.191 123.364  0.00  0.00    +0.000 Cl
ATOM      8  C   UNL     1      -8.890  -0.652 124.156  0.00  0.00    +0.000 A 
ATOM      9  C   UNL     1      -8.136   0.423 124.672  0.00  0.00    +0.000 A 
ENDROOT
BRANCH   9  10
ATOM     10  O   UNL     1      -8.878   1.578 124.782  0.00  0.00    +0.000 OA
BRANCH  10  11
ATOM     11  C   UNL     1      -9.301   2.190 123.572  0.00  0.00    +0.000 C 
BRANCH  11  12
ATOM     12  C   UNL     1      -8.133   2.737 122.768  0.00  0.00    +0.000 C 
ATOM     13  C   UNL     1      -7.131   3.208 122.078  0.00  0.00    +0.000 C 
ATOM     14  I   UNL     1      -5.537   3.956 120.980  0.00  0.00    +0.000 I 
ENDBRANCH  11  12
ENDBRANCH  10  11
ENDBRANCH   9  10
TORSDOF 3
ENDMDL
MODEL 6
REMARK VINA RESULT:      -5.1      4.715      7.755
REMARK  Name = Haloprogin
REMARK  3 active torsions:
REMARK  status: ('A' for Active; 'I' for Inactive)
REMARK    1  A    between atoms: C_9  and  O_10
REMARK    2  A    between atoms: O_10  and  C_11
REMARK    3  A    between atoms: C_11  and  C_12
REMARK                            x       y       z     vdW  Elec       q    Type
REMARK                         _______ _______ _______ _____ _____    ______ ____
ROOT
ATOM      1 CL   UNL     1      -9.011  -2.727 123.167  0.00  0.00    +0.000 Cl
ATOM      2  C   UNL     1      -8.497  -2.313 124.770  0.00  0.00    +0.000 A 
ATOM      3  C   UNL     1      -8.991  -3.192 125.742  0.00  0.00    +0.000 A 
ATOM      4  C   UNL     1      -8.666  -3.031 127.085  0.00  0.00    +0.000 A 
ATOM      5 CL   UNL     1      -9.312  -4.187 128.193  0.00  0.00    +0.000 Cl
ATOM      6  C   UNL     1      -7.847  -1.974 127.474  0.00  0.00    +0.000 A 
ATOM      7 CL   UNL     1      -7.400  -1.726 129.125  0.00  0.00    +0.000 Cl
ATOM      8  C   UNL     1      -7.358  -1.081 126.509  0.00  0.00    +0.000 A 
ATOM      9  C   UNL     1      -7.670  -1.237 125.143  0.00  0.00    +0.000 A 
ENDROOT
BRANCH   9  10
ATOM     10  O   UNL     1      -7.085  -0.269 124.357  0.00  0.00    +0.000 OA
BRANCH  10  11
ATOM     11  C   UNL     1      -7.869   0.877 124.059  0.00  0.00    +0.000 C 
BRANCH  11  12
ATOM     12  C   UNL     1      -7.153   1.832 123.117  0.00  0.00    +0.000 C 
ATOM     13  C   UNL     1      -6.538   2.651 122.310  0.00  0.00    +0.000 C 
ATOM     14  I   UNL     1      -5.560   3.954 121.025  0.00  0.00    +0.000 I 
ENDBRANCH  11  12
ENDBRANCH  10  11
ENDBRANCH   9  10
TORSDOF 3
ENDMDL
MODEL 7
REMARK VINA RESULT:      -4.9      3.742      6.256
REMARK  Name = Haloprogin
REMARK  3 active torsions:
REMARK  status: ('A' for Active; 'I' for Inactive)
REMARK    1  A    between atoms: C_9  and  O_10
REMARK    2  A    between atoms: O_10  and  C_11
REMARK    3  A    between atoms: C_11  and  C_12
REMARK                            x       y       z     vdW  Elec       q    Type
REMARK                         _______ _______ _______ _____ _____    ______ ____
ROOT
ATOM      1 CL   UNL     1      -9.665   1.740 122.243  0.00  0.00    +0.000 Cl
ATOM      2  C   UNL     1      -9.298   0.717 123.594  0.00  0.00    +0.000 A 
ATOM      3  C   UNL     1      -9.288  -0.642 123.258  0.00  0.00    +0.000 A 
ATOM      4  C   UNL     1      -8.991  -1.614 124.210  0.00  0.00    +0.000 A 
ATOM      5 CL   UNL     1      -8.984  -3.256 123.679  0.00  0.00    +0.000 Cl
ATOM      6  C   UNL     1      -8.711  -1.232 125.520  0.00  0.00    +0.000 A 
ATOM      7 CL   UNL     1      -8.326  -2.389 126.744  0.00  0.00    +0.000 Cl
ATOM      8  C   UNL     1      -8.732   0.126 125.868  0.00  0.00    +0.000 A 
ATOM      9  C   UNL     1      -9.021   1.123 124.912  0.00  0.00    +0.000 A 
ENDROOT
BRANCH   9  10
ATOM     10  O   UNL     1      -8.979   2.391 125.448  0.00  0.00    +0.000 OA
BRANCH  10  11
ATOM     11  C   UNL     1      -7.701   3.000 125.561  0.00  0.00    +0.000 C 
BRANCH  11  12
ATOM     12  C   UNL     1      -7.065   3.255 124.205  0.00  0.00    +0.000 C 
ATOM     13  C   UNL     1      -6.518   3.474 123.041  0.00  0.00    +0.000 C 
ATOM     14  I   UNL     1      -5.649   3.823 121.189  0.00  0.00    +0.000 I 
ENDBRANCH  11  12
ENDBRANCH  10  11
ENDBRANCH   9  10
TORSDOF 3
ENDMDL
MODEL 8
REMARK VINA RESULT:      -4.9      6.128      7.263
REMARK  Name = Haloprogin
REMARK  3 active torsions:
REMARK  status: ('A' for Active; 'I' for Inactive)
REMARK    1  A    between atoms: C_9  and  O_10
REMARK    2  A    between atoms: O_10  and  C_11
REMARK    3  A    between atoms: C_11  and  C_12
REMARK                            x       y       z     vdW  Elec       q    Type
REMARK                         _______ _______ _______ _____ _____    ______ ____
ROOT
ATOM      1 CL   UNL     1      -5.324  -1.054 127.485  0.00  0.00    +0.000 Cl
ATOM      2  C   UNL     1      -6.549  -1.645 126.411  0.00  0.00    +0.000 A 
ATOM      3  C   UNL     1      -6.157  -1.606 125.067  0.00  0.00    +0.000 A 
ATOM      4  C   UNL     1      -7.002  -2.061 124.060  0.00  0.00    +0.000 A 
ATOM      5 CL   UNL     1      -6.407  -1.986 122.441  0.00  0.00    +0.000 Cl
ATOM      6  C   UNL     1      -8.263  -2.553 124.388  0.00  0.00    +0.000 A 
ATOM      7 CL   UNL     1      -9.354  -3.142 123.185  0.00  0.00    +0.000 Cl
ATOM      8  C   UNL     1      -8.669  -2.585 125.730  0.00  0.00    +0.000 A 
ATOM      9  C   UNL     1      -7.819  -2.137 126.763  0.00  0.00    +0.000 A 
ENDROOT
BRANCH   9  10
ATOM     10  O   UNL     1      -8.396  -2.262 128.007  0.00  0.00    +0.000 OA
BRANCH  10  11
ATOM     11  C   UNL     1      -8.366  -3.551 128.604  0.00  0.00    +0.000 C 
BRANCH  11  12
ATOM     12  C   UNL     1      -7.226  -3.696 129.599  0.00  0.00    +0.000 C 
ATOM     13  C   UNL     1      -6.248  -3.821 130.452  0.00  0.00    +0.000 C 
ATOM     14  I   UNL     1      -4.691  -4.020 131.810  0.00  0.00    +0.000 I 
ENDBRANCH  11  12
ENDBRANCH  10  11
ENDBRANCH   9  10
TORSDOF 3
ENDMDL
MODEL 9
REMARK VINA RESULT:      -4.9     10.194     11.109
REMARK  Name = Haloprogin
REMARK  3 active torsions:
REMARK  status: ('A' for Active; 'I' for Inactive)
REMARK    1  A    between atoms: C_9  and  O_10
REMARK    2  A    between atoms: O_10  and  C_11
REMARK    3  A    between atoms: C_11  and  C_12
REMARK                            x       y       z     vdW  Elec       q    Type
REMARK                         _______ _______ _______ _____ _____    ______ ____
ROOT
ATOM      1 CL   UNL     1      -9.457   4.652 133.501  0.00  0.00    +0.000 Cl
ATOM      2  C   UNL     1      -9.537   5.705 132.127  0.00  0.00    +0.000 A 
ATOM      3  C   UNL     1     -10.843   5.882 131.655  0.00  0.00    +0.000 A 
ATOM      4  C   UNL     1     -11.107   6.713 130.569  0.00  0.00    +0.000 A 
ATOM      5 CL   UNL     1     -12.756   6.875 130.087  0.00  0.00    +0.000 Cl
ATOM      6  C   UNL     1     -10.056   7.371 129.934  0.00  0.00    +0.000 A 
ATOM      7 CL   UNL     1     -10.319   8.422 128.589  0.00  0.00    +0.000 Cl
ATOM      8  C   UNL     1      -8.743   7.189 130.393  0.00  0.00    +0.000 A 
ATOM      9  C   UNL     1      -8.462   6.359 131.498  0.00  0.00    +0.000 A 
ENDROOT
BRANCH   9  10
ATOM     10  O   UNL     1      -7.119   6.323 131.798  0.00  0.00    +0.000 OA
BRANCH  10  11
ATOM     11  C   UNL     1      -6.255   7.095 130.976  0.00  0.00    +0.000 C 
BRANCH  11  12
ATOM     12  C   UNL     1      -4.790   6.871 131.315  0.00  0.00    +0.000 C 
ATOM     13  C   UNL     1      -3.534   6.680 131.606  0.00  0.00    +0.000 C 
ATOM     14  I   UNL     1      -1.534   6.375 132.070  0.00  0.00    +0.000 I 
ENDBRANCH  11  12
ENDBRANCH  10  11
ENDBRANCH   9  10
TORSDOF 3
ENDMDL
