MODEL 1
REMARK VINA RESULT:      -9.3      0.000      0.000
REMARK  Name = Hesperidin
REMARK  17 active torsions:
REMARK  status: ('A' for Active; 'I' for Inactive)
REMARK    1  A    between atoms: C_1  and  O_2
REMARK    2  A    between atoms: O_2  and  C_3
REMARK    3  A    between atoms: C_6  and  C_10
REMARK    4  A    between atoms: C_8  and  O_9
REMARK    5  A    between atoms: C_18  and  O_19
REMARK    6  A    between atoms: O_19  and  C_20
REMARK    7  A    between atoms: C_22  and  C_23
REMARK    8  A    between atoms: C_23  and  O_24
REMARK    9  A    between atoms: O_24  and  C_25
REMARK   10  A    between atoms: C_27  and  C_28
REMARK   11  A    between atoms: C_29  and  O_30
REMARK   12  A    between atoms: C_31  and  O_32
REMARK   13  A    between atoms: C_33  and  O_34
REMARK   14  A    between atoms: C_35  and  O_36
REMARK   15  A    between atoms: C_37  and  O_38
REMARK   16  A    between atoms: C_39  and  O_40
REMARK   17  A    between atoms: C_42  and  O_43
REMARK                            x       y       z     vdW  Elec       q    Type
REMARK                         _______ _______ _______ _____ _____    ______ ____
ROOT
ATOM      1  C   UNL     1      -4.202   3.455 129.297  0.00  0.00    +0.000 C 
ATOM      2  O   UNL     1      -5.513   3.657 129.775  0.00  0.00    +0.000 OA
ATOM      3  C   UNL     1      -5.691   4.915 130.394  0.00  0.00    +0.000 C 
ATOM      4  C   UNL     1      -5.408   6.108 129.526  0.00  0.00    +0.000 C 
ATOM      5  C   UNL     1      -3.979   5.996 129.032  0.00  0.00    +0.000 C 
ATOM      6  C   UNL     1      -3.715   4.621 128.398  0.00  0.00    +0.000 C 
ENDROOT
BRANCH   4   7
ATOM      7  O   UNL     1      -5.623   7.319 130.261  0.00  0.00    +0.000 OA
ATOM      8  H   UNL     1      -5.336   8.084 129.735  0.00  0.00    +0.000 HD
ENDBRANCH   4   7
BRANCH   5   9
ATOM      9  O   UNL     1      -3.758   7.028 128.067  0.00  0.00    +0.000 OA
ATOM     10  H   UNL     1      -4.543   7.058 127.488  0.00  0.00    +0.000 HD
ENDBRANCH   5   9
BRANCH   6  11
ATOM     11  O   UNL     1      -2.335   4.468 128.064  0.00  0.00    +0.000 OA
ATOM     12  H   UNL     1      -2.245   4.478 127.098  0.00  0.00    +0.000 HD
ENDBRANCH   6  11
BRANCH   1  13
ATOM     13  O   UNL     1      -4.120   2.172 128.657  0.00  0.00    +0.000 OA
BRANCH  13  22
ATOM     14  C   UNL     1      -8.214   1.714 124.143  0.00  0.00    +0.000 C 
ATOM     15  C   UNL     1      -9.044   0.521 125.123  0.00  0.00    +0.000 C 
ATOM     16  C   UNL     1      -7.800  -0.243 125.372  0.00  0.00    +0.000 C 
ATOM     17  O   UNL     1      -7.305  -0.949 124.523  0.00  0.00    +0.000 OA
ATOM     18  C   UNL     1      -7.024   0.424 126.393  0.00  0.00    +0.000 A 
ATOM     19  C   UNL     1      -6.500   1.580 125.895  0.00  0.00    +0.000 A 
ATOM     20  O   UNL     1      -6.888   2.035 124.683  0.00  0.00    +0.000 OA
ATOM     21  C   UNL     1      -5.522   2.235 126.623  0.00  0.00    +0.000 A 
ATOM     22  C   UNL     1      -5.181   1.754 127.894  0.00  0.00    +0.000 A 
ATOM     23  C   UNL     1      -5.958   0.740 128.475  0.00  0.00    +0.000 A 
ATOM     24  C   UNL     1      -6.925   0.093 127.715  0.00  0.00    +0.000 A 
BRANCH  14  28
ATOM     25  C   UNL     1      -7.254   4.035 120.336  0.00  0.00    +0.000 A 
ATOM     26  C   UNL     1      -6.304   3.615 121.285  0.00  0.00    +0.000 A 
ATOM     27  C   UNL     1      -6.616   2.903 122.475  0.00  0.00    +0.000 A 
ATOM     28  C   UNL     1      -7.920   2.581 122.807  0.00  0.00    +0.000 A 
ATOM     29  C   UNL     1      -8.921   2.979 121.787  0.00  0.00    +0.000 A 
ATOM     30  C   UNL     1      -8.580   3.693 120.576  0.00  0.00    +0.000 A 
BRANCH  25  32
ATOM     31  C   UNL     1      -5.465   5.419 119.420  0.00  0.00    +0.000 C 
ATOM     32  O   UNL     1      -6.709   4.730 119.281  0.00  0.00    +0.000 OA
ENDBRANCH  25  32
BRANCH  30  33
ATOM     33  O   UNL     1      -9.502   4.052 119.621  0.00  0.00    +0.000 OA
ATOM     34  H   UNL     1      -9.118   4.294 118.767  0.00  0.00    +0.000 HD
ENDBRANCH  30  33
ENDBRANCH  14  28
BRANCH  24  35
ATOM     35  O   UNL     1      -7.794  -0.815 128.232  0.00  0.00    +0.000 OA
ATOM     36  H   UNL     1      -8.701  -0.505 128.088  0.00  0.00    +0.000 HD
ENDBRANCH  24  35
ENDBRANCH  13  22
ENDBRANCH   1  13
BRANCH   3  37
ATOM     37  C   UNL     1      -7.120   4.967 130.787  0.00  0.00    +0.000 C 
BRANCH  37  38
ATOM     38  O   UNL     1      -8.000   5.906 130.209  0.00  0.00    +0.000 OA
BRANCH  38  39
ATOM     39  C   UNL     1      -9.126   5.240 129.594  0.00  0.00    +0.000 C 
ATOM     40  O   UNL     1      -9.661   5.884 128.411  0.00  0.00    +0.000 OA
ATOM     41  C   UNL     1     -10.386   7.105 128.608  0.00  0.00    +0.000 C 
ATOM     42  C   UNL     1     -10.705   7.733 127.268  0.00  0.00    +0.000 C 
ATOM     43  C   UNL     1     -11.474   6.994 129.673  0.00  0.00    +0.000 C 
ATOM     44  C   UNL     1     -10.980   6.260 130.954  0.00  0.00    +0.000 C 
ATOM     45  C   UNL     1     -10.250   4.956 130.614  0.00  0.00    +0.000 C 
BRANCH  43  46
ATOM     46  O   UNL     1     -11.940   8.308 130.004  0.00  0.00    +0.000 OA
ATOM     47  H   UNL     1     -11.267   8.956 129.725  0.00  0.00    +0.000 HD
ENDBRANCH  43  46
BRANCH  44  48
ATOM     48  O   UNL     1     -12.099   5.998 131.811  0.00  0.00    +0.000 OA
ATOM     49  H   UNL     1     -12.544   5.211 131.446  0.00  0.00    +0.000 HD
ENDBRANCH  44  48
BRANCH  45  50
ATOM     50  O   UNL     1     -11.220   4.024 130.094  0.00  0.00    +0.000 OA
ATOM     51  H   UNL     1     -12.094   4.270 130.447  0.00  0.00    +0.000 HD
ENDBRANCH  45  50
ENDBRANCH  38  39
ENDBRANCH  37  38
ENDBRANCH   3  37
TORSDOF 15
ENDMDL
MODEL 2
REMARK VINA RESULT:      -9.2      2.029      5.211
REMARK  Name = Hesperidin
REMARK  17 active torsions:
REMARK  status: ('A' for Active; 'I' for Inactive)
REMARK    1  A    between atoms: C_1  and  O_2
REMARK    2  A    between atoms: O_2  and  C_3
REMARK    3  A    between atoms: C_6  and  C_10
REMARK    4  A    between atoms: C_8  and  O_9
REMARK    5  A    between atoms: C_18  and  O_19
REMARK    6  A    between atoms: O_19  and  C_20
REMARK    7  A    between atoms: C_22  and  C_23
REMARK    8  A    between atoms: C_23  and  O_24
REMARK    9  A    between atoms: O_24  and  C_25
REMARK   10  A    between atoms: C_27  and  C_28
REMARK   11  A    between atoms: C_29  and  O_30
REMARK   12  A    between atoms: C_31  and  O_32
REMARK   13  A    between atoms: C_33  and  O_34
REMARK   14  A    between atoms: C_35  and  O_36
REMARK   15  A    between atoms: C_37  and  O_38
REMARK   16  A    between atoms: C_39  and  O_40
REMARK   17  A    between atoms: C_42  and  O_43
REMARK                            x       y       z     vdW  Elec       q    Type
REMARK                         _______ _______ _______ _____ _____    ______ ____
ROOT
ATOM      1  C   UNL     1      -4.646   5.152 128.117  0.00  0.00    +0.000 C 
ATOM      2  O   UNL     1      -5.866   5.329 128.803  0.00  0.00    +0.000 OA
ATOM      3  C   UNL     1      -5.736   5.212 130.205  0.00  0.00    +0.000 C 
ATOM      4  C   UNL     1      -4.787   6.182 130.850  0.00  0.00    +0.000 C 
ATOM      5  C   UNL     1      -3.425   5.996 130.209  0.00  0.00    +0.000 C 
ATOM      6  C   UNL     1      -3.518   6.058 128.676  0.00  0.00    +0.000 C 
ENDROOT
BRANCH   4   7
ATOM      7  O   UNL     1      -4.742   5.967 132.266  0.00  0.00    +0.000 OA
ATOM      8  H   UNL     1      -4.139   5.234 132.473  0.00  0.00    +0.000 HD
ENDBRANCH   4   7
BRANCH   5   9
ATOM      9  O   UNL     1      -2.561   7.030 130.689  0.00  0.00    +0.000 OA
ATOM     10  H   UNL     1      -2.122   6.692 131.492  0.00  0.00    +0.000 HD
ENDBRANCH   5   9
BRANCH   6  11
ATOM     11  O   UNL     1      -2.262   5.741 128.075  0.00  0.00    +0.000 OA
ATOM     12  H   UNL     1      -2.047   6.426 127.422  0.00  0.00    +0.000 HD
ENDBRANCH   6  11
BRANCH   1  13
ATOM     13  O   UNL     1      -4.862   5.319 126.708  0.00  0.00    +0.000 OA
BRANCH  13  22
ATOM     14  C   UNL     1      -6.947  -0.224 125.199  0.00  0.00    +0.000 C 
ATOM     15  C   UNL     1      -7.202   0.399 123.581  0.00  0.00    +0.000 C 
ATOM     16  C   UNL     1      -7.923   1.593 124.078  0.00  0.00    +0.000 C 
ATOM     17  O   UNL     1      -9.062   1.528 124.480  0.00  0.00    +0.000 OA
ATOM     18  C   UNL     1      -6.967   2.559 124.570  0.00  0.00    +0.000 A 
ATOM     19  C   UNL     1      -6.413   2.112 125.734  0.00  0.00    +0.000 A 
ATOM     20  O   UNL     1      -6.645   0.849 126.154  0.00  0.00    +0.000 OA
ATOM     21  C   UNL     1      -5.670   2.994 126.498  0.00  0.00    +0.000 A 
ATOM     22  C   UNL     1      -5.417   4.280 126.005  0.00  0.00    +0.000 A 
ATOM     23  C   UNL     1      -5.760   4.585 124.678  0.00  0.00    +0.000 A 
ATOM     24  C   UNL     1      -6.516   3.684 123.938  0.00  0.00    +0.000 A 
BRANCH  14  28
ATOM     25  C   UNL     1      -7.207  -3.146 128.692  0.00  0.00    +0.000 A 
ATOM     26  C   UNL     1      -6.178  -2.205 128.503  0.00  0.00    +0.000 A 
ATOM     27  C   UNL     1      -6.100  -1.309 127.403  0.00  0.00    +0.000 A 
ATOM     28  C   UNL     1      -7.049  -1.310 126.397  0.00  0.00    +0.000 A 
ATOM     29  C   UNL     1      -8.163  -2.266 126.615  0.00  0.00    +0.000 A 
ATOM     30  C   UNL     1      -8.228  -3.162 127.748  0.00  0.00    +0.000 A 
BRANCH  25  32
ATOM     31  C   UNL     1      -5.745  -4.204 130.334  0.00  0.00    +0.000 C 
ATOM     32  O   UNL     1      -7.047  -3.919 129.819  0.00  0.00    +0.000 OA
ENDBRANCH  25  32
BRANCH  30  33
ATOM     33  O   UNL     1      -9.265  -4.040 127.963  0.00  0.00    +0.000 OA
ATOM     34  H   UNL     1      -9.790  -4.239 127.175  0.00  0.00    +0.000 HD
ENDBRANCH  30  33
ENDBRANCH  14  28
BRANCH  24  35
ATOM     35  O   UNL     1      -6.791   3.852 122.618  0.00  0.00    +0.000 OA
ATOM     36  H   UNL     1      -6.010   4.216 122.174  0.00  0.00    +0.000 HD
ENDBRANCH  24  35
ENDBRANCH  13  22
ENDBRANCH   1  13
BRANCH   3  37
ATOM     37  C   UNL     1      -7.091   5.470 130.753  0.00  0.00    +0.000 C 
BRANCH  37  38
ATOM     38  O   UNL     1      -7.998   6.317 130.083  0.00  0.00    +0.000 OA
BRANCH  38  39
ATOM     39  C   UNL     1      -9.080   5.553 129.506  0.00  0.00    +0.000 C 
ATOM     40  O   UNL     1      -9.709   6.145 128.341  0.00  0.00    +0.000 OA
ATOM     41  C   UNL     1     -10.532   7.297 128.562  0.00  0.00    +0.000 C 
ATOM     42  C   UNL     1     -10.948   7.891 127.233  0.00  0.00    +0.000 C 
ATOM     43  C   UNL     1     -11.570   7.093 129.662  0.00  0.00    +0.000 C 
ATOM     44  C   UNL     1     -10.971   6.409 130.926  0.00  0.00    +0.000 C 
ATOM     45  C   UNL     1     -10.141   5.174 130.562  0.00  0.00    +0.000 C 
BRANCH  43  46
ATOM     46  O   UNL     1     -12.139   8.362 130.009  0.00  0.00    +0.000 OA
ATOM     47  H   UNL     1     -12.348   8.843 129.187  0.00  0.00    +0.000 HD
ENDBRANCH  43  46
BRANCH  44  48
ATOM     48  O   UNL     1     -12.034   6.051 131.819  0.00  0.00    +0.000 OA
ATOM     49  H   UNL     1     -12.830   6.514 131.497  0.00  0.00    +0.000 HD
ENDBRANCH  44  48
BRANCH  45  50
ATOM     50  O   UNL     1     -11.041   4.158 130.073  0.00  0.00    +0.000 OA
ATOM     51  H   UNL     1     -11.570   3.837 130.826  0.00  0.00    +0.000 HD
ENDBRANCH  45  50
ENDBRANCH  38  39
ENDBRANCH  37  38
ENDBRANCH   3  37
TORSDOF 15
ENDMDL
MODEL 3
REMARK VINA RESULT:      -9.0      3.345      4.902
REMARK  Name = Hesperidin
REMARK  17 active torsions:
REMARK  status: ('A' for Active; 'I' for Inactive)
REMARK    1  A    between atoms: C_1  and  O_2
REMARK    2  A    between atoms: O_2  and  C_3
REMARK    3  A    between atoms: C_6  and  C_10
REMARK    4  A    between atoms: C_8  and  O_9
REMARK    5  A    between atoms: C_18  and  O_19
REMARK    6  A    between atoms: O_19  and  C_20
REMARK    7  A    between atoms: C_22  and  C_23
REMARK    8  A    between atoms: C_23  and  O_24
REMARK    9  A    between atoms: O_24  and  C_25
REMARK   10  A    between atoms: C_27  and  C_28
REMARK   11  A    between atoms: C_29  and  O_30
REMARK   12  A    between atoms: C_31  and  O_32
REMARK   13  A    between atoms: C_33  and  O_34
REMARK   14  A    between atoms: C_35  and  O_36
REMARK   15  A    between atoms: C_37  and  O_38
REMARK   16  A    between atoms: C_39  and  O_40
REMARK   17  A    between atoms: C_42  and  O_43
REMARK                            x       y       z     vdW  Elec       q    Type
REMARK                         _______ _______ _______ _____ _____    ______ ____
ROOT
ATOM      1  C   UNL     1      -7.028   3.159 131.881  0.00  0.00    +0.000 C 
ATOM      2  O   UNL     1      -6.981   4.417 131.246  0.00  0.00    +0.000 OA
ATOM      3  C   UNL     1      -8.092   5.235 131.551  0.00  0.00    +0.000 C 
ATOM      4  C   UNL     1      -8.286   5.546 133.008  0.00  0.00    +0.000 C 
ATOM      5  C   UNL     1      -8.421   4.229 133.750  0.00  0.00    +0.000 C 
ATOM      6  C   UNL     1      -7.263   3.277 133.410  0.00  0.00    +0.000 C 
ENDROOT
BRANCH   4   7
ATOM      7  O   UNL     1      -9.438   6.378 133.189  0.00  0.00    +0.000 OA
ATOM      8  H   UNL     1      -9.327   6.934 133.978  0.00  0.00    +0.000 HD
ENDBRANCH   4   7
BRANCH   5   9
ATOM      9  O   UNL     1      -8.429   4.507 135.153  0.00  0.00    +0.000 OA
ATOM     10  H   UNL     1      -7.581   4.188 135.517  0.00  0.00    +0.000 HD
ENDBRANCH   5   9
BRANCH   6  11
ATOM     11  O   UNL     1      -7.470   1.992 133.998  0.00  0.00    +0.000 OA
ATOM     12  H   UNL     1      -6.643   1.487 133.941  0.00  0.00    +0.000 HD
ENDBRANCH   6  11
BRANCH   1  13
ATOM     13  O   UNL     1      -5.851   2.409 131.545  0.00  0.00    +0.000 OA
BRANCH  13  22
ATOM     14  C   UNL     1      -7.546  -2.354 128.111  0.00  0.00    +0.000 C 
ATOM     15  C   UNL     1      -6.820  -3.388 129.327  0.00  0.00    +0.000 C 
ATOM     16  C   UNL     1      -5.559  -2.612 129.336  0.00  0.00    +0.000 C 
ATOM     17  O   UNL     1      -4.748  -2.704 128.443  0.00  0.00    +0.000 OA
ATOM     18  C   UNL     1      -5.745  -1.406 130.111  0.00  0.00    +0.000 A 
ATOM     19  C   UNL     1      -6.554  -0.540 129.435  0.00  0.00    +0.000 A 
ATOM     20  O   UNL     1      -7.195  -0.943 128.316  0.00  0.00    +0.000 OA
ATOM     21  C   UNL     1      -6.650   0.766 129.881  0.00  0.00    +0.000 A 
ATOM     22  C   UNL     1      -6.004   1.131 131.070  0.00  0.00    +0.000 A 
ATOM     23  C   UNL     1      -5.434   0.132 131.874  0.00  0.00    +0.000 A 
ATOM     24  C   UNL     1      -5.341  -1.169 131.395  0.00  0.00    +0.000 A 
BRANCH  14  28
ATOM     25  C   UNL     1      -9.362  -1.299 124.062  0.00  0.00    +0.000 A 
ATOM     26  C   UNL     1      -8.742  -0.382 124.931  0.00  0.00    +0.000 A 
ATOM     27  C   UNL     1      -8.191  -0.720 126.197  0.00  0.00    +0.000 A 
ATOM     28  C   UNL     1      -8.246  -2.011 126.691  0.00  0.00    +0.000 A 
ATOM     29  C   UNL     1      -8.854  -2.992 125.758  0.00  0.00    +0.000 A 
ATOM     30  C   UNL     1      -9.399  -2.629 124.469  0.00  0.00    +0.000 A 
BRANCH  25  32
ATOM     31  C   UNL     1      -9.951   0.693 122.781  0.00  0.00    +0.000 C 
ATOM     32  O   UNL     1      -9.840  -0.727 122.906  0.00  0.00    +0.000 OA
ENDBRANCH  25  32
BRANCH  30  33
ATOM     33  O   UNL     1      -9.952  -3.535 123.595  0.00  0.00    +0.000 OA
ATOM     34  H   UNL     1     -10.117  -4.409 123.977  0.00  0.00    +0.000 HD
ENDBRANCH  30  33
ENDBRANCH  14  28
BRANCH  24  35
ATOM     35  O   UNL     1      -4.909  -2.212 132.151  0.00  0.00    +0.000 OA
ATOM     36  H   UNL     1      -4.384  -2.810 131.598  0.00  0.00    +0.000 HD
ENDBRANCH  24  35
ENDBRANCH  13  22
ENDBRANCH   1  13
BRANCH   3  37
ATOM     37  C   UNL     1      -7.850   6.515 130.842  0.00  0.00    +0.000 C 
BRANCH  37  38
ATOM     38  O   UNL     1      -8.891   7.174 130.154  0.00  0.00    +0.000 OA
BRANCH  38  39
ATOM     39  C   UNL     1      -9.762   6.218 129.510  0.00  0.00    +0.000 C 
ATOM     40  O   UNL     1     -10.041   6.474 128.109  0.00  0.00    +0.000 OA
ATOM     41  C   UNL     1     -10.898   7.582 127.809  0.00  0.00    +0.000 C 
ATOM     42  C   UNL     1     -10.927   7.818 126.314  0.00  0.00    +0.000 C 
ATOM     43  C   UNL     1     -12.204   7.565 128.601  0.00  0.00    +0.000 C 
ATOM     44  C   UNL     1     -11.982   7.241 130.107  0.00  0.00    +0.000 C 
ATOM     45  C   UNL     1     -11.076   6.019 130.296  0.00  0.00    +0.000 C 
BRANCH  43  46
ATOM     46  O   UNL     1     -12.854   8.834 128.458  0.00  0.00    +0.000 OA
ATOM     47  H   UNL     1     -12.474   9.453 129.109  0.00  0.00    +0.000 HD
ENDBRANCH  43  46
BRANCH  44  48
ATOM     48  O   UNL     1     -13.251   7.024 130.737  0.00  0.00    +0.000 OA
ATOM     49  H   UNL     1     -13.467   7.850 131.209  0.00  0.00    +0.000 HD
ENDBRANCH  44  48
BRANCH  45  50
ATOM     50  O   UNL     1     -11.797   4.854 129.846  0.00  0.00    +0.000 OA
ATOM     51  H   UNL     1     -12.706   4.911 130.191  0.00  0.00    +0.000 HD
ENDBRANCH  45  50
ENDBRANCH  38  39
ENDBRANCH  37  38
ENDBRANCH   3  37
TORSDOF 15
ENDMDL
MODEL 4
REMARK VINA RESULT:      -9.0      3.296      6.587
REMARK  Name = Hesperidin
REMARK  17 active torsions:
REMARK  status: ('A' for Active; 'I' for Inactive)
REMARK    1  A    between atoms: C_1  and  O_2
REMARK    2  A    between atoms: O_2  and  C_3
REMARK    3  A    between atoms: C_6  and  C_10
REMARK    4  A    between atoms: C_8  and  O_9
REMARK    5  A    between atoms: C_18  and  O_19
REMARK    6  A    between atoms: O_19  and  C_20
REMARK    7  A    between atoms: C_22  and  C_23
REMARK    8  A    between atoms: C_23  and  O_24
REMARK    9  A    between atoms: O_24  and  C_25
REMARK   10  A    between atoms: C_27  and  C_28
REMARK   11  A    between atoms: C_29  and  O_30
REMARK   12  A    between atoms: C_31  and  O_32
REMARK   13  A    between atoms: C_33  and  O_34
REMARK   14  A    between atoms: C_35  and  O_36
REMARK   15  A    between atoms: C_37  and  O_38
REMARK   16  A    between atoms: C_39  and  O_40
REMARK   17  A    between atoms: C_42  and  O_43
REMARK                            x       y       z     vdW  Elec       q    Type
REMARK                         _______ _______ _______ _____ _____    ______ ____
ROOT
ATOM      1  C   UNL     1      -8.242   3.060 132.704  0.00  0.00    +0.000 C 
ATOM      2  O   UNL     1      -7.221   3.571 131.876  0.00  0.00    +0.000 OA
ATOM      3  C   UNL     1      -7.667   4.599 131.016  0.00  0.00    +0.000 C 
ATOM      4  C   UNL     1      -8.251   5.804 131.696  0.00  0.00    +0.000 C 
ATOM      5  C   UNL     1      -9.412   5.337 132.554  0.00  0.00    +0.000 C 
ATOM      6  C   UNL     1      -8.994   4.178 133.472  0.00  0.00    +0.000 C 
ENDROOT
BRANCH   4   7
ATOM      7  O   UNL     1      -8.664   6.773 130.725  0.00  0.00    +0.000 OA
ATOM      8  H   UNL     1      -9.522   7.152 130.976  0.00  0.00    +0.000 HD
ENDBRANCH   4   7
BRANCH   5   9
ATOM      9  O   UNL     1      -9.860   6.445 133.340  0.00  0.00    +0.000 OA
ATOM     10  H   UNL     1     -10.832   6.487 133.255  0.00  0.00    +0.000 HD
ENDBRANCH   5   9
BRANCH   6  11
ATOM     11  O   UNL     1     -10.121   3.649 134.172  0.00  0.00    +0.000 OA
ATOM     12  H   UNL     1      -9.873   3.506 135.099  0.00  0.00    +0.000 HD
ENDBRANCH   6  11
BRANCH   1  13
ATOM     13  O   UNL     1      -7.697   2.048 133.565  0.00  0.00    +0.000 OA
BRANCH  13  22
ATOM     14  C   UNL     1      -7.183  -2.661 129.704  0.00  0.00    +0.000 C 
ATOM     15  C   UNL     1      -6.263  -3.481 130.950  0.00  0.00    +0.000 C 
ATOM     16  C   UNL     1      -5.377  -2.313 131.163  0.00  0.00    +0.000 C 
ATOM     17  O   UNL     1      -4.500  -2.028 130.380  0.00  0.00    +0.000 OA
ATOM     18  C   UNL     1      -6.067  -1.329 131.967  0.00  0.00    +0.000 A 
ATOM     19  C   UNL     1      -7.060  -0.747 131.236  0.00  0.00    +0.000 A 
ATOM     20  O   UNL     1      -7.392  -1.244 130.024  0.00  0.00    +0.000 OA
ATOM     21  C   UNL     1      -7.669   0.393 131.730  0.00  0.00    +0.000 A 
ATOM     22  C   UNL     1      -7.326   0.849 133.010  0.00  0.00    +0.000 A 
ATOM     23  C   UNL     1      -6.519   0.046 133.831  0.00  0.00    +0.000 A 
ATOM     24  C   UNL     1      -5.912  -1.087 133.303  0.00  0.00    +0.000 A 
BRANCH  14  28
ATOM     25  C   UNL     1      -9.107  -2.146 125.600  0.00  0.00    +0.000 A 
ATOM     26  C   UNL     1      -9.170  -3.316 126.379  0.00  0.00    +0.000 A 
ATOM     27  C   UNL     1      -8.555  -3.470 127.651  0.00  0.00    +0.000 A 
ATOM     28  C   UNL     1      -7.809  -2.456 128.223  0.00  0.00    +0.000 A 
ATOM     29  C   UNL     1      -7.779  -1.203 127.430  0.00  0.00    +0.000 A 
ATOM     30  C   UNL     1      -8.421  -1.064 126.142  0.00  0.00    +0.000 A 
BRANCH  25  32
ATOM     31  C   UNL     1      -9.517  -3.356 123.522  0.00  0.00    +0.000 C 
ATOM     32  O   UNL     1      -9.760  -2.250 124.394  0.00  0.00    +0.000 OA
ENDBRANCH  25  32
BRANCH  30  33
ATOM     33  O   UNL     1      -8.409   0.099 125.408  0.00  0.00    +0.000 OA
ATOM     34  H   UNL     1      -9.271   0.359 125.056  0.00  0.00    +0.000 HD
ENDBRANCH  30  33
ENDBRANCH  14  28
BRANCH  24  35
ATOM     35  O   UNL     1      -5.212  -1.975 134.056  0.00  0.00    +0.000 OA
ATOM     36  H   UNL     1      -5.010  -1.574 134.915  0.00  0.00    +0.000 HD
ENDBRANCH  24  35
ENDBRANCH  13  22
ENDBRANCH   1  13
BRANCH   3  37
ATOM     37  C   UNL     1      -6.466   5.039 130.265  0.00  0.00    +0.000 C 
BRANCH  37  38
ATOM     38  O   UNL     1      -6.503   5.205 128.864  0.00  0.00    +0.000 OA
BRANCH  38  39
ATOM     39  C   UNL     1      -6.667   3.930 128.204  0.00  0.00    +0.000 C 
ATOM     40  O   UNL     1      -5.520   3.469 127.445  0.00  0.00    +0.000 OA
ATOM     41  C   UNL     1      -5.230   4.158 126.223  0.00  0.00    +0.000 C 
ATOM     42  C   UNL     1      -3.907   3.678 125.665  0.00  0.00    +0.000 C 
ATOM     43  C   UNL     1      -6.441   4.286 125.301  0.00  0.00    +0.000 C 
ATOM     44  C   UNL     1      -7.725   4.726 126.065  0.00  0.00    +0.000 C 
ATOM     45  C   UNL     1      -7.942   3.895 127.334  0.00  0.00    +0.000 C 
BRANCH  43  46
ATOM     46  O   UNL     1      -6.139   5.223 124.260  0.00  0.00    +0.000 OA
ATOM     47  H   UNL     1      -6.451   6.105 124.535  0.00  0.00    +0.000 HD
ENDBRANCH  43  46
BRANCH  44  48
ATOM     48  O   UNL     1      -8.857   4.612 125.193  0.00  0.00    +0.000 OA
ATOM     49  H   UNL     1      -9.618   4.970 125.685  0.00  0.00    +0.000 HD
ENDBRANCH  44  48
BRANCH  45  50
ATOM     50  O   UNL     1      -8.280   2.551 126.936  0.00  0.00    +0.000 OA
ATOM     51  H   UNL     1      -8.777   2.601 126.100  0.00  0.00    +0.000 HD
ENDBRANCH  45  50
ENDBRANCH  38  39
ENDBRANCH  37  38
ENDBRANCH   3  37
TORSDOF 15
ENDMDL
MODEL 5
REMARK VINA RESULT:      -8.8      2.306      5.147
REMARK  Name = Hesperidin
REMARK  17 active torsions:
REMARK  status: ('A' for Active; 'I' for Inactive)
REMARK    1  A    between atoms: C_1  and  O_2
REMARK    2  A    between atoms: O_2  and  C_3
REMARK    3  A    between atoms: C_6  and  C_10
REMARK    4  A    between atoms: C_8  and  O_9
REMARK    5  A    between atoms: C_18  and  O_19
REMARK    6  A    between atoms: O_19  and  C_20
REMARK    7  A    between atoms: C_22  and  C_23
REMARK    8  A    between atoms: C_23  and  O_24
REMARK    9  A    between atoms: O_24  and  C_25
REMARK   10  A    between atoms: C_27  and  C_28
REMARK   11  A    between atoms: C_29  and  O_30
REMARK   12  A    between atoms: C_31  and  O_32
REMARK   13  A    between atoms: C_33  and  O_34
REMARK   14  A    between atoms: C_35  and  O_36
REMARK   15  A    between atoms: C_37  and  O_38
REMARK   16  A    between atoms: C_39  and  O_40
REMARK   17  A    between atoms: C_42  and  O_43
REMARK                            x       y       z     vdW  Elec       q    Type
REMARK                         _______ _______ _______ _____ _____    ______ ____
ROOT
ATOM      1  C   UNL     1      -8.317   2.456 130.803  0.00  0.00    +0.000 C 
ATOM      2  O   UNL     1      -7.093   3.155 130.756  0.00  0.00    +0.000 OA
ATOM      3  C   UNL     1      -7.254   4.558 130.719  0.00  0.00    +0.000 C 
ATOM      4  C   UNL     1      -7.994   5.154 131.883  0.00  0.00    +0.000 C 
ATOM      5  C   UNL     1      -9.360   4.498 131.952  0.00  0.00    +0.000 C 
ATOM      6  C   UNL     1      -9.244   2.966 131.937  0.00  0.00    +0.000 C 
ENDROOT
BRANCH   4   7
ATOM      7  O   UNL     1      -8.093   6.575 131.734  0.00  0.00    +0.000 OA
ATOM      8  H   UNL     1      -7.453   7.018 132.315  0.00  0.00    +0.000 HD
ENDBRANCH   4   7
BRANCH   5   9
ATOM      9  O   UNL     1     -10.001   4.928 133.156  0.00  0.00    +0.000 OA
ATOM     10  H   UNL     1      -9.311   5.003 133.842  0.00  0.00    +0.000 HD
ENDBRANCH   5   9
BRANCH   6  11
ATOM     11  O   UNL     1     -10.533   2.357 131.858  0.00  0.00    +0.000 OA
ATOM     12  H   UNL     1     -10.956   2.408 132.730  0.00  0.00    +0.000 HD
ENDBRANCH   6  11
BRANCH   1  13
ATOM     13  O   UNL     1      -8.060   1.045 130.871  0.00  0.00    +0.000 OA
BRANCH  13  22
ATOM     14  C   UNL     1      -7.613  -0.342 124.936  0.00  0.00    +0.000 C 
ATOM     15  C   UNL     1      -7.140  -1.956 125.430  0.00  0.00    +0.000 C 
ATOM     16  C   UNL     1      -6.122  -1.445 126.375  0.00  0.00    +0.000 C 
ATOM     17  O   UNL     1      -5.063  -1.002 125.993  0.00  0.00    +0.000 OA
ATOM     18  C   UNL     1      -6.774  -0.994 127.584  0.00  0.00    +0.000 A 
ATOM     19  C   UNL     1      -7.468   0.153 127.336  0.00  0.00    +0.000 A 
ATOM     20  O   UNL     1      -7.623   0.593 126.067  0.00  0.00    +0.000 OA
ATOM     21  C   UNL     1      -7.949   0.884 128.407  0.00  0.00    +0.000 A 
ATOM     22  C   UNL     1      -7.806   0.371 129.703  0.00  0.00    +0.000 A 
ATOM     23  C   UNL     1      -7.349  -0.945 129.872  0.00  0.00    +0.000 A 
ATOM     24  C   UNL     1      -6.862  -1.651 128.779  0.00  0.00    +0.000 A 
BRANCH  14  28
ATOM     25  C   UNL     1      -8.477   3.108 122.079  0.00  0.00    +0.000 A 
ATOM     26  C   UNL     1      -9.405   2.117 122.450  0.00  0.00    +0.000 A 
ATOM     27  C   UNL     1      -9.120   1.038 123.331  0.00  0.00    +0.000 A 
ATOM     28  C   UNL     1      -7.866   0.868 123.888  0.00  0.00    +0.000 A 
ATOM     29  C   UNL     1      -6.898   1.936 123.540  0.00  0.00    +0.000 A 
ATOM     30  C   UNL     1      -7.211   3.032 122.650  0.00  0.00    +0.000 A 
BRANCH  25  32
ATOM     31  C   UNL     1      -8.668   3.961 119.801  0.00  0.00    +0.000 C 
ATOM     32  O   UNL     1      -8.982   4.032 121.194  0.00  0.00    +0.000 OA
ENDBRANCH  25  32
BRANCH  30  33
ATOM     33  O   UNL     1      -6.322   4.033 122.334  0.00  0.00    +0.000 OA
ATOM     34  H   UNL     1      -6.481   4.453 121.477  0.00  0.00    +0.000 HD
ENDBRANCH  30  33
ENDBRANCH  14  28
BRANCH  24  35
ATOM     35  O   UNL     1      -6.509  -2.962 128.836  0.00  0.00    +0.000 OA
ATOM     36  H   UNL     1      -7.309  -3.508 128.793  0.00  0.00    +0.000 HD
ENDBRANCH  24  35
ENDBRANCH  13  22
ENDBRANCH   1  13
BRANCH   3  37
ATOM     37  C   UNL     1      -5.881   5.118 130.719  0.00  0.00    +0.000 C 
BRANCH  37  38
ATOM     38  O   UNL     1      -4.799   4.392 130.177  0.00  0.00    +0.000 OA
BRANCH  38  39
ATOM     39  C   UNL     1      -4.276   5.055 129.004  0.00  0.00    +0.000 C 
ATOM     40  O   UNL     1      -5.212   5.209 127.907  0.00  0.00    +0.000 OA
ATOM     41  C   UNL     1      -5.564   4.025 127.181  0.00  0.00    +0.000 C 
ATOM     42  C   UNL     1      -6.680   4.334 126.207  0.00  0.00    +0.000 C 
ATOM     43  C   UNL     1      -4.352   3.219 126.718  0.00  0.00    +0.000 C 
ATOM     44  C   UNL     1      -3.280   3.062 127.835  0.00  0.00    +0.000 C 
ATOM     45  C   UNL     1      -2.966   4.400 128.512  0.00  0.00    +0.000 C 
BRANCH  43  46
ATOM     46  O   UNL     1      -4.791   1.932 126.267  0.00  0.00    +0.000 OA
ATOM     47  H   UNL     1      -4.571   1.272 126.951  0.00  0.00    +0.000 HD
ENDBRANCH  43  46
BRANCH  44  48
ATOM     48  O   UNL     1      -2.089   2.496 127.273  0.00  0.00    +0.000 OA
ATOM     49  H   UNL     1      -1.509   3.247 127.049  0.00  0.00    +0.000 HD
ENDBRANCH  44  48
BRANCH  45  50
ATOM     50  O   UNL     1      -2.279   5.234 127.558  0.00  0.00    +0.000 OA
ATOM     51  H   UNL     1      -2.750   6.086 127.509  0.00  0.00    +0.000 HD
ENDBRANCH  45  50
ENDBRANCH  38  39
ENDBRANCH  37  38
ENDBRANCH   3  37
TORSDOF 15
ENDMDL
MODEL 6
REMARK VINA RESULT:      -8.7      3.417      8.446
REMARK  Name = Hesperidin
REMARK  17 active torsions:
REMARK  status: ('A' for Active; 'I' for Inactive)
REMARK    1  A    between atoms: C_1  and  O_2
REMARK    2  A    between atoms: O_2  and  C_3
REMARK    3  A    between atoms: C_6  and  C_10
REMARK    4  A    between atoms: C_8  and  O_9
REMARK    5  A    between atoms: C_18  and  O_19
REMARK    6  A    between atoms: O_19  and  C_20
REMARK    7  A    between atoms: C_22  and  C_23
REMARK    8  A    between atoms: C_23  and  O_24
REMARK    9  A    between atoms: O_24  and  C_25
REMARK   10  A    between atoms: C_27  and  C_28
REMARK   11  A    between atoms: C_29  and  O_30
REMARK   12  A    between atoms: C_31  and  O_32
REMARK   13  A    between atoms: C_33  and  O_34
REMARK   14  A    between atoms: C_35  and  O_36
REMARK   15  A    between atoms: C_37  and  O_38
REMARK   16  A    between atoms: C_39  and  O_40
REMARK   17  A    between atoms: C_42  and  O_43
REMARK                            x       y       z     vdW  Elec       q    Type
REMARK                         _______ _______ _______ _____ _____    ______ ____
ROOT
ATOM      1  C   UNL     1      -8.004  -2.610 126.709  0.00  0.00    +0.000 C 
ATOM      2  O   UNL     1      -6.914  -1.738 126.913  0.00  0.00    +0.000 OA
ATOM      3  C   UNL     1      -6.431  -1.163 125.717  0.00  0.00    +0.000 C 
ATOM      4  C   UNL     1      -7.429  -0.356 124.938  0.00  0.00    +0.000 C 
ATOM      5  C   UNL     1      -8.606  -1.257 124.615  0.00  0.00    +0.000 C 
ATOM      6  C   UNL     1      -9.137  -1.954 125.878  0.00  0.00    +0.000 C 
ENDROOT
BRANCH   4   7
ATOM      7  O   UNL     1      -6.824   0.174 123.752  0.00  0.00    +0.000 OA
ATOM      8  H   UNL     1      -7.331   0.938 123.431  0.00  0.00    +0.000 HD
ENDBRANCH   4   7
BRANCH   5   9
ATOM      9  O   UNL     1      -9.636  -0.455 124.030  0.00  0.00    +0.000 OA
ATOM     10  H   UNL     1     -10.046   0.061 124.750  0.00  0.00    +0.000 HD
ENDBRANCH   5   9
BRANCH   6  11
ATOM     11  O   UNL     1     -10.148  -2.907 125.549  0.00  0.00    +0.000 OA
ATOM     12  H   UNL     1     -10.843  -2.870 126.225  0.00  0.00    +0.000 HD
ENDBRANCH   6  11
BRANCH   1  13
ATOM     13  O   UNL     1      -8.451  -3.121 127.974  0.00  0.00    +0.000 OA
BRANCH  13  22
ATOM     14  C   UNL     1      -6.442   0.513 132.458  0.00  0.00    +0.000 C 
ATOM     15  C   UNL     1      -5.526  -0.858 133.052  0.00  0.00    +0.000 C 
ATOM     16  C   UNL     1      -6.702  -1.756 132.999  0.00  0.00    +0.000 C 
ATOM     17  O   UNL     1      -7.587  -1.697 133.822  0.00  0.00    +0.000 OA
ATOM     18  C   UNL     1      -6.923  -2.175 131.633  0.00  0.00    +0.000 A 
ATOM     19  C   UNL     1      -7.389  -1.127 130.896  0.00  0.00    +0.000 A 
ATOM     20  O   UNL     1      -7.401   0.119 131.420  0.00  0.00    +0.000 OA
ATOM     21  C   UNL     1      -7.904  -1.376 129.637  0.00  0.00    +0.000 A 
ATOM     22  C   UNL     1      -7.832  -2.675 129.114  0.00  0.00    +0.000 A 
ATOM     23  C   UNL     1      -7.080  -3.646 129.794  0.00  0.00    +0.000 A 
ATOM     24  C   UNL     1      -6.584  -3.370 131.062  0.00  0.00    +0.000 A 
BRANCH  14  28
ATOM     25  C   UNL     1      -8.165   4.736 132.404  0.00  0.00    +0.000 A 
ATOM     26  C   UNL     1      -7.034   4.318 131.679  0.00  0.00    +0.000 A 
ATOM     27  C   UNL     1      -6.497   3.002 131.714  0.00  0.00    +0.000 A 
ATOM     28  C   UNL     1      -7.053   2.013 132.504  0.00  0.00    +0.000 A 
ATOM     29  C   UNL     1      -8.275   2.434 133.233  0.00  0.00    +0.000 A 
ATOM     30  C   UNL     1      -8.811   3.776 133.175  0.00  0.00    +0.000 A 
BRANCH  25  32
ATOM     31  C   UNL     1      -9.341   6.481 131.169  0.00  0.00    +0.000 C 
ATOM     32  O   UNL     1      -8.473   6.065 132.225  0.00  0.00    +0.000 OA
ENDBRANCH  25  32
BRANCH  30  33
ATOM     33  O   UNL     1      -9.950   4.169 133.837  0.00  0.00    +0.000 OA
ATOM     34  H   UNL     1      -9.924   4.029 134.794  0.00  0.00    +0.000 HD
ENDBRANCH  30  33
ENDBRANCH  14  28
BRANCH  24  35
ATOM     35  O   UNL     1      -5.755  -4.209 131.736  0.00  0.00    +0.000 OA
ATOM     36  H   UNL     1      -6.272  -4.948 132.092  0.00  0.00    +0.000 HD
ENDBRANCH  24  35
ENDBRANCH  13  22
ENDBRANCH   1  13
BRANCH   3  37
ATOM     37  C   UNL     1      -5.333  -0.254 126.127  0.00  0.00    +0.000 C 
BRANCH  37  38
ATOM     38  O   UNL     1      -5.515   1.145 126.148  0.00  0.00    +0.000 OA
BRANCH  38  39
ATOM     39  C   UNL     1      -5.328   1.665 127.483  0.00  0.00    +0.000 C 
ATOM     40  O   UNL     1      -6.494   1.604 128.344  0.00  0.00    +0.000 OA
ATOM     41  C   UNL     1      -7.565   2.510 128.053  0.00  0.00    +0.000 C 
ATOM     42  C   UNL     1      -8.762   2.182 128.919  0.00  0.00    +0.000 C 
ATOM     43  C   UNL     1      -7.106   3.959 127.906  0.00  0.00    +0.000 C 
ATOM     44  C   UNL     1      -5.823   4.091 127.035  0.00  0.00    +0.000 C 
ATOM     45  C   UNL     1      -4.741   3.093 127.465  0.00  0.00    +0.000 C 
BRANCH  43  46
ATOM     46  O   UNL     1      -8.171   4.731 127.339  0.00  0.00    +0.000 OA
ATOM     47  H   UNL     1      -8.054   5.663 127.603  0.00  0.00    +0.000 HD
ENDBRANCH  43  46
BRANCH  44  48
ATOM     48  O   UNL     1      -5.327   5.433 127.123  0.00  0.00    +0.000 OA
ATOM     49  H   UNL     1      -5.824   5.861 127.845  0.00  0.00    +0.000 HD
ENDBRANCH  44  48
BRANCH  45  50
ATOM     50  O   UNL     1      -4.259   3.489 128.765  0.00  0.00    +0.000 OA
ATOM     51  H   UNL     1      -4.596   4.383 128.952  0.00  0.00    +0.000 HD
ENDBRANCH  45  50
ENDBRANCH  38  39
ENDBRANCH  37  38
ENDBRANCH   3  37
TORSDOF 15
ENDMDL
MODEL 7
REMARK VINA RESULT:      -8.7      3.148      6.859
REMARK  Name = Hesperidin
REMARK  17 active torsions:
REMARK  status: ('A' for Active; 'I' for Inactive)
REMARK    1  A    between atoms: C_1  and  O_2
REMARK    2  A    between atoms: O_2  and  C_3
REMARK    3  A    between atoms: C_6  and  C_10
REMARK    4  A    between atoms: C_8  and  O_9
REMARK    5  A    between atoms: C_18  and  O_19
REMARK    6  A    between atoms: O_19  and  C_20
REMARK    7  A    between atoms: C_22  and  C_23
REMARK    8  A    between atoms: C_23  and  O_24
REMARK    9  A    between atoms: O_24  and  C_25
REMARK   10  A    between atoms: C_27  and  C_28
REMARK   11  A    between atoms: C_29  and  O_30
REMARK   12  A    between atoms: C_31  and  O_32
REMARK   13  A    between atoms: C_33  and  O_34
REMARK   14  A    between atoms: C_35  and  O_36
REMARK   15  A    between atoms: C_37  and  O_38
REMARK   16  A    between atoms: C_39  and  O_40
REMARK   17  A    between atoms: C_42  and  O_43
REMARK                            x       y       z     vdW  Elec       q    Type
REMARK                         _______ _______ _______ _____ _____    ______ ____
ROOT
ATOM      1  C   UNL     1      -8.269   2.961 132.525  0.00  0.00    +0.000 C 
ATOM      2  O   UNL     1      -7.208   3.369 131.690  0.00  0.00    +0.000 OA
ATOM      3  C   UNL     1      -7.551   4.444 130.841  0.00  0.00    +0.000 C 
ATOM      4  C   UNL     1      -8.000   5.699 131.535  0.00  0.00    +0.000 C 
ATOM      5  C   UNL     1      -9.195   5.349 132.401  0.00  0.00    +0.000 C 
ATOM      6  C   UNL     1      -8.893   4.146 133.307  0.00  0.00    +0.000 C 
ENDROOT
BRANCH   4   7
ATOM      7  O   UNL     1      -8.318   6.712 130.574  0.00  0.00    +0.000 OA
ATOM      8  H   UNL     1      -7.897   7.552 130.822  0.00  0.00    +0.000 HD
ENDBRANCH   4   7
BRANCH   5   9
ATOM      9  O   UNL     1      -9.518   6.492 133.198  0.00  0.00    +0.000 OA
ATOM     10  H   UNL     1      -8.860   6.541 133.917  0.00  0.00    +0.000 HD
ENDBRANCH   5   9
BRANCH   6  11
ATOM     11  O   UNL     1     -10.063   3.732 134.015  0.00  0.00    +0.000 OA
ATOM     12  H   UNL     1     -10.571   3.128 133.451  0.00  0.00    +0.000 HD
ENDBRANCH   6  11
BRANCH   1  13
ATOM     13  O   UNL     1      -7.825   1.891 133.374  0.00  0.00    +0.000 OA
BRANCH  13  22
ATOM     14  C   UNL     1      -6.606  -2.669 129.492  0.00  0.00    +0.000 C 
ATOM     15  C   UNL     1      -5.424  -3.237 130.654  0.00  0.00    +0.000 C 
ATOM     16  C   UNL     1      -4.806  -1.898 130.786  0.00  0.00    +0.000 C 
ATOM     17  O   UNL     1      -4.084  -1.442 129.929  0.00  0.00    +0.000 OA
ATOM     18  C   UNL     1      -5.626  -1.074 131.645  0.00  0.00    +0.000 A 
ATOM     19  C   UNL     1      -6.783  -0.742 131.003  0.00  0.00    +0.000 A 
ATOM     20  O   UNL     1      -7.098  -1.326 129.826  0.00  0.00    +0.000 OA
ATOM     21  C   UNL     1      -7.586   0.244 131.547  0.00  0.00    +0.000 A 
ATOM     22  C   UNL     1      -7.246   0.793 132.791  0.00  0.00    +0.000 A 
ATOM     23  C   UNL     1      -6.213   0.206 133.539  0.00  0.00    +0.000 A 
ATOM     24  C   UNL     1      -5.416  -0.775 132.962  0.00  0.00    +0.000 A 
BRANCH  14  28
ATOM     25  C   UNL     1      -8.960  -2.566 125.586  0.00  0.00    +0.000 A 
ATOM     26  C   UNL     1      -9.259  -3.392 126.686  0.00  0.00    +0.000 A 
ATOM     27  C   UNL     1      -8.510  -3.425 127.893  0.00  0.00    +0.000 A 
ATOM     28  C   UNL     1      -7.386  -2.639 128.072  0.00  0.00    +0.000 A 
ATOM     29  C   UNL     1      -7.094  -1.731 126.935  0.00  0.00    +0.000 A 
ATOM     30  C   UNL     1      -7.876  -1.705 125.719  0.00  0.00    +0.000 A 
BRANCH  25  32
ATOM     31  C   UNL     1      -9.382  -3.385 123.326  0.00  0.00    +0.000 C 
ATOM     32  O   UNL     1      -9.816  -2.734 124.522  0.00  0.00    +0.000 OA
ENDBRANCH  25  32
BRANCH  30  33
ATOM     33  O   UNL     1      -7.619  -0.856 124.668  0.00  0.00    +0.000 OA
ATOM     34  H   UNL     1      -8.395  -0.383 124.338  0.00  0.00    +0.000 HD
ENDBRANCH  30  33
ENDBRANCH  14  28
BRANCH  24  35
ATOM     35  O   UNL     1      -4.474  -1.470 133.652  0.00  0.00    +0.000 OA
ATOM     36  H   UNL     1      -3.597  -1.250 133.303  0.00  0.00    +0.000 HD
ENDBRANCH  24  35
ENDBRANCH  13  22
ENDBRANCH   1  13
BRANCH   3  37
ATOM     37  C   UNL     1      -6.317   4.762 130.081  0.00  0.00    +0.000 C 
BRANCH  37  38
ATOM     38  O   UNL     1      -6.334   4.861 128.674  0.00  0.00    +0.000 OA
BRANCH  38  39
ATOM     39  C   UNL     1      -5.024   4.591 128.128  0.00  0.00    +0.000 C 
ATOM     40  O   UNL     1      -4.899   4.765 126.693  0.00  0.00    +0.000 OA
ATOM     41  C   UNL     1      -5.537   3.788 125.862  0.00  0.00    +0.000 C 
ATOM     42  C   UNL     1      -5.468   4.223 124.414  0.00  0.00    +0.000 C 
ATOM     43  C   UNL     1      -5.183   2.351 126.241  0.00  0.00    +0.000 C 
ATOM     44  C   UNL     1      -5.244   2.110 127.778  0.00  0.00    +0.000 C 
ATOM     45  C   UNL     1      -4.500   3.202 128.553  0.00  0.00    +0.000 C 
BRANCH  43  46
ATOM     46  O   UNL     1      -6.074   1.456 125.563  0.00  0.00    +0.000 OA
ATOM     47  H   UNL     1      -5.550   0.890 124.967  0.00  0.00    +0.000 HD
ENDBRANCH  43  46
BRANCH  44  48
ATOM     48  O   UNL     1      -4.692   0.821 128.077  0.00  0.00    +0.000 OA
ATOM     49  H   UNL     1      -5.199   0.476 128.835  0.00  0.00    +0.000 HD
ENDBRANCH  44  48
BRANCH  45  50
ATOM     50  O   UNL     1      -3.090   3.058 128.287  0.00  0.00    +0.000 OA
ATOM     51  H   UNL     1      -2.611   3.686 128.856  0.00  0.00    +0.000 HD
ENDBRANCH  45  50
ENDBRANCH  38  39
ENDBRANCH  37  38
ENDBRANCH   3  37
TORSDOF 15
ENDMDL
MODEL 8
REMARK VINA RESULT:      -8.6      2.753      4.591
REMARK  Name = Hesperidin
REMARK  17 active torsions:
REMARK  status: ('A' for Active; 'I' for Inactive)
REMARK    1  A    between atoms: C_1  and  O_2
REMARK    2  A    between atoms: O_2  and  C_3
REMARK    3  A    between atoms: C_6  and  C_10
REMARK    4  A    between atoms: C_8  and  O_9
REMARK    5  A    between atoms: C_18  and  O_19
REMARK    6  A    between atoms: O_19  and  C_20
REMARK    7  A    between atoms: C_22  and  C_23
REMARK    8  A    between atoms: C_23  and  O_24
REMARK    9  A    between atoms: O_24  and  C_25
REMARK   10  A    between atoms: C_27  and  C_28
REMARK   11  A    between atoms: C_29  and  O_30
REMARK   12  A    between atoms: C_31  and  O_32
REMARK   13  A    between atoms: C_33  and  O_34
REMARK   14  A    between atoms: C_35  and  O_36
REMARK   15  A    between atoms: C_37  and  O_38
REMARK   16  A    between atoms: C_39  and  O_40
REMARK   17  A    between atoms: C_42  and  O_43
REMARK                            x       y       z     vdW  Elec       q    Type
REMARK                         _______ _______ _______ _____ _____    ______ ____
ROOT
ATOM      1  C   UNL     1      -3.256   5.046 128.272  0.00  0.00    +0.000 C 
ATOM      2  O   UNL     1      -4.402   4.512 128.898  0.00  0.00    +0.000 OA
ATOM      3  C   UNL     1      -4.586   4.984 130.216  0.00  0.00    +0.000 C 
ATOM      4  C   UNL     1      -4.729   6.473 130.356  0.00  0.00    +0.000 C 
ATOM      5  C   UNL     1      -3.488   7.117 129.766  0.00  0.00    +0.000 C 
ATOM      6  C   UNL     1      -3.210   6.594 128.348  0.00  0.00    +0.000 C 
ENDROOT
BRANCH   4   7
ATOM      7  O   UNL     1      -4.910   6.829 131.732  0.00  0.00    +0.000 OA
ATOM      8  H   UNL     1      -5.818   7.139 131.880  0.00  0.00    +0.000 HD
ENDBRANCH   4   7
BRANCH   5   9
ATOM      9  O   UNL     1      -3.693   8.532 129.733  0.00  0.00    +0.000 OA
ATOM     10  H   UNL     1      -3.712   8.845 130.658  0.00  0.00    +0.000 HD
ENDBRANCH   5   9
BRANCH   6  11
ATOM     11  O   UNL     1      -1.966   7.093 127.854  0.00  0.00    +0.000 OA
ATOM     12  H   UNL     1      -1.309   6.380 127.887  0.00  0.00    +0.000 HD
ENDBRANCH   6  11
BRANCH   1  13
ATOM     13  O   UNL     1      -3.165   4.540 126.931  0.00  0.00    +0.000 OA
BRANCH  13  22
ATOM     14  C   UNL     1      -7.331   1.053 124.132  0.00  0.00    +0.000 C 
ATOM     15  C   UNL     1      -8.281   2.509 123.903  0.00  0.00    +0.000 C 
ATOM     16  C   UNL     1      -8.155   2.899 125.326  0.00  0.00    +0.000 C 
ATOM     17  O   UNL     1      -8.789   2.346 126.197  0.00  0.00    +0.000 OA
ATOM     18  C   UNL     1      -6.852   3.482 125.550  0.00  0.00    +0.000 A 
ATOM     19  C   UNL     1      -5.893   2.515 125.481  0.00  0.00    +0.000 A 
ATOM     20  O   UNL     1      -6.211   1.273 125.054  0.00  0.00    +0.000 OA
ATOM     21  C   UNL     1      -4.614   2.814 125.917  0.00  0.00    +0.000 A 
ATOM     22  C   UNL     1      -4.316   4.126 126.310  0.00  0.00    +0.000 A 
ATOM     23  C   UNL     1      -5.259   5.141 126.081  0.00  0.00    +0.000 A 
ATOM     24  C   UNL     1      -6.538   4.809 125.654  0.00  0.00    +0.000 A 
BRANCH  14  28
ATOM     25  C   UNL     1      -6.409  -3.414 124.197  0.00  0.00    +0.000 A 
ATOM     26  C   UNL     1      -5.448  -2.390 124.296  0.00  0.00    +0.000 A 
ATOM     27  C   UNL     1      -5.746  -1.001 124.261  0.00  0.00    +0.000 A 
ATOM     28  C   UNL     1      -7.040  -0.540 124.101  0.00  0.00    +0.000 A 
ATOM     29  C   UNL     1      -8.063  -1.613 124.045  0.00  0.00    +0.000 A 
ATOM     30  C   UNL     1      -7.739  -3.022 124.094  0.00  0.00    +0.000 A 
BRANCH  25  32
ATOM     31  C   UNL     1      -4.584  -4.945 123.667  0.00  0.00    +0.000 C 
ATOM     32  O   UNL     1      -5.871  -4.680 124.230  0.00  0.00    +0.000 OA
ENDBRANCH  25  32
BRANCH  30  33
ATOM     33  O   UNL     1      -8.684  -4.021 124.056  0.00  0.00    +0.000 OA
ATOM     34  H   UNL     1      -8.874  -4.357 123.170  0.00  0.00    +0.000 HD
ENDBRANCH  30  33
ENDBRANCH  14  28
BRANCH  24  35
ATOM     35  O   UNL     1      -7.469   5.734 125.301  0.00  0.00    +0.000 OA
ATOM     36  H   UNL     1      -7.634   5.671 124.348  0.00  0.00    +0.000 HD
ENDBRANCH  24  35
ENDBRANCH  13  22
ENDBRANCH   1  13
BRANCH   3  37
ATOM     37  C   UNL     1      -5.845   4.361 130.692  0.00  0.00    +0.000 C 
BRANCH  37  38
ATOM     38  O   UNL     1      -6.878   5.142 131.253  0.00  0.00    +0.000 OA
BRANCH  38  39
ATOM     39  C   UNL     1      -7.792   5.592 130.228  0.00  0.00    +0.000 C 
ATOM     40  O   UNL     1      -9.020   6.195 130.710  0.00  0.00    +0.000 OA
ATOM     41  C   UNL     1      -9.986   5.316 131.301  0.00  0.00    +0.000 C 
ATOM     42  C   UNL     1     -11.108   6.127 131.914  0.00  0.00    +0.000 C 
ATOM     43  C   UNL     1     -10.311   4.105 130.431  0.00  0.00    +0.000 C 
ATOM     44  C   UNL     1      -9.035   3.441 129.834  0.00  0.00    +0.000 C 
ATOM     45  C   UNL     1      -8.099   4.478 129.204  0.00  0.00    +0.000 C 
BRANCH  43  46
ATOM     46  O   UNL     1     -11.047   3.153 131.210  0.00  0.00    +0.000 OA
ATOM     47  H   UNL     1     -10.598   2.290 131.149  0.00  0.00    +0.000 HD
ENDBRANCH  43  46
BRANCH  44  48
ATOM     48  O   UNL     1      -9.422   2.461 128.862  0.00  0.00    +0.000 OA
ATOM     49  H   UNL     1      -8.870   2.624 128.075  0.00  0.00    +0.000 HD
ENDBRANCH  44  48
BRANCH  45  50
ATOM     50  O   UNL     1      -8.741   5.001 128.023  0.00  0.00    +0.000 OA
ATOM     51  H   UNL     1      -8.049   5.186 127.363  0.00  0.00    +0.000 HD
ENDBRANCH  45  50
ENDBRANCH  38  39
ENDBRANCH  37  38
ENDBRANCH   3  37
TORSDOF 15
ENDMDL
MODEL 9
REMARK VINA RESULT:      -8.6      3.287      6.545
REMARK  Name = Hesperidin
REMARK  17 active torsions:
REMARK  status: ('A' for Active; 'I' for Inactive)
REMARK    1  A    between atoms: C_1  and  O_2
REMARK    2  A    between atoms: O_2  and  C_3
REMARK    3  A    between atoms: C_6  and  C_10
REMARK    4  A    between atoms: C_8  and  O_9
REMARK    5  A    between atoms: C_18  and  O_19
REMARK    6  A    between atoms: O_19  and  C_20
REMARK    7  A    between atoms: C_22  and  C_23
REMARK    8  A    between atoms: C_23  and  O_24
REMARK    9  A    between atoms: O_24  and  C_25
REMARK   10  A    between atoms: C_27  and  C_28
REMARK   11  A    between atoms: C_29  and  O_30
REMARK   12  A    between atoms: C_31  and  O_32
REMARK   13  A    between atoms: C_33  and  O_34
REMARK   14  A    between atoms: C_35  and  O_36
REMARK   15  A    between atoms: C_37  and  O_38
REMARK   16  A    between atoms: C_39  and  O_40
REMARK   17  A    between atoms: C_42  and  O_43
REMARK                            x       y       z     vdW  Elec       q    Type
REMARK                         _______ _______ _______ _____ _____    ______ ____
ROOT
ATOM      1  C   UNL     1      -7.915   2.785 132.452  0.00  0.00    +0.000 C 
ATOM      2  O   UNL     1      -6.687   3.323 132.015  0.00  0.00    +0.000 OA
ATOM      3  C   UNL     1      -6.832   4.540 131.313  0.00  0.00    +0.000 C 
ATOM      4  C   UNL     1      -7.491   5.653 132.077  0.00  0.00    +0.000 C 
ATOM      5  C   UNL     1      -8.858   5.168 132.519  0.00  0.00    +0.000 C 
ATOM      6  C   UNL     1      -8.763   3.815 133.241  0.00  0.00    +0.000 C 
ENDROOT
BRANCH   4   7
ATOM      7  O   UNL     1      -7.580   6.830 131.265  0.00  0.00    +0.000 OA
ATOM      8  H   UNL     1      -8.444   6.864 130.820  0.00  0.00    +0.000 HD
ENDBRANCH   4   7
BRANCH   5   9
ATOM      9  O   UNL     1      -9.419   6.151 133.394  0.00  0.00    +0.000 OA
ATOM     10  H   UNL     1      -9.181   5.897 134.307  0.00  0.00    +0.000 HD
ENDBRANCH   5   9
BRANCH   6  11
ATOM     11  O   UNL     1     -10.063   3.297 133.528  0.00  0.00    +0.000 OA
ATOM     12  H   UNL     1     -10.695   4.032 133.543  0.00  0.00    +0.000 HD
ENDBRANCH   6  11
BRANCH   1  13
ATOM     13  O   UNL     1      -7.673   1.572 133.181  0.00  0.00    +0.000 OA
BRANCH  13  22
ATOM     14  C   UNL     1      -7.651  -2.609 128.723  0.00  0.00    +0.000 C 
ATOM     15  C   UNL     1      -6.875  -3.699 129.857  0.00  0.00    +0.000 C 
ATOM     16  C   UNL     1      -5.856  -2.693 130.234  0.00  0.00    +0.000 C 
ATOM     17  O   UNL     1      -4.928  -2.421 129.507  0.00  0.00    +0.000 OA
ATOM     18  C   UNL     1      -6.438  -1.745 131.157  0.00  0.00    +0.000 A 
ATOM     19  C   UNL     1      -7.329  -0.948 130.501  0.00  0.00    +0.000 A 
ATOM     20  O   UNL     1      -7.688  -1.232 129.230  0.00  0.00    +0.000 OA
ATOM     21  C   UNL     1      -7.803   0.185 131.139  0.00  0.00    +0.000 A 
ATOM     22  C   UNL     1      -7.441   0.420 132.473  0.00  0.00    +0.000 A 
ATOM     23  C   UNL     1      -6.764  -0.582 133.185  0.00  0.00    +0.000 A 
ATOM     24  C   UNL     1      -6.290  -1.704 132.515  0.00  0.00    +0.000 A 
BRANCH  14  28
ATOM     25  C   UNL     1      -9.043  -1.195 124.616  0.00  0.00    +0.000 A 
ATOM     26  C   UNL     1      -8.359  -0.399 125.554  0.00  0.00    +0.000 A 
ATOM     27  C   UNL     1      -7.942  -0.847 126.837  0.00  0.00    +0.000 A 
ATOM     28  C   UNL     1      -8.205  -2.131 127.278  0.00  0.00    +0.000 A 
ATOM     29  C   UNL     1      -8.882  -2.990 126.276  0.00  0.00    +0.000 A 
ATOM     30  C   UNL     1      -9.288  -2.517 124.971  0.00  0.00    +0.000 A 
BRANCH  25  32
ATOM     31  C   UNL     1      -9.785   0.837 123.487  0.00  0.00    +0.000 C 
ATOM     32  O   UNL     1      -9.363  -0.528 123.456  0.00  0.00    +0.000 OA
ENDBRANCH  25  32
BRANCH  30  33
ATOM     33  O   UNL     1      -9.904  -3.312 124.033  0.00  0.00    +0.000 OA
ATOM     34  H   UNL     1     -10.851  -3.145 123.927  0.00  0.00    +0.000 HD
ENDBRANCH  30  33
ENDBRANCH  14  28
BRANCH  24  35
ATOM     35  O   UNL     1      -5.728  -2.767 133.148  0.00  0.00    +0.000 OA
ATOM     36  H   UNL     1      -4.772  -2.626 133.218  0.00  0.00    +0.000 HD
ENDBRANCH  24  35
ENDBRANCH  13  22
ENDBRANCH   1  13
BRANCH   3  37
ATOM     37  C   UNL     1      -5.454   4.974 130.976  0.00  0.00    +0.000 C 
BRANCH  37  38
ATOM     38  O   UNL     1      -4.616   4.175 130.170  0.00  0.00    +0.000 OA
BRANCH  38  39
ATOM     39  C   UNL     1      -4.132   4.927 129.035  0.00  0.00    +0.000 C 
ATOM     40  O   UNL     1      -5.101   5.156 127.980  0.00  0.00    +0.000 OA
ATOM     41  C   UNL     1      -5.469   4.026 127.179  0.00  0.00    +0.000 C 
ATOM     42  C   UNL     1      -6.616   4.399 126.264  0.00  0.00    +0.000 C 
ATOM     43  C   UNL     1      -4.268   3.267 126.621  0.00  0.00    +0.000 C 
ATOM     44  C   UNL     1      -3.161   3.034 127.691  0.00  0.00    +0.000 C 
ATOM     45  C   UNL     1      -2.835   4.321 128.457  0.00  0.00    +0.000 C 
BRANCH  43  46
ATOM     46  O   UNL     1      -4.713   2.013 126.089  0.00  0.00    +0.000 OA
ATOM     47  H   UNL     1      -4.452   1.304 126.705  0.00  0.00    +0.000 HD
ENDBRANCH  43  46
BRANCH  44  48
ATOM     48  O   UNL     1      -1.985   2.521 127.053  0.00  0.00    +0.000 OA
ATOM     49  H   UNL     1      -2.243   2.308 126.137  0.00  0.00    +0.000 HD
ENDBRANCH  44  48
BRANCH  45  50
ATOM     50  O   UNL     1      -2.181   5.229 127.547  0.00  0.00    +0.000 OA
ATOM     51  H   UNL     1      -1.604   5.815 128.070  0.00  0.00    +0.000 HD
ENDBRANCH  45  50
ENDBRANCH  38  39
ENDBRANCH  37  38
ENDBRANCH   3  37
TORSDOF 15
ENDMDL
