MODEL 1
REMARK VINA RESULT:      -9.0      0.000      0.000
REMARK  Name = Hetacillin
REMARK  8 active torsions:
REMARK  status: ('A' for Active; 'I' for Inactive)
REMARK    1  A    between atoms: C_4  and  C_5
REMARK    2  A    between atoms: C_4  and  C_6
REMARK    3  A    between atoms: CA_7  and  C_26
REMARK    4  A    between atoms: CA_11  and  N_12
REMARK    5  A    between atoms: CA_15  and  C_20
REMARK    6  A    between atoms: C_17  and  C_18
REMARK    7  A    between atoms: C_17  and  C_19
REMARK    8  A    between atoms: C_26  and  O_27
REMARK                            x       y       z     vdW  Elec       q    Type
REMARK                         _______ _______ _______ _____ _____    ______ ____
ROOT
ATOM      1  N   UNL     1      -8.091   2.024 123.735  0.00  0.00    +0.000 N 
ATOM      2  C   UNL     1      -8.185   2.568 122.443  0.00  0.00    +0.000 C 
ATOM      3  O   UNL     1      -9.179   2.689 121.749  0.00  0.00    +0.000 OA
ATOM      4  CA  UNL     1      -6.732   2.794 122.073  0.00  0.00    +0.000 C 
ATOM      5  N   UNL     1      -6.080   3.104 123.352  0.00  0.00    +0.000 NA
ATOM      6  C   UNL     1      -7.004   2.686 124.405  0.00  0.00    +0.000 C 
ATOM      7  C   UNL     1      -7.472   3.827 125.308  0.00  0.00    +0.000 C 
ATOM      8  C   UNL     1      -6.152   1.826 125.266  0.00  0.00    +0.000 C 
ATOM      9  H   UNL     1      -5.903   4.099 123.426  0.00  0.00    +0.000 HD
ENDROOT
BRANCH   1  19
ATOM     10  C   UNL     1      -8.964  -0.535 123.963  0.00  0.00    +0.000 C 
ATOM     11  S   UNL     1      -7.582  -1.443 123.261  0.00  0.00    +0.000 S 
ATOM     12  C   UNL     1      -7.118  -2.334 124.824  0.00  0.00    +0.000 C 
ATOM     13  C   UNL     1      -5.598  -2.391 125.151  0.00  0.00    +0.000 C 
ATOM     14  C   UNL     1      -7.646  -3.664 124.282  0.00  0.00    +0.000 C 
ATOM     15  CA  UNL     1      -7.867  -1.637 125.988  0.00  0.00    +0.000 C 
ATOM     16  N   UNL     1      -8.909  -0.769 125.410  0.00  0.00    +0.000 N 
ATOM     17  C   UNL     1      -8.999   0.560 125.725  0.00  0.00    +0.000 C 
ATOM     18  O   UNL     1      -8.914   1.133 126.800  0.00  0.00    +0.000 OA
ATOM     19  CA  UNL     1      -9.056   0.992 124.248  0.00  0.00    +0.000 C 
BRANCH  15  20
ATOM     20  C   UNL     1      -8.426  -2.540 127.111  0.00  0.00    +0.000 C 
ATOM     21  OXT UNL     1      -7.917  -2.615 128.222  0.00  0.00    +0.000 OA
BRANCH  20  22
ATOM     22  O   UNL     1      -9.493  -3.321 126.845  0.00  0.00    +0.000 OA
ATOM     23  H   UNL     1     -10.333  -3.176 127.305  0.00  0.00    +0.000 HD
ENDBRANCH  20  22
ENDBRANCH  15  20
ENDBRANCH   1  19
BRANCH   4  24
ATOM     24  C   UNL     1      -6.402   3.801 121.016  0.00  0.00    +0.000 A 
ATOM     25  C   UNL     1      -5.241   4.575 121.104  0.00  0.00    +0.000 A 
ATOM     26  C   UNL     1      -4.954   5.518 120.122  0.00  0.00    +0.000 A 
ATOM     27  C   UNL     1      -5.775   5.633 119.002  0.00  0.00    +0.000 A 
ATOM     28  C   UNL     1      -6.921   4.851 118.889  0.00  0.00    +0.000 A 
ATOM     29  C   UNL     1      -7.239   3.943 119.895  0.00  0.00    +0.000 A 
ENDBRANCH   4  24
TORSDOF 4
ENDMDL
MODEL 2
REMARK VINA RESULT:      -8.7      6.048      8.315
REMARK  Name = Hetacillin
REMARK  8 active torsions:
REMARK  status: ('A' for Active; 'I' for Inactive)
REMARK    1  A    between atoms: C_4  and  C_5
REMARK    2  A    between atoms: C_4  and  C_6
REMARK    3  A    between atoms: CA_7  and  C_26
REMARK    4  A    between atoms: CA_11  and  N_12
REMARK    5  A    between atoms: CA_15  and  C_20
REMARK    6  A    between atoms: C_17  and  C_18
REMARK    7  A    between atoms: C_17  and  C_19
REMARK    8  A    between atoms: C_26  and  O_27
REMARK                            x       y       z     vdW  Elec       q    Type
REMARK                         _______ _______ _______ _____ _____    ______ ____
ROOT
ATOM      1  N   UNL     1      -7.891   4.861 130.995  0.00  0.00    +0.000 N 
ATOM      2  C   UNL     1      -8.752   5.310 129.979  0.00  0.00    +0.000 C 
ATOM      3  O   UNL     1      -8.968   4.796 128.896  0.00  0.00    +0.000 OA
ATOM      4  CA  UNL     1      -9.195   6.665 130.495  0.00  0.00    +0.000 C 
ATOM      5  N   UNL     1      -9.205   6.507 131.956  0.00  0.00    +0.000 NA
ATOM      6  C   UNL     1      -8.440   5.297 132.251  0.00  0.00    +0.000 C 
ATOM      7  C   UNL     1      -9.251   4.207 132.951  0.00  0.00    +0.000 C 
ATOM      8  C   UNL     1      -7.458   5.768 133.261  0.00  0.00    +0.000 C 
ATOM      9  H   UNL     1     -10.156   6.404 132.292  0.00  0.00    +0.000 HD
ENDROOT
BRANCH   1  19
ATOM     10  C   UNL     1      -6.707   2.499 130.376  0.00  0.00    +0.000 C 
ATOM     11  S   UNL     1      -8.132   1.494 129.944  0.00  0.00    +0.000 S 
ATOM     12  C   UNL     1      -7.667   1.250 128.162  0.00  0.00    +0.000 C 
ATOM     13  C   UNL     1      -8.818   1.413 127.128  0.00  0.00    +0.000 C 
ATOM     14  C   UNL     1      -7.307  -0.218 128.404  0.00  0.00    +0.000 C 
ATOM     15  CA  UNL     1      -6.541   2.265 127.839  0.00  0.00    +0.000 C 
ATOM     16  N   UNL     1      -6.026   2.800 129.112  0.00  0.00    +0.000 N 
ATOM     17  C   UNL     1      -5.960   4.145 129.357  0.00  0.00    +0.000 C 
ATOM     18  O   UNL     1      -5.584   5.067 128.650  0.00  0.00    +0.000 OA
ATOM     19  CA  UNL     1      -6.679   4.019 130.712  0.00  0.00    +0.000 C 
BRANCH  15  20
ATOM     20  C   UNL     1      -5.401   1.786 126.911  0.00  0.00    +0.000 C 
ATOM     21  OXT UNL     1      -5.549   1.614 125.708  0.00  0.00    +0.000 OA
BRANCH  20  22
ATOM     22  O   UNL     1      -4.201   1.495 127.454  0.00  0.00    +0.000 OA
ATOM     23  H   UNL     1      -3.384   1.745 126.998  0.00  0.00    +0.000 HD
ENDBRANCH  20  22
ENDBRANCH  15  20
ENDBRANCH   1  19
BRANCH   4  24
ATOM     24  C   UNL     1     -10.473   7.252 129.984  0.00  0.00    +0.000 A 
ATOM     25  C   UNL     1     -11.674   7.061 130.675  0.00  0.00    +0.000 A 
ATOM     26  C   UNL     1     -12.858   7.599 130.181  0.00  0.00    +0.000 A 
ATOM     27  C   UNL     1     -12.839   8.405 129.045  0.00  0.00    +0.000 A 
ATOM     28  C   UNL     1     -11.645   8.624 128.360  0.00  0.00    +0.000 A 
ATOM     29  C   UNL     1     -10.468   8.044 128.823  0.00  0.00    +0.000 A 
ENDBRANCH   4  24
TORSDOF 4
ENDMDL
MODEL 3
REMARK VINA RESULT:      -8.6      7.480     10.116
REMARK  Name = Hetacillin
REMARK  8 active torsions:
REMARK  status: ('A' for Active; 'I' for Inactive)
REMARK    1  A    between atoms: C_4  and  C_5
REMARK    2  A    between atoms: C_4  and  C_6
REMARK    3  A    between atoms: CA_7  and  C_26
REMARK    4  A    between atoms: CA_11  and  N_12
REMARK    5  A    between atoms: CA_15  and  C_20
REMARK    6  A    between atoms: C_17  and  C_18
REMARK    7  A    between atoms: C_17  and  C_19
REMARK    8  A    between atoms: C_26  and  O_27
REMARK                            x       y       z     vdW  Elec       q    Type
REMARK                         _______ _______ _______ _____ _____    ______ ____
ROOT
ATOM      1  N   UNL     1      -7.780   4.754 130.509  0.00  0.00    +0.000 N 
ATOM      2  C   UNL     1      -8.291   6.063 130.451  0.00  0.00    +0.000 C 
ATOM      3  O   UNL     1      -7.687   7.111 130.584  0.00  0.00    +0.000 OA
ATOM      4  CA  UNL     1      -9.787   5.830 130.361  0.00  0.00    +0.000 C 
ATOM      5  N   UNL     1      -9.910   4.566 129.622  0.00  0.00    +0.000 NA
ATOM      6  C   UNL     1      -8.592   3.934 129.651  0.00  0.00    +0.000 C 
ATOM      7  C   UNL     1      -7.972   3.730 128.269  0.00  0.00    +0.000 C 
ATOM      8  C   UNL     1      -8.894   2.569 130.153  0.00  0.00    +0.000 C 
ATOM      9  H   UNL     1     -10.184   4.745 128.662  0.00  0.00    +0.000 HD
ENDROOT
BRANCH   1  19
ATOM     10  C   UNL     1      -5.088   4.619 130.822  0.00  0.00    +0.000 C 
ATOM     11  S   UNL     1      -4.521   5.587 129.419  0.00  0.00    +0.000 S 
ATOM     12  C   UNL     1      -3.741   6.944 130.419  0.00  0.00    +0.000 C 
ATOM     13  C   UNL     1      -4.023   8.396 129.936  0.00  0.00    +0.000 C 
ATOM     14  C   UNL     1      -2.332   6.473 130.053  0.00  0.00    +0.000 C 
ATOM     15  CA  UNL     1      -4.239   6.783 131.878  0.00  0.00    +0.000 C 
ATOM     16  N   UNL     1      -4.858   5.451 132.008  0.00  0.00    +0.000 N 
ATOM     17  C   UNL     1      -6.129   5.288 132.488  0.00  0.00    +0.000 C 
ATOM     18  O   UNL     1      -6.695   5.803 133.439  0.00  0.00    +0.000 OA
ATOM     19  CA  UNL     1      -6.553   4.402 131.302  0.00  0.00    +0.000 C 
BRANCH  15  20
ATOM     20  C   UNL     1      -3.222   7.060 133.009  0.00  0.00    +0.000 C 
ATOM     21  OXT UNL     1      -2.733   8.164 133.210  0.00  0.00    +0.000 OA
BRANCH  20  22
ATOM     22  O   UNL     1      -2.813   6.031 133.779  0.00  0.00    +0.000 OA
ATOM     23  H   UNL     1      -2.758   5.136 133.412  0.00  0.00    +0.000 HD
ENDBRANCH  20  22
ENDBRANCH  15  20
ENDBRANCH   1  19
BRANCH   4  24
ATOM     24  C   UNL     1     -10.654   6.905 129.785  0.00  0.00    +0.000 A 
ATOM     25  C   UNL     1     -10.400   7.421 128.510  0.00  0.00    +0.000 A 
ATOM     26  C   UNL     1     -11.204   8.431 127.993  0.00  0.00    +0.000 A 
ATOM     27  C   UNL     1     -12.319   8.871 128.704  0.00  0.00    +0.000 A 
ATOM     28  C   UNL     1     -12.598   8.348 129.965  0.00  0.00    +0.000 A 
ATOM     29  C   UNL     1     -11.765   7.374 130.507  0.00  0.00    +0.000 A 
ENDBRANCH   4  24
TORSDOF 4
ENDMDL
MODEL 4
REMARK VINA RESULT:      -8.2      8.416      9.939
REMARK  Name = Hetacillin
REMARK  8 active torsions:
REMARK  status: ('A' for Active; 'I' for Inactive)
REMARK    1  A    between atoms: C_4  and  C_5
REMARK    2  A    between atoms: C_4  and  C_6
REMARK    3  A    between atoms: CA_7  and  C_26
REMARK    4  A    between atoms: CA_11  and  N_12
REMARK    5  A    between atoms: CA_15  and  C_20
REMARK    6  A    between atoms: C_17  and  C_18
REMARK    7  A    between atoms: C_17  and  C_19
REMARK    8  A    between atoms: C_26  and  O_27
REMARK                            x       y       z     vdW  Elec       q    Type
REMARK                         _______ _______ _______ _____ _____    ______ ____
ROOT
ATOM      1  N   UNL     1      -8.095   4.662 131.243  0.00  0.00    +0.000 N 
ATOM      2  C   UNL     1      -8.891   5.096 130.169  0.00  0.00    +0.000 C 
ATOM      3  O   UNL     1      -9.153   4.500 129.140  0.00  0.00    +0.000 OA
ATOM      4  CA  UNL     1      -9.183   6.538 130.536  0.00  0.00    +0.000 C 
ATOM      5  N   UNL     1      -9.224   6.533 132.005  0.00  0.00    +0.000 NA
ATOM      6  C   UNL     1      -8.603   5.282 132.437  0.00  0.00    +0.000 C 
ATOM      7  C   UNL     1      -9.538   4.367 133.227  0.00  0.00    +0.000 C 
ATOM      8  C   UNL     1      -7.584   5.743 133.414  0.00  0.00    +0.000 C 
ATOM      9  H   UNL     1     -10.184   6.571 132.331  0.00  0.00    +0.000 HD
ENDROOT
BRANCH   1  19
ATOM     10  C   UNL     1      -5.476   4.026 130.927  0.00  0.00    +0.000 C 
ATOM     11  S   UNL     1      -4.689   5.611 131.236  0.00  0.00    +0.000 S 
ATOM     12  C   UNL     1      -3.780   5.083 132.768  0.00  0.00    +0.000 C 
ATOM     13  C   UNL     1      -3.816   6.082 133.960  0.00  0.00    +0.000 C 
ATOM     14  C   UNL     1      -2.436   5.099 132.038  0.00  0.00    +0.000 C 
ATOM     15  CA  UNL     1      -4.385   3.728 133.216  0.00  0.00    +0.000 C 
ATOM     16  N   UNL     1      -5.199   3.199 132.107  0.00  0.00    +0.000 N 
ATOM     17  C   UNL     1      -6.507   2.836 132.278  0.00  0.00    +0.000 C 
ATOM     18  O   UNL     1      -7.048   2.201 133.170  0.00  0.00    +0.000 OA
ATOM     19  CA  UNL     1      -6.983   3.665 131.072  0.00  0.00    +0.000 C 
BRANCH  15  20
ATOM     20  C   UNL     1      -3.409   2.667 133.773  0.00  0.00    +0.000 C 
ATOM     21  OXT UNL     1      -2.852   1.837 133.067  0.00  0.00    +0.000 OA
BRANCH  20  22
ATOM     22  O   UNL     1      -3.196   2.617 135.104  0.00  0.00    +0.000 OA
ATOM     23  H   UNL     1      -3.504   3.336 135.677  0.00  0.00    +0.000 HD
ENDBRANCH  20  22
ENDBRANCH  15  20
ENDBRANCH   1  19
BRANCH   4  24
ATOM     24  C   UNL     1     -10.383   7.207 129.942  0.00  0.00    +0.000 A 
ATOM     25  C   UNL     1     -11.611   7.199 130.612  0.00  0.00    +0.000 A 
ATOM     26  C   UNL     1     -12.722   7.811 130.042  0.00  0.00    +0.000 A 
ATOM     27  C   UNL     1     -12.596   8.512 128.844  0.00  0.00    +0.000 A 
ATOM     28  C   UNL     1     -11.373   8.550 128.179  0.00  0.00    +0.000 A 
ATOM     29  C   UNL     1     -10.272   7.894 128.721  0.00  0.00    +0.000 A 
ENDBRANCH   4  24
TORSDOF 4
ENDMDL
MODEL 5
REMARK VINA RESULT:      -7.9      3.637      6.890
REMARK  Name = Hetacillin
REMARK  8 active torsions:
REMARK  status: ('A' for Active; 'I' for Inactive)
REMARK    1  A    between atoms: C_4  and  C_5
REMARK    2  A    between atoms: C_4  and  C_6
REMARK    3  A    between atoms: CA_7  and  C_26
REMARK    4  A    between atoms: CA_11  and  N_12
REMARK    5  A    between atoms: CA_15  and  C_20
REMARK    6  A    between atoms: C_17  and  C_18
REMARK    7  A    between atoms: C_17  and  C_19
REMARK    8  A    between atoms: C_26  and  O_27
REMARK                            x       y       z     vdW  Elec       q    Type
REMARK                         _______ _______ _______ _____ _____    ______ ____
ROOT
ATOM      1  N   UNL     1      -7.646   1.656 125.098  0.00  0.00    +0.000 N 
ATOM      2  C   UNL     1      -6.647   0.671 125.189  0.00  0.00    +0.000 C 
ATOM      3  O   UNL     1      -5.683   0.646 125.931  0.00  0.00    +0.000 OA
ATOM      4  CA  UNL     1      -6.975  -0.241 124.022  0.00  0.00    +0.000 C 
ATOM      5  N   UNL     1      -8.438  -0.164 123.906  0.00  0.00    +0.000 NA
ATOM      6  C   UNL     1      -8.858   1.005 124.676  0.00  0.00    +0.000 C 
ATOM      7  C   UNL     1      -9.789   0.677 125.843  0.00  0.00    +0.000 C 
ATOM      8  C   UNL     1      -9.693   1.755 123.703  0.00  0.00    +0.000 C 
ATOM      9  H   UNL     1      -8.865  -1.000 124.290  0.00  0.00    +0.000 HD
ENDROOT
BRANCH   1  19
ATOM     10  C   UNL     1      -7.205   3.613 126.925  0.00  0.00    +0.000 C 
ATOM     11  S   UNL     1      -6.913   2.648 128.411  0.00  0.00    +0.000 S 
ATOM     12  C   UNL     1      -5.146   3.174 128.643  0.00  0.00    +0.000 C 
ATOM     13  C   UNL     1      -4.140   2.043 129.005  0.00  0.00    +0.000 C 
ATOM     14  C   UNL     1      -5.508   4.039 129.852  0.00  0.00    +0.000 C 
ATOM     15  CA  UNL     1      -4.696   3.858 127.326  0.00  0.00    +0.000 C 
ATOM     16  N   UNL     1      -5.897   4.143 126.522  0.00  0.00    +0.000 N 
ATOM     17  C   UNL     1      -6.017   3.718 125.226  0.00  0.00    +0.000 C 
ATOM     18  O   UNL     1      -5.218   3.737 124.303  0.00  0.00    +0.000 OA
ATOM     19  CA  UNL     1      -7.401   3.090 125.471  0.00  0.00    +0.000 C 
BRANCH  15  20
ATOM     20  C   UNL     1      -3.778   5.096 127.451  0.00  0.00    +0.000 C 
ATOM     21  OXT UNL     1      -4.204   6.243 127.462  0.00  0.00    +0.000 OA
BRANCH  20  22
ATOM     22  O   UNL     1      -2.443   4.911 127.500  0.00  0.00    +0.000 OA
ATOM     23  H   UNL     1      -2.040   4.444 128.247  0.00  0.00    +0.000 HD
ENDBRANCH  20  22
ENDBRANCH  15  20
ENDBRANCH   1  19
BRANCH   4  24
ATOM     24  C   UNL     1      -6.486  -1.655 124.049  0.00  0.00    +0.000 A 
ATOM     25  C   UNL     1      -7.341  -2.700 124.414  0.00  0.00    +0.000 A 
ATOM     26  C   UNL     1      -6.870  -4.008 124.449  0.00  0.00    +0.000 A 
ATOM     27  C   UNL     1      -5.570  -4.294 124.037  0.00  0.00    +0.000 A 
ATOM     28  C   UNL     1      -4.715  -3.266 123.647  0.00  0.00    +0.000 A 
ATOM     29  C   UNL     1      -5.168  -1.950 123.660  0.00  0.00    +0.000 A 
ENDBRANCH   4  24
TORSDOF 4
ENDMDL
MODEL 6
REMARK VINA RESULT:      -7.8      2.516      3.573
REMARK  Name = Hetacillin
REMARK  8 active torsions:
REMARK  status: ('A' for Active; 'I' for Inactive)
REMARK    1  A    between atoms: C_4  and  C_5
REMARK    2  A    between atoms: C_4  and  C_6
REMARK    3  A    between atoms: CA_7  and  C_26
REMARK    4  A    between atoms: CA_11  and  N_12
REMARK    5  A    between atoms: CA_15  and  C_20
REMARK    6  A    between atoms: C_17  and  C_18
REMARK    7  A    between atoms: C_17  and  C_19
REMARK    8  A    between atoms: C_26  and  O_27
REMARK                            x       y       z     vdW  Elec       q    Type
REMARK                         _______ _______ _______ _____ _____    ______ ____
ROOT
ATOM      1  N   UNL     1      -7.514   0.101 124.886  0.00  0.00    +0.000 N 
ATOM      2  C   UNL     1      -7.104   0.482 123.597  0.00  0.00    +0.000 C 
ATOM      3  O   UNL     1      -6.670  -0.226 122.706  0.00  0.00    +0.000 OA
ATOM      4  CA  UNL     1      -7.170   1.995 123.663  0.00  0.00    +0.000 C 
ATOM      5  N   UNL     1      -8.277   2.266 124.591  0.00  0.00    +0.000 NA
ATOM      6  C   UNL     1      -8.542   1.017 125.301  0.00  0.00    +0.000 C 
ATOM      7  C   UNL     1      -9.950   0.465 125.080  0.00  0.00    +0.000 C 
ATOM      8  C   UNL     1      -8.502   1.435 126.726  0.00  0.00    +0.000 C 
ATOM      9  H   UNL     1      -9.104   2.552 124.079  0.00  0.00    +0.000 HD
ENDROOT
BRANCH   1  19
ATOM     10  C   UNL     1      -5.916  -1.079 126.735  0.00  0.00    +0.000 C 
ATOM     11  S   UNL     1      -5.377   0.342 127.692  0.00  0.00    +0.000 S 
ATOM     12  C   UNL     1      -6.196  -0.170 129.280  0.00  0.00    +0.000 C 
ATOM     13  C   UNL     1      -6.951   0.952 130.050  0.00  0.00    +0.000 C 
ATOM     14  C   UNL     1      -4.850  -0.511 129.924  0.00  0.00    +0.000 C 
ATOM     15  CA  UNL     1      -7.185  -1.313 128.938  0.00  0.00    +0.000 C 
ATOM     16  N   UNL     1      -6.876  -1.797 127.581  0.00  0.00    +0.000 N 
ATOM     17  C   UNL     1      -7.831  -1.868 126.603  0.00  0.00    +0.000 C 
ATOM     18  O   UNL     1      -8.983  -2.271 126.641  0.00  0.00    +0.000 OA
ATOM     19  CA  UNL     1      -6.962  -1.111 125.582  0.00  0.00    +0.000 C 
BRANCH  15  20
ATOM     20  C   UNL     1      -7.304  -2.473 129.952  0.00  0.00    +0.000 C 
ATOM     21  OXT UNL     1      -7.110  -3.644 129.651  0.00  0.00    +0.000 OA
BRANCH  20  22
ATOM     22  O   UNL     1      -7.686  -2.194 131.215  0.00  0.00    +0.000 OA
ATOM     23  H   UNL     1      -8.139  -2.865 131.749  0.00  0.00    +0.000 HD
ENDBRANCH  20  22
ENDBRANCH  15  20
ENDBRANCH   1  19
BRANCH   4  24
ATOM     24  C   UNL     1      -7.302   2.771 122.389  0.00  0.00    +0.000 A 
ATOM     25  C   UNL     1      -6.170   3.141 121.657  0.00  0.00    +0.000 A 
ATOM     26  C   UNL     1      -6.306   3.875 120.483  0.00  0.00    +0.000 A 
ATOM     27  C   UNL     1      -7.574   4.168 119.985  0.00  0.00    +0.000 A 
ATOM     28  C   UNL     1      -8.711   3.784 120.692  0.00  0.00    +0.000 A 
ATOM     29  C   UNL     1      -8.577   3.095 121.893  0.00  0.00    +0.000 A 
ENDBRANCH   4  24
TORSDOF 4
ENDMDL
MODEL 7
REMARK VINA RESULT:      -7.8      4.869      7.189
REMARK  Name = Hetacillin
REMARK  8 active torsions:
REMARK  status: ('A' for Active; 'I' for Inactive)
REMARK    1  A    between atoms: C_4  and  C_5
REMARK    2  A    between atoms: C_4  and  C_6
REMARK    3  A    between atoms: CA_7  and  C_26
REMARK    4  A    between atoms: CA_11  and  N_12
REMARK    5  A    between atoms: CA_15  and  C_20
REMARK    6  A    between atoms: C_17  and  C_18
REMARK    7  A    between atoms: C_17  and  C_19
REMARK    8  A    between atoms: C_26  and  O_27
REMARK                            x       y       z     vdW  Elec       q    Type
REMARK                         _______ _______ _______ _____ _____    ______ ____
ROOT
ATOM      1  N   UNL     1      -7.229  -0.916 128.491  0.00  0.00    +0.000 N 
ATOM      2  C   UNL     1      -6.764  -0.566 127.212  0.00  0.00    +0.000 C 
ATOM      3  O   UNL     1      -6.144   0.430 126.884  0.00  0.00    +0.000 OA
ATOM      4  CA  UNL     1      -7.378  -1.638 126.332  0.00  0.00    +0.000 C 
ATOM      5  N   UNL     1      -7.433  -2.824 127.197  0.00  0.00    +0.000 NA
ATOM      6  C   UNL     1      -7.245  -2.352 128.568  0.00  0.00    +0.000 C 
ATOM      7  C   UNL     1      -6.005  -2.921 129.256  0.00  0.00    +0.000 C 
ATOM      8  C   UNL     1      -8.402  -2.950 129.282  0.00  0.00    +0.000 C 
ATOM      9  H   UNL     1      -6.692  -3.472 126.953  0.00  0.00    +0.000 HD
ENDROOT
BRANCH   1  19
ATOM     10  C   UNL     1      -6.499   0.868 130.401  0.00  0.00    +0.000 C 
ATOM     11  S   UNL     1      -4.722   0.945 130.151  0.00  0.00    +0.000 S 
ATOM     12  C   UNL     1      -4.673   2.729 129.634  0.00  0.00    +0.000 C 
ATOM     13  C   UNL     1      -3.778   3.059 128.405  0.00  0.00    +0.000 C 
ATOM     14  C   UNL     1      -4.022   3.146 130.955  0.00  0.00    +0.000 C 
ATOM     15  CA  UNL     1      -6.132   3.160 129.337  0.00  0.00    +0.000 C 
ATOM     16  N   UNL     1      -7.035   2.133 129.886  0.00  0.00    +0.000 N 
ATOM     17  C   UNL     1      -7.991   1.524 129.117  0.00  0.00    +0.000 C 
ATOM     18  O   UNL     1      -8.776   1.989 128.306  0.00  0.00    +0.000 OA
ATOM     19  CA  UNL     1      -7.551   0.111 129.540  0.00  0.00    +0.000 C 
BRANCH  15  20
ATOM     20  C   UNL     1      -6.550   4.585 129.766  0.00  0.00    +0.000 C 
ATOM     21  OXT UNL     1      -7.549   4.813 130.435  0.00  0.00    +0.000 OA
BRANCH  20  22
ATOM     22  O   UNL     1      -5.812   5.632 129.344  0.00  0.00    +0.000 OA
ATOM     23  H   UNL     1      -6.238   6.390 128.915  0.00  0.00    +0.000 HD
ENDBRANCH  20  22
ENDBRANCH  15  20
ENDBRANCH   1  19
BRANCH   4  24
ATOM     24  C   UNL     1      -6.749  -1.936 125.008  0.00  0.00    +0.000 A 
ATOM     25  C   UNL     1      -7.246  -1.361 123.834  0.00  0.00    +0.000 A 
ATOM     26  C   UNL     1      -6.662  -1.660 122.608  0.00  0.00    +0.000 A 
ATOM     27  C   UNL     1      -5.524  -2.462 122.552  0.00  0.00    +0.000 A 
ATOM     28  C   UNL     1      -5.003  -3.021 123.717  0.00  0.00    +0.000 A 
ATOM     29  C   UNL     1      -5.617  -2.766 124.939  0.00  0.00    +0.000 A 
ENDBRANCH   4  24
TORSDOF 4
ENDMDL
MODEL 8
REMARK VINA RESULT:      -7.7      5.122      8.553
REMARK  Name = Hetacillin
REMARK  8 active torsions:
REMARK  status: ('A' for Active; 'I' for Inactive)
REMARK    1  A    between atoms: C_4  and  C_5
REMARK    2  A    between atoms: C_4  and  C_6
REMARK    3  A    between atoms: CA_7  and  C_26
REMARK    4  A    between atoms: CA_11  and  N_12
REMARK    5  A    between atoms: CA_15  and  C_20
REMARK    6  A    between atoms: C_17  and  C_18
REMARK    7  A    between atoms: C_17  and  C_19
REMARK    8  A    between atoms: C_26  and  O_27
REMARK                            x       y       z     vdW  Elec       q    Type
REMARK                         _______ _______ _______ _____ _____    ______ ____
ROOT
ATOM      1  N   UNL     1      -6.401   2.001 128.932  0.00  0.00    +0.000 N 
ATOM      2  C   UNL     1      -7.367   0.994 129.098  0.00  0.00    +0.000 C 
ATOM      3  O   UNL     1      -8.427   1.060 129.693  0.00  0.00    +0.000 OA
ATOM      4  CA  UNL     1      -6.678  -0.224 128.512  0.00  0.00    +0.000 C 
ATOM      5  N   UNL     1      -5.830   0.322 127.444  0.00  0.00    +0.000 NA
ATOM      6  C   UNL     1      -5.737   1.762 127.678  0.00  0.00    +0.000 C 
ATOM      7  C   UNL     1      -6.300   2.613 126.540  0.00  0.00    +0.000 C 
ATOM      8  C   UNL     1      -4.272   2.003 127.663  0.00  0.00    +0.000 C 
ATOM      9  H   UNL     1      -6.250   0.149 126.537  0.00  0.00    +0.000 HD
ENDROOT
BRANCH   1  19
ATOM     10  C   UNL     1      -7.106   4.408 129.969  0.00  0.00    +0.000 C 
ATOM     11  S   UNL     1      -8.662   4.712 129.125  0.00  0.00    +0.000 S 
ATOM     12  C   UNL     1      -9.723   4.671 130.650  0.00  0.00    +0.000 C 
ATOM     13  C   UNL     1     -11.053   3.871 130.535  0.00  0.00    +0.000 C 
ATOM     14  C   UNL     1      -9.949   6.184 130.595  0.00  0.00    +0.000 C 
ATOM     15  CA  UNL     1      -8.862   4.073 131.792  0.00  0.00    +0.000 C 
ATOM     16  N   UNL     1      -7.454   4.074 131.354  0.00  0.00    +0.000 N 
ATOM     17  C   UNL     1      -6.690   2.939 131.374  0.00  0.00    +0.000 C 
ATOM     18  O   UNL     1      -6.576   2.068 132.223  0.00  0.00    +0.000 OA
ATOM     19  CA  UNL     1      -6.228   3.123 129.917  0.00  0.00    +0.000 C 
BRANCH  15  20
ATOM     20  C   UNL     1      -9.029   4.687 133.201  0.00  0.00    +0.000 C 
ATOM     21  OXT UNL     1      -8.348   5.620 133.606  0.00  0.00    +0.000 OA
BRANCH  20  22
ATOM     22  O   UNL     1      -9.929   4.141 134.044  0.00  0.00    +0.000 OA
ATOM     23  H   UNL     1      -9.873   3.202 134.278  0.00  0.00    +0.000 HD
ENDBRANCH  20  22
ENDBRANCH  15  20
ENDBRANCH   1  19
BRANCH   4  24
ATOM     24  C   UNL     1      -7.515  -1.369 128.035  0.00  0.00    +0.000 A 
ATOM     25  C   UNL     1      -8.004  -1.400 126.725  0.00  0.00    +0.000 A 
ATOM     26  C   UNL     1      -8.793  -2.463 126.299  0.00  0.00    +0.000 A 
ATOM     27  C   UNL     1      -9.027  -3.545 127.146  0.00  0.00    +0.000 A 
ATOM     28  C   UNL     1      -8.525  -3.538 128.446  0.00  0.00    +0.000 A 
ATOM     29  C   UNL     1      -7.779  -2.452 128.892  0.00  0.00    +0.000 A 
ENDBRANCH   4  24
TORSDOF 4
ENDMDL
MODEL 9
REMARK VINA RESULT:      -7.7      4.771      7.172
REMARK  Name = Hetacillin
REMARK  8 active torsions:
REMARK  status: ('A' for Active; 'I' for Inactive)
REMARK    1  A    between atoms: C_4  and  C_5
REMARK    2  A    between atoms: C_4  and  C_6
REMARK    3  A    between atoms: CA_7  and  C_26
REMARK    4  A    between atoms: CA_11  and  N_12
REMARK    5  A    between atoms: CA_15  and  C_20
REMARK    6  A    between atoms: C_17  and  C_18
REMARK    7  A    between atoms: C_17  and  C_19
REMARK    8  A    between atoms: C_26  and  O_27
REMARK                            x       y       z     vdW  Elec       q    Type
REMARK                         _______ _______ _______ _____ _____    ______ ____
ROOT
ATOM      1  N   UNL     1      -7.003  -1.605 128.690  0.00  0.00    +0.000 N 
ATOM      2  C   UNL     1      -7.346  -2.058 127.404  0.00  0.00    +0.000 C 
ATOM      3  O   UNL     1      -8.433  -2.434 127.005  0.00  0.00    +0.000 OA
ATOM      4  CA  UNL     1      -6.000  -2.126 126.709  0.00  0.00    +0.000 C 
ATOM      5  N   UNL     1      -5.223  -1.041 127.323  0.00  0.00    +0.000 NA
ATOM      6  C   UNL     1      -5.930  -0.659 128.544  0.00  0.00    +0.000 C 
ATOM      7  C   UNL     1      -6.414   0.791 128.552  0.00  0.00    +0.000 C 
ATOM      8  C   UNL     1      -4.862  -0.724 129.574  0.00  0.00    +0.000 C 
ATOM      9  H   UNL     1      -5.170  -0.247 126.694  0.00  0.00    +0.000 HD
ENDROOT
BRANCH   1  19
ATOM     10  C   UNL     1      -7.350  -3.249 130.820  0.00  0.00    +0.000 C 
ATOM     11  S   UNL     1      -5.814  -4.179 130.801  0.00  0.00    +0.000 S 
ATOM     12  C   UNL     1      -5.185  -3.553 132.434  0.00  0.00    +0.000 C 
ATOM     13  C   UNL     1      -3.685  -3.143 132.475  0.00  0.00    +0.000 C 
ATOM     14  C   UNL     1      -5.437  -4.905 133.107  0.00  0.00    +0.000 C 
ATOM     15  CA  UNL     1      -6.061  -2.335 132.826  0.00  0.00    +0.000 C 
ATOM     16  N   UNL     1      -7.253  -2.329 131.959  0.00  0.00    +0.000 N 
ATOM     17  C   UNL     1      -7.607  -1.230 131.224  0.00  0.00    +0.000 C 
ATOM     18  O   UNL     1      -7.640  -0.047 131.524  0.00  0.00    +0.000 OA
ATOM     19  CA  UNL     1      -7.745  -2.040 129.922  0.00  0.00    +0.000 C 
BRANCH  15  20
ATOM     20  C   UNL     1      -6.432  -2.181 134.318  0.00  0.00    +0.000 C 
ATOM     21  OXT UNL     1      -7.587  -2.196 134.723  0.00  0.00    +0.000 OA
BRANCH  20  22
ATOM     22  O   UNL     1      -5.445  -1.971 135.213  0.00  0.00    +0.000 OA
ATOM     23  H   UNL     1      -4.784  -1.278 135.060  0.00  0.00    +0.000 HD
ENDBRANCH  20  22
ENDBRANCH  15  20
ENDBRANCH   1  19
BRANCH   4  24
ATOM     24  C   UNL     1      -5.953  -2.075 125.214  0.00  0.00    +0.000 A 
ATOM     25  C   UNL     1      -5.311  -3.080 124.483  0.00  0.00    +0.000 A 
ATOM     26  C   UNL     1      -5.262  -3.011 123.095  0.00  0.00    +0.000 A 
ATOM     27  C   UNL     1      -5.928  -1.989 122.421  0.00  0.00    +0.000 A 
ATOM     28  C   UNL     1      -6.593  -0.995 123.135  0.00  0.00    +0.000 A 
ATOM     29  C   UNL     1      -6.600  -1.032 124.526  0.00  0.00    +0.000 A 
ENDBRANCH   4  24
TORSDOF 4
ENDMDL
