MODEL 1
REMARK VINA RESULT:      -7.1      0.000      0.000
REMARK  Name = Hexafluronium
REMARK  13 active torsions:
REMARK  status: ('A' for Active; 'I' for Inactive)
REMARK    1  A    between atoms: C_1  and  N_2
REMARK    2  A    between atoms: N_2  and  C_3
REMARK    3  A    between atoms: N_2  and  C_4
REMARK    4  A    between atoms: N_2  and  C_26
REMARK    5  A    between atoms: C_4  and  C_5
REMARK    6  A    between atoms: C_5  and  C_6
REMARK    7  A    between atoms: C_6  and  C_7
REMARK    8  A    between atoms: C_7  and  C_8
REMARK    9  A    between atoms: C_8  and  C_9
REMARK   10  A    between atoms: C_9  and  N_10
REMARK   11  A    between atoms: N_10  and  C_11
REMARK   12  A    between atoms: N_10  and  C_12
REMARK   13  A    between atoms: N_10  and  C_13
REMARK                            x       y       z     vdW  Elec       q    Type
REMARK                         _______ _______ _______ _____ _____    ______ ____
ROOT
ATOM      1  C   UNL     1      -1.815   4.212 132.604  0.00  0.00    +0.000 C 
ENDROOT
BRANCH   1   2
ATOM      2  C   UNL     1      -2.397   5.479 132.065  0.00  0.00    +0.000 C 
BRANCH   2   3
ATOM      3  C   UNL     1      -2.655   5.365 130.579  0.00  0.00    +0.000 C 
BRANCH   3   5
ATOM      4  C   UNL     1      -4.261   7.289 130.896  0.00  0.00    +0.000 C 
ATOM      5  N   UNL     1      -4.022   5.935 130.234  0.00  0.00    +0.000 N 
ATOM      6  C   UNL     1      -4.085   6.172 128.725  0.00  0.00    +0.000 C 
BRANCH   5   7
ATOM      7  C   UNL     1      -5.090   4.864 130.701  0.00  0.00    +0.000 C 
ATOM      8  C   UNL     1      -6.539   5.355 130.830  0.00  0.00    +0.000 A 
ATOM      9  C   UNL     1      -7.382   4.508 130.070  0.00  0.00    +0.000 A 
ATOM     10  C   UNL     1      -8.756   4.706 130.060  0.00  0.00    +0.000 A 
ATOM     11  C   UNL     1      -9.290   5.762 130.802  0.00  0.00    +0.000 A 
ATOM     12  C   UNL     1      -8.458   6.607 131.550  0.00  0.00    +0.000 A 
ATOM     13  C   UNL     1      -7.074   6.398 131.581  0.00  0.00    +0.000 A 
ATOM     14  C   UNL     1      -6.584   3.496 129.417  0.00  0.00    +0.000 A 
ATOM     15  C   UNL     1      -5.238   3.647 129.787  0.00  0.00    +0.000 A 
ATOM     16  C   UNL     1      -4.269   2.752 129.337  0.00  0.00    +0.000 A 
ATOM     17  C   UNL     1      -4.617   1.796 128.391  0.00  0.00    +0.000 A 
ATOM     18  C   UNL     1      -5.952   1.645 128.020  0.00  0.00    +0.000 A 
ATOM     19  C   UNL     1      -6.948   2.472 128.551  0.00  0.00    +0.000 A 
ENDBRANCH   5   7
ENDBRANCH   3   5
ENDBRANCH   2   3
ENDBRANCH   1   2
BRANCH   1  20
ATOM     20  C   UNL     1      -2.884   3.574 133.466  0.00  0.00    +0.000 C 
BRANCH  20  21
ATOM     21  C   UNL     1      -3.283   2.308 132.768  0.00  0.00    +0.000 C 
BRANCH  21  22
ATOM     22  C   UNL     1      -3.475   1.202 133.767  0.00  0.00    +0.000 C 
BRANCH  22  23
ATOM     23  N   UNL     1      -4.951   0.961 134.044  0.00  0.00    +0.000 N 
ATOM     24  C   UNL     1      -5.341  -0.533 133.997  0.00  0.00    +0.000 C 
ATOM     25  C   UNL     1      -5.275   1.445 135.450  0.00  0.00    +0.000 C 
BRANCH  23  26
ATOM     26  C   UNL     1      -5.729   1.774 132.942  0.00  0.00    +0.000 C 
ATOM     27  C   UNL     1      -6.367   0.837 131.906  0.00  0.00    +0.000 A 
ATOM     28  C   UNL     1      -7.764   1.009 131.932  0.00  0.00    +0.000 A 
ATOM     29  C   UNL     1      -8.579   0.126 131.236  0.00  0.00    +0.000 A 
ATOM     30  C   UNL     1      -7.990  -0.954 130.569  0.00  0.00    +0.000 A 
ATOM     31  C   UNL     1      -6.604  -1.128 130.554  0.00  0.00    +0.000 A 
ATOM     32  C   UNL     1      -5.779  -0.199 131.179  0.00  0.00    +0.000 A 
ATOM     33  C   UNL     1      -8.099   2.110 132.807  0.00  0.00    +0.000 A 
ATOM     34  C   UNL     1      -6.922   2.597 133.416  0.00  0.00    +0.000 A 
ATOM     35  C   UNL     1      -6.952   3.724 134.235  0.00  0.00    +0.000 A 
ATOM     36  C   UNL     1      -8.181   4.333 134.490  0.00  0.00    +0.000 A 
ATOM     37  C   UNL     1      -9.353   3.830 133.910  0.00  0.00    +0.000 A 
ATOM     38  C   UNL     1      -9.320   2.715 133.067  0.00  0.00    +0.000 A 
ENDBRANCH  23  26
ENDBRANCH  22  23
ENDBRANCH  21  22
ENDBRANCH  20  21
ENDBRANCH   1  20
TORSDOF 9
ENDMDL
MODEL 2
REMARK VINA RESULT:      -7.0      3.451      6.421
REMARK  Name = Hexafluronium
REMARK  13 active torsions:
REMARK  status: ('A' for Active; 'I' for Inactive)
REMARK    1  A    between atoms: C_1  and  N_2
REMARK    2  A    between atoms: N_2  and  C_3
REMARK    3  A    between atoms: N_2  and  C_4
REMARK    4  A    between atoms: N_2  and  C_26
REMARK    5  A    between atoms: C_4  and  C_5
REMARK    6  A    between atoms: C_5  and  C_6
REMARK    7  A    between atoms: C_6  and  C_7
REMARK    8  A    between atoms: C_7  and  C_8
REMARK    9  A    between atoms: C_8  and  C_9
REMARK   10  A    between atoms: C_9  and  N_10
REMARK   11  A    between atoms: N_10  and  C_11
REMARK   12  A    between atoms: N_10  and  C_12
REMARK   13  A    between atoms: N_10  and  C_13
REMARK                            x       y       z     vdW  Elec       q    Type
REMARK                         _______ _______ _______ _____ _____    ______ ____
ROOT
ATOM      1  C   UNL     1      -6.791   2.193 129.577  0.00  0.00    +0.000 C 
ENDROOT
BRANCH   1   2
ATOM      2  C   UNL     1      -7.403   2.192 128.213  0.00  0.00    +0.000 C 
BRANCH   2   3
ATOM      3  C   UNL     1      -6.609   1.319 127.266  0.00  0.00    +0.000 C 
BRANCH   3   5
ATOM      4  C   UNL     1      -8.989   1.012 126.476  0.00  0.00    +0.000 C 
ATOM      5  N   UNL     1      -7.513   0.758 126.180  0.00  0.00    +0.000 N 
ATOM      6  C   UNL     1      -7.204   1.479 124.868  0.00  0.00    +0.000 C 
BRANCH   5   7
ATOM      7  C   UNL     1      -7.197  -0.790 126.082  0.00  0.00    +0.000 C 
ATOM      8  C   UNL     1      -7.633  -1.652 127.276  0.00  0.00    +0.000 A 
ATOM      9  C   UNL     1      -8.430  -2.723 126.804  0.00  0.00    +0.000 A 
ATOM     10  C   UNL     1      -8.911  -3.684 127.682  0.00  0.00    +0.000 A 
ATOM     11  C   UNL     1      -8.605  -3.569 129.040  0.00  0.00    +0.000 A 
ATOM     12  C   UNL     1      -7.823  -2.506 129.513  0.00  0.00    +0.000 A 
ATOM     13  C   UNL     1      -7.316  -1.547 128.628  0.00  0.00    +0.000 A 
ATOM     14  C   UNL     1      -8.578  -2.617 125.371  0.00  0.00    +0.000 A 
ATOM     15  C   UNL     1      -7.844  -1.515 124.902  0.00  0.00    +0.000 A 
ATOM     16  C   UNL     1      -7.774  -1.231 123.539  0.00  0.00    +0.000 A 
ATOM     17  C   UNL     1      -8.566  -1.953 122.655  0.00  0.00    +0.000 A 
ATOM     18  C   UNL     1      -9.298  -3.045 123.118  0.00  0.00    +0.000 A 
ATOM     19  C   UNL     1      -9.287  -3.403 124.470  0.00  0.00    +0.000 A 
ENDBRANCH   5   7
ENDBRANCH   3   5
ENDBRANCH   2   3
ENDBRANCH   1   2
BRANCH   1  20
ATOM     20  C   UNL     1      -6.601   3.644 129.966  0.00  0.00    +0.000 C 
BRANCH  20  21
ATOM     21  C   UNL     1      -7.969   4.257 129.979  0.00  0.00    +0.000 C 
BRANCH  21  22
ATOM     22  C   UNL     1      -8.190   5.011 131.260  0.00  0.00    +0.000 C 
BRANCH  22  23
ATOM     23  N   UNL     1      -9.583   4.752 131.817  0.00  0.00    +0.000 N 
ATOM     24  C   UNL     1     -10.374   6.048 132.098  0.00  0.00    +0.000 C 
ATOM     25  C   UNL     1     -10.388   3.972 130.789  0.00  0.00    +0.000 C 
BRANCH  23  26
ATOM     26  C   UNL     1      -9.364   3.935 133.146  0.00  0.00    +0.000 C 
ATOM     27  C   UNL     1      -9.071   2.457 132.848  0.00  0.00    +0.000 A 
ATOM     28  C   UNL     1      -7.791   2.135 133.341  0.00  0.00    +0.000 A 
ATOM     29  C   UNL     1      -7.213   0.918 133.011  0.00  0.00    +0.000 A 
ATOM     30  C   UNL     1      -7.896   0.058 132.143  0.00  0.00    +0.000 A 
ATOM     31  C   UNL     1      -9.161   0.385 131.647  0.00  0.00    +0.000 A 
ATOM     32  C   UNL     1      -9.780   1.565 132.043  0.00  0.00    +0.000 A 
ATOM     33  C   UNL     1      -7.265   3.257 134.087  0.00  0.00    +0.000 A 
ATOM     34  C   UNL     1      -8.170   4.338 134.006  0.00  0.00    +0.000 A 
ATOM     35  C   UNL     1      -7.949   5.514 134.719  0.00  0.00    +0.000 A 
ATOM     36  C   UNL     1      -6.783   5.627 135.477  0.00  0.00    +0.000 A 
ATOM     37  C   UNL     1      -5.871   4.565 135.533  0.00  0.00    +0.000 A 
ATOM     38  C   UNL     1      -6.105   3.375 134.838  0.00  0.00    +0.000 A 
ENDBRANCH  23  26
ENDBRANCH  22  23
ENDBRANCH  21  22
ENDBRANCH  20  21
ENDBRANCH   1  20
TORSDOF 9
ENDMDL
MODEL 3
REMARK VINA RESULT:      -6.9      1.834      5.611
REMARK  Name = Hexafluronium
REMARK  13 active torsions:
REMARK  status: ('A' for Active; 'I' for Inactive)
REMARK    1  A    between atoms: C_1  and  N_2
REMARK    2  A    between atoms: N_2  and  C_3
REMARK    3  A    between atoms: N_2  and  C_4
REMARK    4  A    between atoms: N_2  and  C_26
REMARK    5  A    between atoms: C_4  and  C_5
REMARK    6  A    between atoms: C_5  and  C_6
REMARK    7  A    between atoms: C_6  and  C_7
REMARK    8  A    between atoms: C_7  and  C_8
REMARK    9  A    between atoms: C_8  and  C_9
REMARK   10  A    between atoms: C_9  and  N_10
REMARK   11  A    between atoms: N_10  and  C_11
REMARK   12  A    between atoms: N_10  and  C_12
REMARK   13  A    between atoms: N_10  and  C_13
REMARK                            x       y       z     vdW  Elec       q    Type
REMARK                         _______ _______ _______ _____ _____    ______ ____
ROOT
ATOM      1  C   UNL     1      -8.614   4.114 134.079  0.00  0.00    +0.000 C 
ENDROOT
BRANCH   1   2
ATOM      2  C   UNL     1      -9.017   5.128 133.057  0.00  0.00    +0.000 C 
BRANCH   2   3
ATOM      3  C   UNL     1      -9.044   4.518 131.673  0.00  0.00    +0.000 C 
BRANCH   3   5
ATOM      4  C   UNL     1      -8.295   4.870 129.286  0.00  0.00    +0.000 C 
ATOM      5  N   UNL     1      -8.098   5.266 130.747  0.00  0.00    +0.000 N 
ATOM      6  C   UNL     1      -8.410   6.760 130.837  0.00  0.00    +0.000 C 
BRANCH   5   7
ATOM      7  C   UNL     1      -6.631   4.947 131.245  0.00  0.00    +0.000 C 
ATOM      8  C   UNL     1      -6.082   3.553 130.903  0.00  0.00    +0.000 A 
ATOM      9  C   UNL     1      -4.838   3.697 130.243  0.00  0.00    +0.000 A 
ATOM     10  C   UNL     1      -4.104   2.579 129.871  0.00  0.00    +0.000 A 
ATOM     11  C   UNL     1      -4.620   1.311 130.149  0.00  0.00    +0.000 A 
ATOM     12  C   UNL     1      -5.856   1.165 130.796  0.00  0.00    +0.000 A 
ATOM     13  C   UNL     1      -6.589   2.289 131.193  0.00  0.00    +0.000 A 
ATOM     14  C   UNL     1      -4.531   5.101 130.096  0.00  0.00    +0.000 A 
ATOM     15  C   UNL     1      -5.540   5.869 130.699  0.00  0.00    +0.000 A 
ATOM     16  C   UNL     1      -5.447   7.259 130.746  0.00  0.00    +0.000 A 
ATOM     17  C   UNL     1      -4.425   7.894 130.053  0.00  0.00    +0.000 A 
ATOM     18  C   UNL     1      -3.423   7.134 129.451  0.00  0.00    +0.000 A 
ATOM     19  C   UNL     1      -3.452   5.736 129.493  0.00  0.00    +0.000 A 
ENDBRANCH   5   7
ENDBRANCH   3   5
ENDBRANCH   2   3
ENDBRANCH   1   2
BRANCH   1  20
ATOM     20  C   UNL     1      -8.087   4.884 135.271  0.00  0.00    +0.000 C 
BRANCH  20  21
ATOM     21  C   UNL     1      -6.923   5.685 134.771  0.00  0.00    +0.000 C 
BRANCH  21  22
ATOM     22  C   UNL     1      -5.975   5.986 135.898  0.00  0.00    +0.000 C 
BRANCH  22  23
ATOM     23  N   UNL     1      -4.749   5.086 135.840  0.00  0.00    +0.000 N 
ATOM     24  C   UNL     1      -3.437   5.826 136.181  0.00  0.00    +0.000 C 
ATOM     25  C   UNL     1      -4.899   3.981 136.874  0.00  0.00    +0.000 C 
BRANCH  23  26
ATOM     26  C   UNL     1      -4.704   4.523 134.370  0.00  0.00    +0.000 C 
ATOM     27  C   UNL     1      -3.563   5.162 133.564  0.00  0.00    +0.000 A 
ATOM     28  C   UNL     1      -2.665   4.155 133.163  0.00  0.00    +0.000 A 
ATOM     29  C   UNL     1      -1.445   4.504 132.602  0.00  0.00    +0.000 A 
ATOM     30  C   UNL     1      -1.111   5.859 132.502  0.00  0.00    +0.000 A 
ATOM     31  C   UNL     1      -1.999   6.857 132.911  0.00  0.00    +0.000 A 
ATOM     32  C   UNL     1      -3.256   6.513 133.395  0.00  0.00    +0.000 A 
ATOM     33  C   UNL     1      -3.205   2.859 133.513  0.00  0.00    +0.000 A 
ATOM     34  C   UNL     1      -4.416   3.033 134.218  0.00  0.00    +0.000 A 
ATOM     35  C   UNL     1      -5.193   1.938 134.589  0.00  0.00    +0.000 A 
ATOM     36  C   UNL     1      -4.725   0.656 134.299  0.00  0.00    +0.000 A 
ATOM     37  C   UNL     1      -3.508   0.484 133.626  0.00  0.00    +0.000 A 
ATOM     38  C   UNL     1      -2.740   1.583 133.230  0.00  0.00    +0.000 A 
ENDBRANCH  23  26
ENDBRANCH  22  23
ENDBRANCH  21  22
ENDBRANCH  20  21
ENDBRANCH   1  20
TORSDOF 9
ENDMDL
MODEL 4
REMARK VINA RESULT:      -6.9      1.725      4.037
REMARK  Name = Hexafluronium
REMARK  13 active torsions:
REMARK  status: ('A' for Active; 'I' for Inactive)
REMARK    1  A    between atoms: C_1  and  N_2
REMARK    2  A    between atoms: N_2  and  C_3
REMARK    3  A    between atoms: N_2  and  C_4
REMARK    4  A    between atoms: N_2  and  C_26
REMARK    5  A    between atoms: C_4  and  C_5
REMARK    6  A    between atoms: C_5  and  C_6
REMARK    7  A    between atoms: C_6  and  C_7
REMARK    8  A    between atoms: C_7  and  C_8
REMARK    9  A    between atoms: C_8  and  C_9
REMARK   10  A    between atoms: C_9  and  N_10
REMARK   11  A    between atoms: N_10  and  C_11
REMARK   12  A    between atoms: N_10  and  C_12
REMARK   13  A    between atoms: N_10  and  C_13
REMARK                            x       y       z     vdW  Elec       q    Type
REMARK                         _______ _______ _______ _____ _____    ______ ____
ROOT
ATOM      1  C   UNL     1      -3.514   2.205 133.672  0.00  0.00    +0.000 C 
ENDROOT
BRANCH   1   2
ATOM      2  C   UNL     1      -4.381   2.882 134.684  0.00  0.00    +0.000 C 
BRANCH   2   3
ATOM      3  C   UNL     1      -3.824   4.240 135.051  0.00  0.00    +0.000 C 
BRANCH   3   5
ATOM      4  C   UNL     1      -6.028   5.293 135.694  0.00  0.00    +0.000 C 
ATOM      5  N   UNL     1      -4.838   5.329 134.739  0.00  0.00    +0.000 N 
ATOM      6  C   UNL     1      -4.168   6.689 134.932  0.00  0.00    +0.000 C 
BRANCH   5   7
ATOM      7  C   UNL     1      -5.291   5.110 133.238  0.00  0.00    +0.000 C 
ATOM      8  C   UNL     1      -6.741   5.487 132.900  0.00  0.00    +0.000 A 
ATOM      9  C   UNL     1      -6.740   6.381 131.802  0.00  0.00    +0.000 A 
ATOM     10  C   UNL     1      -7.935   6.836 131.263  0.00  0.00    +0.000 A 
ATOM     11  C   UNL     1      -9.136   6.407 131.830  0.00  0.00    +0.000 A 
ATOM     12  C   UNL     1      -9.141   5.527 132.922  0.00  0.00    +0.000 A 
ATOM     13  C   UNL     1      -7.939   5.048 133.455  0.00  0.00    +0.000 A 
ATOM     14  C   UNL     1      -5.378   6.648 131.400  0.00  0.00    +0.000 A 
ATOM     15  C   UNL     1      -4.497   5.897 132.195  0.00  0.00    +0.000 A 
ATOM     16  C   UNL     1      -3.123   5.932 131.966  0.00  0.00    +0.000 A 
ATOM     17  C   UNL     1      -2.611   6.837 131.045  0.00  0.00    +0.000 A 
ATOM     18  C   UNL     1      -3.483   7.586 130.256  0.00  0.00    +0.000 A 
ATOM     19  C   UNL     1      -4.870   7.477 130.406  0.00  0.00    +0.000 A 
ENDBRANCH   5   7
ENDBRANCH   3   5
ENDBRANCH   2   3
ENDBRANCH   1   2
BRANCH   1  20
ATOM     20  C   UNL     1      -3.388   0.759 134.105  0.00  0.00    +0.000 C 
BRANCH  20  21
ATOM     21  C   UNL     1      -4.380  -0.011 133.286  0.00  0.00    +0.000 C 
BRANCH  21  22
ATOM     22  C   UNL     1      -4.247   0.349 131.833  0.00  0.00    +0.000 C 
BRANCH  22  23
ATOM     23  N   UNL     1      -5.609   0.447 131.163  0.00  0.00    +0.000 N 
ATOM     24  C   UNL     1      -5.567   0.125 129.653  0.00  0.00    +0.000 C 
ATOM     25  C   UNL     1      -6.543  -0.574 131.793  0.00  0.00    +0.000 C 
BRANCH  23  26
ATOM     26  C   UNL     1      -6.095   1.926 131.403  0.00  0.00    +0.000 C 
ATOM     27  C   UNL     1      -5.422   2.899 130.424  0.00  0.00    +0.000 A 
ATOM     28  C   UNL     1      -6.413   3.511 129.632  0.00  0.00    +0.000 A 
ATOM     29  C   UNL     1      -6.042   4.274 128.533  0.00  0.00    +0.000 A 
ATOM     30  C   UNL     1      -4.685   4.367 128.203  0.00  0.00    +0.000 A 
ATOM     31  C   UNL     1      -3.705   3.749 128.983  0.00  0.00    +0.000 A 
ATOM     32  C   UNL     1      -4.067   3.055 130.133  0.00  0.00    +0.000 A 
ATOM     33  C   UNL     1      -7.721   3.131 130.117  0.00  0.00    +0.000 A 
ATOM     34  C   UNL     1      -7.577   2.203 131.171  0.00  0.00    +0.000 A 
ATOM     35  C   UNL     1      -8.685   1.747 131.882  0.00  0.00    +0.000 A 
ATOM     36  C   UNL     1      -9.953   2.184 131.497  0.00  0.00    +0.000 A 
ATOM     37  C   UNL     1     -10.098   3.082 130.431  0.00  0.00    +0.000 A 
ATOM     38  C   UNL     1      -8.984   3.560 129.734  0.00  0.00    +0.000 A 
ENDBRANCH  23  26
ENDBRANCH  22  23
ENDBRANCH  21  22
ENDBRANCH  20  21
ENDBRANCH   1  20
TORSDOF 9
ENDMDL
MODEL 5
REMARK VINA RESULT:      -6.9      2.084      6.324
REMARK  Name = Hexafluronium
REMARK  13 active torsions:
REMARK  status: ('A' for Active; 'I' for Inactive)
REMARK    1  A    between atoms: C_1  and  N_2
REMARK    2  A    between atoms: N_2  and  C_3
REMARK    3  A    between atoms: N_2  and  C_4
REMARK    4  A    between atoms: N_2  and  C_26
REMARK    5  A    between atoms: C_4  and  C_5
REMARK    6  A    between atoms: C_5  and  C_6
REMARK    7  A    between atoms: C_6  and  C_7
REMARK    8  A    between atoms: C_7  and  C_8
REMARK    9  A    between atoms: C_8  and  C_9
REMARK   10  A    between atoms: C_9  and  N_10
REMARK   11  A    between atoms: N_10  and  C_11
REMARK   12  A    between atoms: N_10  and  C_12
REMARK   13  A    between atoms: N_10  and  C_13
REMARK                            x       y       z     vdW  Elec       q    Type
REMARK                         _______ _______ _______ _____ _____    ______ ____
ROOT
ATOM      1  C   UNL     1      -8.648   2.557 129.672  0.00  0.00    +0.000 C 
ENDROOT
BRANCH   1   2
ATOM      2  C   UNL     1      -8.634   2.445 131.162  0.00  0.00    +0.000 C 
BRANCH   2   3
ATOM      3  C   UNL     1      -7.482   3.227 131.753  0.00  0.00    +0.000 C 
BRANCH   3   5
ATOM      4  C   UNL     1      -9.255   3.336 133.548  0.00  0.00    +0.000 C 
ATOM      5  N   UNL     1      -7.871   3.802 133.105  0.00  0.00    +0.000 N 
ATOM      6  C   UNL     1      -6.885   3.290 134.155  0.00  0.00    +0.000 C 
BRANCH   5   7
ATOM      7  C   UNL     1      -7.806   5.377 132.963  0.00  0.00    +0.000 C 
ATOM      8  C   UNL     1      -6.498   5.959 132.406  0.00  0.00    +0.000 A 
ATOM      9  C   UNL     1      -6.798   6.794 131.303  0.00  0.00    +0.000 A 
ATOM     10  C   UNL     1      -5.790   7.487 130.648  0.00  0.00    +0.000 A 
ATOM     11  C   UNL     1      -4.474   7.336 131.089  0.00  0.00    +0.000 A 
ATOM     12  C   UNL     1      -4.171   6.505 132.177  0.00  0.00    +0.000 A 
ATOM     13  C   UNL     1      -5.187   5.821 132.855  0.00  0.00    +0.000 A 
ATOM     14  C   UNL     1      -8.224   6.786 131.068  0.00  0.00    +0.000 A 
ATOM     15  C   UNL     1      -8.857   5.993 132.039  0.00  0.00    +0.000 A 
ATOM     16  C   UNL     1     -10.245   5.873 132.068  0.00  0.00    +0.000 A 
ATOM     17  C   UNL     1     -10.995   6.415 131.033  0.00  0.00    +0.000 A 
ATOM     18  C   UNL     1     -10.369   7.200 130.065  0.00  0.00    +0.000 A 
ATOM     19  C   UNL     1      -8.987   7.415 130.091  0.00  0.00    +0.000 A 
ENDBRANCH   5   7
ENDBRANCH   3   5
ENDBRANCH   2   3
ENDBRANCH   1   2
BRANCH   1  20
ATOM     20  C   UNL     1      -7.777   3.744 129.318  0.00  0.00    +0.000 C 
BRANCH  20  21
ATOM     21  C   UNL     1      -7.846   3.884 127.827  0.00  0.00    +0.000 C 
BRANCH  21  22
ATOM     22  C   UNL     1      -6.465   4.036 127.253  0.00  0.00    +0.000 C 
BRANCH  22  23
ATOM     23  N   UNL     1      -6.099   2.847 126.378  0.00  0.00    +0.000 N 
ATOM     24  C   UNL     1      -7.272   1.863 126.171  0.00  0.00    +0.000 C 
ATOM     25  C   UNL     1      -5.714   3.352 124.996  0.00  0.00    +0.000 C 
BRANCH  23  26
ATOM     26  C   UNL     1      -4.898   2.136 127.107  0.00  0.00    +0.000 C 
ATOM     27  C   UNL     1      -3.897   3.161 127.659  0.00  0.00    +0.000 A 
ATOM     28  C   UNL     1      -3.830   3.028 129.060  0.00  0.00    +0.000 A 
ATOM     29  C   UNL     1      -3.153   3.980 129.809  0.00  0.00    +0.000 A 
ATOM     30  C   UNL     1      -2.600   5.087 129.156  0.00  0.00    +0.000 A 
ATOM     31  C   UNL     1      -2.678   5.222 127.768  0.00  0.00    +0.000 A 
ATOM     32  C   UNL     1      -3.281   4.228 127.005  0.00  0.00    +0.000 A 
ATOM     33  C   UNL     1      -4.603   1.878 129.473  0.00  0.00    +0.000 A 
ATOM     34  C   UNL     1      -5.242   1.316 128.347  0.00  0.00    +0.000 A 
ATOM     35  C   UNL     1      -5.976   0.136 128.453  0.00  0.00    +0.000 A 
ATOM     36  C   UNL     1      -6.115  -0.454 129.710  0.00  0.00    +0.000 A 
ATOM     37  C   UNL     1      -5.506   0.122 130.832  0.00  0.00    +0.000 A 
ATOM     38  C   UNL     1      -4.748   1.292 130.722  0.00  0.00    +0.000 A 
ENDBRANCH  23  26
ENDBRANCH  22  23
ENDBRANCH  21  22
ENDBRANCH  20  21
ENDBRANCH   1  20
TORSDOF 9
ENDMDL
MODEL 6
REMARK VINA RESULT:      -6.8      1.775      5.217
REMARK  Name = Hexafluronium
REMARK  13 active torsions:
REMARK  status: ('A' for Active; 'I' for Inactive)
REMARK    1  A    between atoms: C_1  and  N_2
REMARK    2  A    between atoms: N_2  and  C_3
REMARK    3  A    between atoms: N_2  and  C_4
REMARK    4  A    between atoms: N_2  and  C_26
REMARK    5  A    between atoms: C_4  and  C_5
REMARK    6  A    between atoms: C_5  and  C_6
REMARK    7  A    between atoms: C_6  and  C_7
REMARK    8  A    between atoms: C_7  and  C_8
REMARK    9  A    between atoms: C_8  and  C_9
REMARK   10  A    between atoms: C_9  and  N_10
REMARK   11  A    between atoms: N_10  and  C_11
REMARK   12  A    between atoms: N_10  and  C_12
REMARK   13  A    between atoms: N_10  and  C_13
REMARK                            x       y       z     vdW  Elec       q    Type
REMARK                         _______ _______ _______ _____ _____    ______ ____
ROOT
ATOM      1  C   UNL     1      -7.739   5.314 133.790  0.00  0.00    +0.000 C 
ENDROOT
BRANCH   1   2
ATOM      2  C   UNL     1      -8.069   5.470 132.340  0.00  0.00    +0.000 C 
BRANCH   2   3
ATOM      3  C   UNL     1      -9.441   4.910 132.036  0.00  0.00    +0.000 C 
BRANCH   3   5
ATOM      4  C   UNL     1     -10.745   3.523 130.375  0.00  0.00    +0.000 C 
ATOM      5  N   UNL     1      -9.476   4.332 130.630  0.00  0.00    +0.000 N 
ATOM      6  C   UNL     1      -9.489   5.487 129.628  0.00  0.00    +0.000 C 
BRANCH   5   7
ATOM      7  C   UNL     1      -8.177   3.441 130.474  0.00  0.00    +0.000 C 
ATOM      8  C   UNL     1      -8.319   1.957 130.842  0.00  0.00    +0.000 A 
ATOM      9  C   UNL     1      -7.873   1.168 129.755  0.00  0.00    +0.000 A 
ATOM     10  C   UNL     1      -7.849  -0.217 129.852  0.00  0.00    +0.000 A 
ATOM     11  C   UNL     1      -8.284  -0.817 131.035  0.00  0.00    +0.000 A 
ATOM     12  C   UNL     1      -8.734  -0.039 132.112  0.00  0.00    +0.000 A 
ATOM     13  C   UNL     1      -8.739   1.358 132.027  0.00  0.00    +0.000 A 
ATOM     14  C   UNL     1      -7.465   2.030 128.670  0.00  0.00    +0.000 A 
ATOM     15  C   UNL     1      -7.597   3.373 129.062  0.00  0.00    +0.000 A 
ATOM     16  C   UNL     1      -7.209   4.406 128.210  0.00  0.00    +0.000 A 
ATOM     17  C   UNL     1      -6.836   4.106 126.906  0.00  0.00    +0.000 A 
ATOM     18  C   UNL     1      -6.708   2.775 126.513  0.00  0.00    +0.000 A 
ATOM     19  C   UNL     1      -6.992   1.729 127.398  0.00  0.00    +0.000 A 
ENDBRANCH   5   7
ENDBRANCH   3   5
ENDBRANCH   2   3
ENDBRANCH   1   2
BRANCH   1  20
ATOM     20  C   UNL     1      -6.284   5.700 133.949  0.00  0.00    +0.000 C 
BRANCH  20  21
ATOM     21  C   UNL     1      -5.762   5.947 132.565  0.00  0.00    +0.000 C 
BRANCH  21  22
ATOM     22  C   UNL     1      -4.278   6.178 132.602  0.00  0.00    +0.000 C 
BRANCH  22  23
ATOM     23  N   UNL     1      -3.518   4.951 132.121  0.00  0.00    +0.000 N 
ATOM     24  C   UNL     1      -2.223   5.302 131.355  0.00  0.00    +0.000 C 
ATOM     25  C   UNL     1      -3.093   4.129 133.327  0.00  0.00    +0.000 C 
BRANCH  23  26
ATOM     26  C   UNL     1      -4.519   4.169 131.191  0.00  0.00    +0.000 C 
ATOM     27  C   UNL     1      -4.121   4.296 129.713  0.00  0.00    +0.000 A 
ATOM     28  C   UNL     1      -3.841   3.013 129.202  0.00  0.00    +0.000 A 
ATOM     29  C   UNL     1      -3.259   2.884 127.949  0.00  0.00    +0.000 A 
ATOM     30  C   UNL     1      -2.908   4.041 127.244  0.00  0.00    +0.000 A 
ATOM     31  C   UNL     1      -3.177   5.312 127.758  0.00  0.00    +0.000 A 
ATOM     32  C   UNL     1      -3.837   5.445 128.975  0.00  0.00    +0.000 A 
ATOM     33  C   UNL     1      -4.173   2.015 130.195  0.00  0.00    +0.000 A 
ATOM     34  C   UNL     1      -4.589   2.657 131.381  0.00  0.00    +0.000 A 
ATOM     35  C   UNL     1      -5.059   1.922 132.468  0.00  0.00    +0.000 A 
ATOM     36  C   UNL     1      -5.060   0.530 132.382  0.00  0.00    +0.000 A 
ATOM     37  C   UNL     1      -4.619  -0.108 131.215  0.00  0.00    +0.000 A 
ATOM     38  C   UNL     1      -4.171   0.631 130.115  0.00  0.00    +0.000 A 
ENDBRANCH  23  26
ENDBRANCH  22  23
ENDBRANCH  21  22
ENDBRANCH  20  21
ENDBRANCH   1  20
TORSDOF 9
ENDMDL
MODEL 7
REMARK VINA RESULT:      -6.8      1.399      4.717
REMARK  Name = Hexafluronium
REMARK  13 active torsions:
REMARK  status: ('A' for Active; 'I' for Inactive)
REMARK    1  A    between atoms: C_1  and  N_2
REMARK    2  A    between atoms: N_2  and  C_3
REMARK    3  A    between atoms: N_2  and  C_4
REMARK    4  A    between atoms: N_2  and  C_26
REMARK    5  A    between atoms: C_4  and  C_5
REMARK    6  A    between atoms: C_5  and  C_6
REMARK    7  A    between atoms: C_6  and  C_7
REMARK    8  A    between atoms: C_7  and  C_8
REMARK    9  A    between atoms: C_8  and  C_9
REMARK   10  A    between atoms: C_9  and  N_10
REMARK   11  A    between atoms: N_10  and  C_11
REMARK   12  A    between atoms: N_10  and  C_12
REMARK   13  A    between atoms: N_10  and  C_13
REMARK                            x       y       z     vdW  Elec       q    Type
REMARK                         _______ _______ _______ _____ _____    ______ ____
ROOT
ATOM      1  C   UNL     1      -7.685   0.278 129.004  0.00  0.00    +0.000 C 
ENDROOT
BRANCH   1   2
ATOM      2  C   UNL     1      -6.746   1.410 128.736  0.00  0.00    +0.000 C 
BRANCH   2   3
ATOM      3  C   UNL     1      -7.220   2.239 127.562  0.00  0.00    +0.000 C 
BRANCH   3   5
ATOM      4  C   UNL     1      -5.412   3.871 126.895  0.00  0.00    +0.000 C 
ATOM      5  N   UNL     1      -6.705   3.664 127.680  0.00  0.00    +0.000 N 
ATOM      6  C   UNL     1      -7.739   4.608 127.067  0.00  0.00    +0.000 C 
BRANCH   5   7
ATOM      7  C   UNL     1      -6.500   3.946 129.223  0.00  0.00    +0.000 C 
ATOM      8  C   UNL     1      -5.262   4.771 129.609  0.00  0.00    +0.000 A 
ATOM      9  C   UNL     1      -5.670   5.870 130.403  0.00  0.00    +0.000 A 
ATOM     10  C   UNL     1      -4.731   6.747 130.928  0.00  0.00    +0.000 A 
ATOM     11  C   UNL     1      -3.380   6.533 130.649  0.00  0.00    +0.000 A 
ATOM     12  C   UNL     1      -2.973   5.449 129.857  0.00  0.00    +0.000 A 
ATOM     13  C   UNL     1      -3.914   4.549 129.344  0.00  0.00    +0.000 A 
ATOM     14  C   UNL     1      -7.107   5.849 130.551  0.00  0.00    +0.000 A 
ATOM     15  C   UNL     1      -7.631   4.719 129.902  0.00  0.00    +0.000 A 
ATOM     16  C   UNL     1      -8.995   4.437 129.950  0.00  0.00    +0.000 A 
ATOM     17  C   UNL     1      -9.861   5.366 130.512  0.00  0.00    +0.000 A 
ATOM     18  C   UNL     1      -9.344   6.491 131.155  0.00  0.00    +0.000 A 
ATOM     19  C   UNL     1      -7.966   6.726 131.204  0.00  0.00    +0.000 A 
ENDBRANCH   5   7
ENDBRANCH   3   5
ENDBRANCH   2   3
ENDBRANCH   1   2
BRANCH   1  20
ATOM     20  C   UNL     1      -6.849  -0.863 129.542  0.00  0.00    +0.000 C 
BRANCH  20  21
ATOM     21  C   UNL     1      -5.846  -0.247 130.469  0.00  0.00    +0.000 C 
BRANCH  21  22
ATOM     22  C   UNL     1      -6.234  -0.501 131.899  0.00  0.00    +0.000 C 
BRANCH  22  23
ATOM     23  N   UNL     1      -5.436   0.379 132.851  0.00  0.00    +0.000 N 
ATOM     24  C   UNL     1      -5.973   0.347 134.299  0.00  0.00    +0.000 C 
ATOM     25  C   UNL     1      -4.005  -0.131 132.912  0.00  0.00    +0.000 C 
BRANCH  23  26
ATOM     26  C   UNL     1      -5.525   1.835 132.257  0.00  0.00    +0.000 C 
ATOM     27  C   UNL     1      -6.865   2.498 132.605  0.00  0.00    +0.000 A 
ATOM     28  C   UNL     1      -6.620   3.650 133.377  0.00  0.00    +0.000 A 
ATOM     29  C   UNL     1      -7.678   4.305 133.991  0.00  0.00    +0.000 A 
ATOM     30  C   UNL     1      -8.965   3.767 133.874  0.00  0.00    +0.000 A 
ATOM     31  C   UNL     1      -9.204   2.618 133.117  0.00  0.00    +0.000 A 
ATOM     32  C   UNL     1      -8.160   2.007 132.432  0.00  0.00    +0.000 A 
ATOM     33  C   UNL     1      -5.196   3.893 133.442  0.00  0.00    +0.000 A 
ATOM     34  C   UNL     1      -4.513   2.849 132.782  0.00  0.00    +0.000 A 
ATOM     35  C   UNL     1      -3.131   2.888 132.615  0.00  0.00    +0.000 A 
ATOM     36  C   UNL     1      -2.421   3.958 133.162  0.00  0.00    +0.000 A 
ATOM     37  C   UNL     1      -3.097   4.979 133.843  0.00  0.00    +0.000 A 
ATOM     38  C   UNL     1      -4.487   4.953 133.989  0.00  0.00    +0.000 A 
ENDBRANCH  23  26
ENDBRANCH  22  23
ENDBRANCH  21  22
ENDBRANCH  20  21
ENDBRANCH   1  20
TORSDOF 9
ENDMDL
MODEL 8
REMARK VINA RESULT:      -6.7      1.687      4.050
REMARK  Name = Hexafluronium
REMARK  13 active torsions:
REMARK  status: ('A' for Active; 'I' for Inactive)
REMARK    1  A    between atoms: C_1  and  N_2
REMARK    2  A    between atoms: N_2  and  C_3
REMARK    3  A    between atoms: N_2  and  C_4
REMARK    4  A    between atoms: N_2  and  C_26
REMARK    5  A    between atoms: C_4  and  C_5
REMARK    6  A    between atoms: C_5  and  C_6
REMARK    7  A    between atoms: C_6  and  C_7
REMARK    8  A    between atoms: C_7  and  C_8
REMARK    9  A    between atoms: C_8  and  C_9
REMARK   10  A    between atoms: C_9  and  N_10
REMARK   11  A    between atoms: N_10  and  C_11
REMARK   12  A    between atoms: N_10  and  C_12
REMARK   13  A    between atoms: N_10  and  C_13
REMARK                            x       y       z     vdW  Elec       q    Type
REMARK                         _______ _______ _______ _____ _____    ______ ____
ROOT
ATOM      1  C   UNL     1      -3.652   3.332 127.300  0.00  0.00    +0.000 C 
ENDROOT
BRANCH   1   2
ATOM      2  C   UNL     1      -4.649   2.595 128.135  0.00  0.00    +0.000 C 
BRANCH   2   3
ATOM      3  C   UNL     1      -5.542   1.730 127.272  0.00  0.00    +0.000 C 
BRANCH   3   5
ATOM      4  C   UNL     1      -7.451   3.261 126.643  0.00  0.00    +0.000 C 
ATOM      5  N   UNL     1      -7.003   2.083 127.504  0.00  0.00    +0.000 N 
ATOM      6  C   UNL     1      -7.864   0.890 127.088  0.00  0.00    +0.000 C 
BRANCH   5   7
ATOM      7  C   UNL     1      -7.153   2.400 129.047  0.00  0.00    +0.000 C 
ATOM      8  C   UNL     1      -8.282   3.364 129.440  0.00  0.00    +0.000 A 
ATOM      9  C   UNL     1      -9.088   2.750 130.429  0.00  0.00    +0.000 A 
ATOM     10  C   UNL     1     -10.155   3.435 130.994  0.00  0.00    +0.000 A 
ATOM     11  C   UNL     1     -10.425   4.735 130.562  0.00  0.00    +0.000 A 
ATOM     12  C   UNL     1      -9.633   5.344 129.578  0.00  0.00    +0.000 A 
ATOM     13  C   UNL     1      -8.543   4.665 129.020  0.00  0.00    +0.000 A 
ATOM     14  C   UNL     1      -8.586   1.423 130.704  0.00  0.00    +0.000 A 
ATOM     15  C   UNL     1      -7.431   1.190 129.938  0.00  0.00    +0.000 A 
ATOM     16  C   UNL     1      -6.719  -0.001 130.068  0.00  0.00    +0.000 A 
ATOM     17  C   UNL     1      -7.244  -1.025 130.845  0.00  0.00    +0.000 A 
ATOM     18  C   UNL     1      -8.392  -0.797 131.604  0.00  0.00    +0.000 A 
ATOM     19  C   UNL     1      -9.053   0.435 131.562  0.00  0.00    +0.000 A 
ENDBRANCH   5   7
ENDBRANCH   3   5
ENDBRANCH   2   3
ENDBRANCH   1   2
BRANCH   1  20
ATOM     20  C   UNL     1      -2.792   4.133 128.254  0.00  0.00    +0.000 C 
BRANCH  20  21
ATOM     21  C   UNL     1      -3.691   4.548 129.380  0.00  0.00    +0.000 C 
BRANCH  21  22
ATOM     22  C   UNL     1      -2.927   4.573 130.674  0.00  0.00    +0.000 C 
BRANCH  22  23
ATOM     23  N   UNL     1      -3.839   4.908 131.845  0.00  0.00    +0.000 N 
ATOM     24  C   UNL     1      -3.223   4.550 133.215  0.00  0.00    +0.000 C 
ATOM     25  C   UNL     1      -4.085   6.409 131.864  0.00  0.00    +0.000 C 
BRANCH  23  26
ATOM     26  C   UNL     1      -5.163   4.091 131.600  0.00  0.00    +0.000 C 
ATOM     27  C   UNL     1      -4.996   2.623 132.018  0.00  0.00    +0.000 A 
ATOM     28  C   UNL     1      -5.912   2.332 133.048  0.00  0.00    +0.000 A 
ATOM     29  C   UNL     1      -5.814   1.132 133.736  0.00  0.00    +0.000 A 
ATOM     30  C   UNL     1      -4.765   0.259 133.428  0.00  0.00    +0.000 A 
ATOM     31  C   UNL     1      -3.851   0.555 132.413  0.00  0.00    +0.000 A 
ATOM     32  C   UNL     1      -3.996   1.717 131.664  0.00  0.00    +0.000 A 
ATOM     33  C   UNL     1      -6.790   3.464 133.246  0.00  0.00    +0.000 A 
ATOM     34  C   UNL     1      -6.388   4.521 132.401  0.00  0.00    +0.000 A 
ATOM     35  C   UNL     1      -7.128   5.699 132.324  0.00  0.00    +0.000 A 
ATOM     36  C   UNL     1      -8.249   5.839 133.143  0.00  0.00    +0.000 A 
ATOM     37  C   UNL     1      -8.630   4.802 134.003  0.00  0.00    +0.000 A 
ATOM     38  C   UNL     1      -7.903   3.609 134.061  0.00  0.00    +0.000 A 
ENDBRANCH  23  26
ENDBRANCH  22  23
ENDBRANCH  21  22
ENDBRANCH  20  21
ENDBRANCH   1  20
TORSDOF 9
ENDMDL
MODEL 9
REMARK VINA RESULT:      -6.7      3.412      7.047
REMARK  Name = Hexafluronium
REMARK  13 active torsions:
REMARK  status: ('A' for Active; 'I' for Inactive)
REMARK    1  A    between atoms: C_1  and  N_2
REMARK    2  A    between atoms: N_2  and  C_3
REMARK    3  A    between atoms: N_2  and  C_4
REMARK    4  A    between atoms: N_2  and  C_26
REMARK    5  A    between atoms: C_4  and  C_5
REMARK    6  A    between atoms: C_5  and  C_6
REMARK    7  A    between atoms: C_6  and  C_7
REMARK    8  A    between atoms: C_7  and  C_8
REMARK    9  A    between atoms: C_8  and  C_9
REMARK   10  A    between atoms: C_9  and  N_10
REMARK   11  A    between atoms: N_10  and  C_11
REMARK   12  A    between atoms: N_10  and  C_12
REMARK   13  A    between atoms: N_10  and  C_13
REMARK                            x       y       z     vdW  Elec       q    Type
REMARK                         _______ _______ _______ _____ _____    ______ ____
ROOT
ATOM      1  C   UNL     1      -8.201   3.249 129.571  0.00  0.00    +0.000 C 
ENDROOT
BRANCH   1   2
ATOM      2  C   UNL     1      -8.343   2.695 130.952  0.00  0.00    +0.000 C 
BRANCH   2   3
ATOM      3  C   UNL     1      -7.210   3.161 131.840  0.00  0.00    +0.000 C 
BRANCH   3   5
ATOM      4  C   UNL     1      -9.173   3.238 133.428  0.00  0.00    +0.000 C 
ATOM      5  N   UNL     1      -7.756   3.727 133.141  0.00  0.00    +0.000 N 
ATOM      6  C   UNL     1      -6.884   3.228 134.294  0.00  0.00    +0.000 C 
BRANCH   5   7
ATOM      7  C   UNL     1      -7.700   5.303 133.009  0.00  0.00    +0.000 C 
ATOM      8  C   UNL     1      -6.420   5.892 132.399  0.00  0.00    +0.000 A 
ATOM      9  C   UNL     1      -6.771   6.735 131.317  0.00  0.00    +0.000 A 
ATOM     10  C   UNL     1      -5.794   7.435 130.623  0.00  0.00    +0.000 A 
ATOM     11  C   UNL     1      -4.459   7.284 131.003  0.00  0.00    +0.000 A 
ATOM     12  C   UNL     1      -4.107   6.445 132.069  0.00  0.00    +0.000 A 
ATOM     13  C   UNL     1      -5.090   5.754 132.787  0.00  0.00    +0.000 A 
ATOM     14  C   UNL     1      -8.206   6.726 131.145  0.00  0.00    +0.000 A 
ATOM     15  C   UNL     1      -8.793   5.924 132.138  0.00  0.00    +0.000 A 
ATOM     16  C   UNL     1     -10.178   5.800 132.229  0.00  0.00    +0.000 A 
ATOM     17  C   UNL     1     -10.975   6.349 131.232  0.00  0.00    +0.000 A 
ATOM     18  C   UNL     1     -10.395   7.143 130.244  0.00  0.00    +0.000 A 
ATOM     19  C   UNL     1      -9.014   7.361 130.209  0.00  0.00    +0.000 A 
ENDBRANCH   5   7
ENDBRANCH   3   5
ENDBRANCH   2   3
ENDBRANCH   1   2
BRANCH   1  20
ATOM     20  C   UNL     1      -8.784   2.218 128.628  0.00  0.00    +0.000 C 
BRANCH  20  21
ATOM     21  C   UNL     1      -7.821   1.070 128.614  0.00  0.00    +0.000 C 
BRANCH  21  22
ATOM     22  C   UNL     1      -7.987   0.266 127.355  0.00  0.00    +0.000 C 
BRANCH  22  23
ATOM     23  N   UNL     1      -6.667   0.133 126.610  0.00  0.00    +0.000 N 
ATOM     24  C   UNL     1      -6.561   1.076 125.391  0.00  0.00    +0.000 C 
ATOM     25  C   UNL     1      -5.531   0.513 127.547  0.00  0.00    +0.000 C 
BRANCH  23  26
ATOM     26  C   UNL     1      -6.585  -1.373 126.156  0.00  0.00    +0.000 C 
ATOM     27  C   UNL     1      -7.074  -2.316 127.266  0.00  0.00    +0.000 A 
ATOM     28  C   UNL     1      -8.194  -3.031 126.800  0.00  0.00    +0.000 A 
ATOM     29  C   UNL     1      -8.942  -3.792 127.687  0.00  0.00    +0.000 A 
ATOM     30  C   UNL     1      -8.596  -3.783 129.043  0.00  0.00    +0.000 A 
ATOM     31  C   UNL     1      -7.492  -3.064 129.505  0.00  0.00    +0.000 A 
ATOM     32  C   UNL     1      -6.690  -2.368 128.607  0.00  0.00    +0.000 A 
ATOM     33  C   UNL     1      -8.399  -2.746 125.397  0.00  0.00    +0.000 A 
ATOM     34  C   UNL     1      -7.461  -1.779 124.975  0.00  0.00    +0.000 A 
ATOM     35  C   UNL     1      -7.378  -1.395 123.639  0.00  0.00    +0.000 A 
ATOM     36  C   UNL     1      -8.280  -1.946 122.728  0.00  0.00    +0.000 A 
ATOM     37  C   UNL     1      -9.230  -2.884 123.153  0.00  0.00    +0.000 A 
ATOM     38  C   UNL     1      -9.297  -3.288 124.490  0.00  0.00    +0.000 A 
ENDBRANCH  23  26
ENDBRANCH  22  23
ENDBRANCH  21  22
ENDBRANCH  20  21
ENDBRANCH   1  20
TORSDOF 9
ENDMDL
