MODEL 1
REMARK VINA RESULT:      -5.0      0.000      0.000
REMARK  Name = Hexaminolevulinate
REMARK  12 active torsions:
REMARK  status: ('A' for Active; 'I' for Inactive)
REMARK    1  A    between atoms: N_2  and  C_4
REMARK    2  A    between atoms: C_4  and  C_5
REMARK    3  A    between atoms: C_5  and  C_7
REMARK    4  A    between atoms: C_7  and  C_8
REMARK    5  A    between atoms: C_8  and  C_9
REMARK    6  A    between atoms: C_9  and  O_11
REMARK    7  A    between atoms: O_11  and  C_12
REMARK    8  A    between atoms: C_12  and  C_13
REMARK    9  A    between atoms: C_13  and  C_14
REMARK   10  A    between atoms: C_14  and  C_15
REMARK   11  A    between atoms: C_15  and  C_16
REMARK   12  A    between atoms: C_16  and  C_17
REMARK                            x       y       z     vdW  Elec       q    Type
REMARK                         _______ _______ _______ _____ _____    ______ ____
ROOT
ATOM      1  C   UNL     1     -12.424   6.310 130.130  0.00  0.00    +0.000 C 
ATOM      2  O   UNL     1     -12.499   6.651 131.306  0.00  0.00    +0.000 OA
ENDROOT
BRANCH   1   3
ATOM      3  C   UNL     1     -13.124   7.027 128.999  0.00  0.00    +0.000 C 
BRANCH   3   4
ATOM      4  C   UNL     1     -12.439   8.364 128.682  0.00  0.00    +0.000 C 
BRANCH   4   5
ATOM      5  C   UNL     1     -11.244   8.181 127.761  0.00  0.00    +0.000 C 
ATOM      6  O   UNL     1     -10.155   8.695 128.028  0.00  0.00    +0.000 OA
BRANCH   5   7
ATOM      7  C   UNL     1     -11.484   7.374 126.474  0.00  0.00    +0.000 C 
BRANCH   7   9
ATOM      8  H   UNL     1     -11.192   8.972 125.198  0.00  0.00    +0.000 HD
ATOM      9  N   UNL     1     -10.837   8.029 125.332  0.00  0.00    +0.000 NA
ATOM     10  H   UNL     1      -9.834   8.099 125.514  0.00  0.00    +0.000 HD
ENDBRANCH   7   9
ENDBRANCH   5   7
ENDBRANCH   4   5
ENDBRANCH   3   4
ENDBRANCH   1   3
BRANCH   1  11
ATOM     11  O   UNL     1     -11.699   5.243 129.678  0.00  0.00    +0.000 OA
BRANCH  11  12
ATOM     12  C   UNL     1     -10.500   4.994 130.439  0.00  0.00    +0.000 C 
BRANCH  12  13
ATOM     13  C   UNL     1      -9.316   5.734 129.817  0.00  0.00    +0.000 C 
BRANCH  13  14
ATOM     14  C   UNL     1      -8.814   6.853 130.733  0.00  0.00    +0.000 C 
BRANCH  14  15
ATOM     15  C   UNL     1      -8.320   6.299 132.068  0.00  0.00    +0.000 C 
BRANCH  15  16
ATOM     16  C   UNL     1      -6.817   6.030 132.034  0.00  0.00    +0.000 C 
ATOM     17  C   UNL     1      -6.122   6.978 131.072  0.00  0.00    +0.000 C 
ENDBRANCH  15  16
ENDBRANCH  14  15
ENDBRANCH  13  14
ENDBRANCH  12  13
ENDBRANCH  11  12
ENDBRANCH   1  11
TORSDOF 11
ENDMDL
MODEL 2
REMARK VINA RESULT:      -4.9      2.923      5.549
REMARK  Name = Hexaminolevulinate
REMARK  12 active torsions:
REMARK  status: ('A' for Active; 'I' for Inactive)
REMARK    1  A    between atoms: N_2  and  C_4
REMARK    2  A    between atoms: C_4  and  C_5
REMARK    3  A    between atoms: C_5  and  C_7
REMARK    4  A    between atoms: C_7  and  C_8
REMARK    5  A    between atoms: C_8  and  C_9
REMARK    6  A    between atoms: C_9  and  O_11
REMARK    7  A    between atoms: O_11  and  C_12
REMARK    8  A    between atoms: C_12  and  C_13
REMARK    9  A    between atoms: C_13  and  C_14
REMARK   10  A    between atoms: C_14  and  C_15
REMARK   11  A    between atoms: C_15  and  C_16
REMARK   12  A    between atoms: C_16  and  C_17
REMARK                            x       y       z     vdW  Elec       q    Type
REMARK                         _______ _______ _______ _____ _____    ______ ____
ROOT
ATOM      1  C   UNL     1      -9.989   5.786 130.213  0.00  0.00    +0.000 C 
ATOM      2  O   UNL     1      -9.630   5.174 129.212  0.00  0.00    +0.000 OA
ENDROOT
BRANCH   1   3
ATOM      3  C   UNL     1      -9.183   6.889 130.859  0.00  0.00    +0.000 C 
BRANCH   3   4
ATOM      4  C   UNL     1      -7.784   6.395 131.254  0.00  0.00    +0.000 C 
BRANCH   4   5
ATOM      5  C   UNL     1      -7.852   5.209 132.203  0.00  0.00    +0.000 C 
ATOM      6  O   UNL     1      -7.347   4.126 131.899  0.00  0.00    +0.000 OA
BRANCH   5   7
ATOM      7  C   UNL     1      -8.620   5.423 133.518  0.00  0.00    +0.000 C 
BRANCH   7   9
ATOM      8  H   UNL     1     -10.503   4.866 134.158  0.00  0.00    +0.000 HD
ATOM      9  N   UNL     1      -9.736   4.476 133.618  0.00  0.00    +0.000 NA
ATOM     10  H   UNL     1     -10.087   4.278 132.679  0.00  0.00    +0.000 HD
ENDBRANCH   7   9
ENDBRANCH   5   7
ENDBRANCH   4   5
ENDBRANCH   3   4
ENDBRANCH   1   3
BRANCH   1  11
ATOM     11  O   UNL     1     -11.161   5.560 130.879  0.00  0.00    +0.000 OA
BRANCH  11  12
ATOM     12  C   UNL     1     -11.641   6.706 131.611  0.00  0.00    +0.000 C 
BRANCH  12  13
ATOM     13  C   UNL     1     -12.923   7.242 130.975  0.00  0.00    +0.000 C 
BRANCH  13  14
ATOM     14  C   UNL     1     -12.613   8.224 129.841  0.00  0.00    +0.000 C 
BRANCH  14  15
ATOM     15  C   UNL     1     -13.093   7.686 128.494  0.00  0.00    +0.000 C 
BRANCH  15  16
ATOM     16  C   UNL     1     -11.940   7.583 127.497  0.00  0.00    +0.000 C 
ATOM     17  C   UNL     1     -10.780   8.465 127.922  0.00  0.00    +0.000 C 
ENDBRANCH  15  16
ENDBRANCH  14  15
ENDBRANCH  13  14
ENDBRANCH  12  13
ENDBRANCH  11  12
ENDBRANCH   1  11
TORSDOF 11
ENDMDL
MODEL 3
REMARK VINA RESULT:      -4.9      9.160     10.095
REMARK  Name = Hexaminolevulinate
REMARK  12 active torsions:
REMARK  status: ('A' for Active; 'I' for Inactive)
REMARK    1  A    between atoms: N_2  and  C_4
REMARK    2  A    between atoms: C_4  and  C_5
REMARK    3  A    between atoms: C_5  and  C_7
REMARK    4  A    between atoms: C_7  and  C_8
REMARK    5  A    between atoms: C_8  and  C_9
REMARK    6  A    between atoms: C_9  and  O_11
REMARK    7  A    between atoms: O_11  and  C_12
REMARK    8  A    between atoms: C_12  and  C_13
REMARK    9  A    between atoms: C_13  and  C_14
REMARK   10  A    between atoms: C_14  and  C_15
REMARK   11  A    between atoms: C_15  and  C_16
REMARK   12  A    between atoms: C_16  and  C_17
REMARK                            x       y       z     vdW  Elec       q    Type
REMARK                         _______ _______ _______ _____ _____    ______ ____
ROOT
ATOM      1  C   UNL     1      -9.785  -0.151 122.957  0.00  0.00    +0.000 C 
ATOM      2  O   UNL     1     -10.623   0.273 122.167  0.00  0.00    +0.000 OA
ENDROOT
BRANCH   1   3
ATOM      3  C   UNL     1      -8.792   0.727 123.683  0.00  0.00    +0.000 C 
BRANCH   3   4
ATOM      4  C   UNL     1      -8.833   2.167 123.151  0.00  0.00    +0.000 C 
BRANCH   4   5
ATOM      5  C   UNL     1      -8.226   3.150 124.139  0.00  0.00    +0.000 C 
ATOM      6  O   UNL     1      -8.870   3.550 125.111  0.00  0.00    +0.000 OA
BRANCH   5   7
ATOM      7  C   UNL     1      -6.803   3.645 123.830  0.00  0.00    +0.000 C 
BRANCH   7   9
ATOM      8  H   UNL     1      -6.632   4.844 125.504  0.00  0.00    +0.000 HD
ATOM      9  N   UNL     1      -6.553   4.929 124.495  0.00  0.00    +0.000 NA
ATOM     10  H   UNL     1      -5.600   5.232 124.284  0.00  0.00    +0.000 HD
ENDBRANCH   7   9
ENDBRANCH   5   7
ENDBRANCH   4   5
ENDBRANCH   3   4
ENDBRANCH   1   3
BRANCH   1  11
ATOM     11  O   UNL     1      -9.636  -1.467 123.293  0.00  0.00    +0.000 OA
BRANCH  11  12
ATOM     12  C   UNL     1      -8.266  -1.916 123.283  0.00  0.00    +0.000 C 
BRANCH  12  13
ATOM     13  C   UNL     1      -8.111  -3.166 124.147  0.00  0.00    +0.000 C 
BRANCH  13  14
ATOM     14  C   UNL     1      -6.638  -3.465 124.437  0.00  0.00    +0.000 C 
BRANCH  14  15
ATOM     15  C   UNL     1      -5.717  -2.558 123.624  0.00  0.00    +0.000 C 
BRANCH  15  16
ATOM     16  C   UNL     1      -4.378  -3.237 123.342  0.00  0.00    +0.000 C 
ATOM     17  C   UNL     1      -4.456  -4.724 123.638  0.00  0.00    +0.000 C 
ENDBRANCH  15  16
ENDBRANCH  14  15
ENDBRANCH  13  14
ENDBRANCH  12  13
ENDBRANCH  11  12
ENDBRANCH   1  11
TORSDOF 11
ENDMDL
MODEL 4
REMARK VINA RESULT:      -4.8      3.382      5.468
REMARK  Name = Hexaminolevulinate
REMARK  12 active torsions:
REMARK  status: ('A' for Active; 'I' for Inactive)
REMARK    1  A    between atoms: N_2  and  C_4
REMARK    2  A    between atoms: C_4  and  C_5
REMARK    3  A    between atoms: C_5  and  C_7
REMARK    4  A    between atoms: C_7  and  C_8
REMARK    5  A    between atoms: C_8  and  C_9
REMARK    6  A    between atoms: C_9  and  O_11
REMARK    7  A    between atoms: O_11  and  C_12
REMARK    8  A    between atoms: C_12  and  C_13
REMARK    9  A    between atoms: C_13  and  C_14
REMARK   10  A    between atoms: C_14  and  C_15
REMARK   11  A    between atoms: C_15  and  C_16
REMARK   12  A    between atoms: C_16  and  C_17
REMARK                            x       y       z     vdW  Elec       q    Type
REMARK                         _______ _______ _______ _____ _____    ______ ____
ROOT
ATOM      1  C   UNL     1     -11.052   6.160 131.681  0.00  0.00    +0.000 C 
ATOM      2  O   UNL     1     -10.369   6.534 132.629  0.00  0.00    +0.000 OA
ENDROOT
BRANCH   1   3
ATOM      3  C   UNL     1     -10.495   5.443 130.473  0.00  0.00    +0.000 C 
BRANCH   3   4
ATOM      4  C   UNL     1     -10.903   3.962 130.472  0.00  0.00    +0.000 C 
BRANCH   4   5
ATOM      5  C   UNL     1      -9.707   3.048 130.262  0.00  0.00    +0.000 C 
ATOM      6  O   UNL     1      -9.305   2.783 129.126  0.00  0.00    +0.000 OA
BRANCH   5   7
ATOM      7  C   UNL     1      -9.072   2.444 131.526  0.00  0.00    +0.000 C 
BRANCH   7   9
ATOM      8  H   UNL     1      -9.512   2.343 133.542  0.00  0.00    +0.000 HD
ATOM      9  N   UNL     1      -9.975   2.594 132.672  0.00  0.00    +0.000 NA
ATOM     10  H   UNL     1     -10.259   3.574 132.745  0.00  0.00    +0.000 HD
ENDBRANCH   7   9
ENDBRANCH   5   7
ENDBRANCH   4   5
ENDBRANCH   3   4
ENDBRANCH   1   3
BRANCH   1  11
ATOM     11  O   UNL     1     -12.404   6.335 131.585  0.00  0.00    +0.000 OA
BRANCH  11  12
ATOM     12  C   UNL     1     -12.802   7.716 131.471  0.00  0.00    +0.000 C 
BRANCH  12  13
ATOM     13  C   UNL     1     -12.711   8.176 130.017  0.00  0.00    +0.000 C 
BRANCH  13  14
ATOM     14  C   UNL     1     -13.483   7.236 129.086  0.00  0.00    +0.000 C 
BRANCH  14  15
ATOM     15  C   UNL     1     -12.714   6.982 127.791  0.00  0.00    +0.000 C 
BRANCH  15  16
ATOM     16  C   UNL     1     -11.521   7.926 127.661  0.00  0.00    +0.000 C 
ATOM     17  C   UNL     1     -10.840   7.752 126.315  0.00  0.00    +0.000 C 
ENDBRANCH  15  16
ENDBRANCH  14  15
ENDBRANCH  13  14
ENDBRANCH  12  13
ENDBRANCH  11  12
ENDBRANCH   1  11
TORSDOF 11
ENDMDL
MODEL 5
REMARK VINA RESULT:      -4.8      9.150     10.044
REMARK  Name = Hexaminolevulinate
REMARK  12 active torsions:
REMARK  status: ('A' for Active; 'I' for Inactive)
REMARK    1  A    between atoms: N_2  and  C_4
REMARK    2  A    between atoms: C_4  and  C_5
REMARK    3  A    between atoms: C_5  and  C_7
REMARK    4  A    between atoms: C_7  and  C_8
REMARK    5  A    between atoms: C_8  and  C_9
REMARK    6  A    between atoms: C_9  and  O_11
REMARK    7  A    between atoms: O_11  and  C_12
REMARK    8  A    between atoms: C_12  and  C_13
REMARK    9  A    between atoms: C_13  and  C_14
REMARK   10  A    between atoms: C_14  and  C_15
REMARK   11  A    between atoms: C_15  and  C_16
REMARK   12  A    between atoms: C_16  and  C_17
REMARK                            x       y       z     vdW  Elec       q    Type
REMARK                         _______ _______ _______ _____ _____    ______ ____
ROOT
ATOM      1  C   UNL     1      -8.617  -0.588 125.726  0.00  0.00    +0.000 C 
ATOM      2  O   UNL     1      -8.335  -0.835 126.894  0.00  0.00    +0.000 OA
ENDROOT
BRANCH   1   3
ATOM      3  C   UNL     1      -8.101   0.615 124.971  0.00  0.00    +0.000 C 
BRANCH   3   4
ATOM      4  C   UNL     1      -9.228   1.621 124.695  0.00  0.00    +0.000 C 
BRANCH   4   5
ATOM      5  C   UNL     1      -9.217   2.098 123.252  0.00  0.00    +0.000 C 
ATOM      6  O   UNL     1      -8.807   3.225 122.961  0.00  0.00    +0.000 OA
BRANCH   5   7
ATOM      7  C   UNL     1      -9.783   1.128 122.201  0.00  0.00    +0.000 C 
BRANCH   7   9
ATOM      8  H   UNL     1     -11.398   0.924 123.473  0.00  0.00    +0.000 HD
ATOM      9  N   UNL     1     -10.924   0.388 122.752  0.00  0.00    +0.000 NA
ATOM     10  H   UNL     1     -11.598   0.213 122.003  0.00  0.00    +0.000 HD
ENDBRANCH   7   9
ENDBRANCH   5   7
ENDBRANCH   4   5
ENDBRANCH   3   4
ENDBRANCH   1   3
BRANCH   1  11
ATOM     11  O   UNL     1      -9.430  -1.363 124.946  0.00  0.00    +0.000 OA
BRANCH  11  12
ATOM     12  C   UNL     1      -9.238  -2.779 125.138  0.00  0.00    +0.000 C 
BRANCH  12  13
ATOM     13  C   UNL     1      -8.440  -3.368 123.975  0.00  0.00    +0.000 C 
BRANCH  13  14
ATOM     14  C   UNL     1      -6.973  -3.584 124.358  0.00  0.00    +0.000 C 
BRANCH  14  15
ATOM     15  C   UNL     1      -6.064  -2.567 123.671  0.00  0.00    +0.000 C 
BRANCH  15  16
ATOM     16  C   UNL     1      -4.691  -3.166 123.371  0.00  0.00    +0.000 C 
ATOM     17  C   UNL     1      -4.644  -4.630 123.770  0.00  0.00    +0.000 C 
ENDBRANCH  15  16
ENDBRANCH  14  15
ENDBRANCH  13  14
ENDBRANCH  12  13
ENDBRANCH  11  12
ENDBRANCH   1  11
TORSDOF 11
ENDMDL
MODEL 6
REMARK VINA RESULT:      -4.7      8.622      9.739
REMARK  Name = Hexaminolevulinate
REMARK  12 active torsions:
REMARK  status: ('A' for Active; 'I' for Inactive)
REMARK    1  A    between atoms: N_2  and  C_4
REMARK    2  A    between atoms: C_4  and  C_5
REMARK    3  A    between atoms: C_5  and  C_7
REMARK    4  A    between atoms: C_7  and  C_8
REMARK    5  A    between atoms: C_8  and  C_9
REMARK    6  A    between atoms: C_9  and  O_11
REMARK    7  A    between atoms: O_11  and  C_12
REMARK    8  A    between atoms: C_12  and  C_13
REMARK    9  A    between atoms: C_13  and  C_14
REMARK   10  A    between atoms: C_14  and  C_15
REMARK   11  A    between atoms: C_15  and  C_16
REMARK   12  A    between atoms: C_16  and  C_17
REMARK                            x       y       z     vdW  Elec       q    Type
REMARK                         _______ _______ _______ _____ _____    ______ ____
ROOT
ATOM      1  C   UNL     1      -9.803   0.399 123.185  0.00  0.00    +0.000 C 
ATOM      2  O   UNL     1     -10.674   0.191 122.347  0.00  0.00    +0.000 OA
ENDROOT
BRANCH   1   3
ATOM      3  C   UNL     1      -9.433   1.773 123.692  0.00  0.00    +0.000 C 
BRANCH   3   4
ATOM      4  C   UNL     1      -7.958   2.091 123.403  0.00  0.00    +0.000 C 
BRANCH   4   5
ATOM      5  C   UNL     1      -7.810   3.118 122.292  0.00  0.00    +0.000 C 
ATOM      6  O   UNL     1      -8.795   3.525 121.671  0.00  0.00    +0.000 OA
BRANCH   5   7
ATOM      7  C   UNL     1      -6.378   3.571 121.961  0.00  0.00    +0.000 C 
BRANCH   7   9
ATOM      8  H   UNL     1      -5.241   4.034 123.622  0.00  0.00    +0.000 HD
ATOM      9  N   UNL     1      -5.885   4.497 122.987  0.00  0.00    +0.000 NA
ATOM     10  H   UNL     1      -5.378   5.258 122.531  0.00  0.00    +0.000 HD
ENDBRANCH   7   9
ENDBRANCH   5   7
ENDBRANCH   4   5
ENDBRANCH   3   4
ENDBRANCH   1   3
BRANCH   1  11
ATOM     11  O   UNL     1      -9.052  -0.577 123.778  0.00  0.00    +0.000 OA
BRANCH  11  12
ATOM     12  C   UNL     1      -8.668  -1.639 122.881  0.00  0.00    +0.000 C 
BRANCH  12  13
ATOM     13  C   UNL     1      -9.238  -2.972 123.363  0.00  0.00    +0.000 C 
BRANCH  13  14
ATOM     14  C   UNL     1      -9.433  -2.977 124.882  0.00  0.00    +0.000 C 
BRANCH  14  15
ATOM     15  C   UNL     1      -8.168  -3.437 125.604  0.00  0.00    +0.000 C 
BRANCH  15  16
ATOM     16  C   UNL     1      -8.168  -2.986 127.063  0.00  0.00    +0.000 C 
ATOM     17  C   UNL     1      -8.946  -3.962 127.928  0.00  0.00    +0.000 C 
ENDBRANCH  15  16
ENDBRANCH  14  15
ENDBRANCH  13  14
ENDBRANCH  12  13
ENDBRANCH  11  12
ENDBRANCH   1  11
TORSDOF 11
ENDMDL
MODEL 7
REMARK VINA RESULT:      -4.7      8.612      9.817
REMARK  Name = Hexaminolevulinate
REMARK  12 active torsions:
REMARK  status: ('A' for Active; 'I' for Inactive)
REMARK    1  A    between atoms: N_2  and  C_4
REMARK    2  A    between atoms: C_4  and  C_5
REMARK    3  A    between atoms: C_5  and  C_7
REMARK    4  A    between atoms: C_7  and  C_8
REMARK    5  A    between atoms: C_8  and  C_9
REMARK    6  A    between atoms: C_9  and  O_11
REMARK    7  A    between atoms: O_11  and  C_12
REMARK    8  A    between atoms: C_12  and  C_13
REMARK    9  A    between atoms: C_13  and  C_14
REMARK   10  A    between atoms: C_14  and  C_15
REMARK   11  A    between atoms: C_15  and  C_16
REMARK   12  A    between atoms: C_16  and  C_17
REMARK                            x       y       z     vdW  Elec       q    Type
REMARK                         _______ _______ _______ _____ _____    ______ ____
ROOT
ATOM      1  C   UNL     1      -8.362   2.450 123.870  0.00  0.00    +0.000 C 
ATOM      2  O   UNL     1      -9.188   2.726 124.734  0.00  0.00    +0.000 OA
ENDROOT
BRANCH   1   3
ATOM      3  C   UNL     1      -7.047   3.173 123.700  0.00  0.00    +0.000 C 
BRANCH   3   4
ATOM      4  C   UNL     1      -6.528   3.049 122.260  0.00  0.00    +0.000 C 
BRANCH   4   5
ATOM      5  C   UNL     1      -5.620   4.209 121.886  0.00  0.00    +0.000 C 
ATOM      6  O   UNL     1      -5.030   4.857 122.754  0.00  0.00    +0.000 OA
BRANCH   5   7
ATOM      7  C   UNL     1      -5.523   4.553 120.390  0.00  0.00    +0.000 C 
BRANCH   7   9
ATOM      8  H   UNL     1      -5.125   6.487 120.995  0.00  0.00    +0.000 HD
ATOM      9  N   UNL     1      -4.922   5.878 120.208  0.00  0.00    +0.000 NA
ATOM     10  H   UNL     1      -3.906   5.777 120.150  0.00  0.00    +0.000 HD
ENDBRANCH   7   9
ENDBRANCH   5   7
ENDBRANCH   4   5
ENDBRANCH   3   4
ENDBRANCH   1   3
BRANCH   1  11
ATOM     11  O   UNL     1      -8.513   1.453 122.947  0.00  0.00    +0.000 OA
BRANCH  11  12
ATOM     12  C   UNL     1      -8.914   0.191 123.517  0.00  0.00    +0.000 C 
BRANCH  12  13
ATOM     13  C   UNL     1      -7.813  -0.851 123.324  0.00  0.00    +0.000 C 
BRANCH  13  14
ATOM     14  C   UNL     1      -8.327  -2.068 122.551  0.00  0.00    +0.000 C 
BRANCH  14  15
ATOM     15  C   UNL     1      -9.283  -2.903 123.401  0.00  0.00    +0.000 C 
BRANCH  15  16
ATOM     16  C   UNL     1      -8.582  -3.457 124.640  0.00  0.00    +0.000 C 
ATOM     17  C   UNL     1      -9.319  -3.051 125.903  0.00  0.00    +0.000 C 
ENDBRANCH  15  16
ENDBRANCH  14  15
ENDBRANCH  13  14
ENDBRANCH  12  13
ENDBRANCH  11  12
ENDBRANCH   1  11
TORSDOF 11
ENDMDL
MODEL 8
REMARK VINA RESULT:      -4.6      1.751      2.411
REMARK  Name = Hexaminolevulinate
REMARK  12 active torsions:
REMARK  status: ('A' for Active; 'I' for Inactive)
REMARK    1  A    between atoms: N_2  and  C_4
REMARK    2  A    between atoms: C_4  and  C_5
REMARK    3  A    between atoms: C_5  and  C_7
REMARK    4  A    between atoms: C_7  and  C_8
REMARK    5  A    between atoms: C_8  and  C_9
REMARK    6  A    between atoms: C_9  and  O_11
REMARK    7  A    between atoms: O_11  and  C_12
REMARK    8  A    between atoms: C_12  and  C_13
REMARK    9  A    between atoms: C_13  and  C_14
REMARK   10  A    between atoms: C_14  and  C_15
REMARK   11  A    between atoms: C_15  and  C_16
REMARK   12  A    between atoms: C_16  and  C_17
REMARK                            x       y       z     vdW  Elec       q    Type
REMARK                         _______ _______ _______ _____ _____    ______ ____
ROOT
ATOM      1  C   UNL     1     -11.129   5.444 129.906  0.00  0.00    +0.000 C 
ATOM      2  O   UNL     1     -11.398   4.255 130.040  0.00  0.00    +0.000 OA
ENDROOT
BRANCH   1   3
ATOM      3  C   UNL     1     -12.111   6.564 130.166  0.00  0.00    +0.000 C 
BRANCH   3   4
ATOM      4  C   UNL     1     -12.987   6.829 128.933  0.00  0.00    +0.000 C 
BRANCH   4   5
ATOM      5  C   UNL     1     -12.574   8.101 128.211  0.00  0.00    +0.000 C 
ATOM      6  O   UNL     1     -13.146   9.170 128.436  0.00  0.00    +0.000 OA
BRANCH   5   7
ATOM      7  C   UNL     1     -11.455   7.966 127.165  0.00  0.00    +0.000 C 
BRANCH   7   9
ATOM      8  H   UNL     1     -11.873   5.965 126.863  0.00  0.00    +0.000 HD
ATOM      9  N   UNL     1     -11.694   6.798 126.309  0.00  0.00    +0.000 NA
ATOM     10  H   UNL     1     -12.521   6.972 125.735  0.00  0.00    +0.000 HD
ENDBRANCH   7   9
ENDBRANCH   5   7
ENDBRANCH   4   5
ENDBRANCH   3   4
ENDBRANCH   1   3
BRANCH   1  11
ATOM     11  O   UNL     1      -9.912   5.923 129.510  0.00  0.00    +0.000 OA
BRANCH  11  12
ATOM     12  C   UNL     1      -8.818   5.477 130.336  0.00  0.00    +0.000 C 
BRANCH  12  13
ATOM     13  C   UNL     1      -8.448   6.556 131.353  0.00  0.00    +0.000 C 
BRANCH  13  14
ATOM     14  C   UNL     1      -8.379   5.984 132.772  0.00  0.00    +0.000 C 
BRANCH  14  15
ATOM     15  C   UNL     1      -9.421   4.887 132.980  0.00  0.00    +0.000 C 
BRANCH  15  16
ATOM     16  C   UNL     1      -8.950   3.864 134.011  0.00  0.00    +0.000 C 
ATOM     17  C   UNL     1      -7.697   4.349 134.718  0.00  0.00    +0.000 C 
ENDBRANCH  15  16
ENDBRANCH  14  15
ENDBRANCH  13  14
ENDBRANCH  12  13
ENDBRANCH  11  12
ENDBRANCH   1  11
TORSDOF 11
ENDMDL
MODEL 9
REMARK VINA RESULT:      -4.6      3.083      5.625
REMARK  Name = Hexaminolevulinate
REMARK  12 active torsions:
REMARK  status: ('A' for Active; 'I' for Inactive)
REMARK    1  A    between atoms: N_2  and  C_4
REMARK    2  A    between atoms: C_4  and  C_5
REMARK    3  A    between atoms: C_5  and  C_7
REMARK    4  A    between atoms: C_7  and  C_8
REMARK    5  A    between atoms: C_8  and  C_9
REMARK    6  A    between atoms: C_9  and  O_11
REMARK    7  A    between atoms: O_11  and  C_12
REMARK    8  A    between atoms: C_12  and  C_13
REMARK    9  A    between atoms: C_13  and  C_14
REMARK   10  A    between atoms: C_14  and  C_15
REMARK   11  A    between atoms: C_15  and  C_16
REMARK   12  A    between atoms: C_16  and  C_17
REMARK                            x       y       z     vdW  Elec       q    Type
REMARK                         _______ _______ _______ _____ _____    ______ ____
ROOT
ATOM      1  C   UNL     1      -9.962   6.641 129.003  0.00  0.00    +0.000 C 
ATOM      2  O   UNL     1      -9.486   7.699 129.402  0.00  0.00    +0.000 OA
ENDROOT
BRANCH   1   3
ATOM      3  C   UNL     1     -10.145   5.418 129.872  0.00  0.00    +0.000 C 
BRANCH   3   4
ATOM      4  C   UNL     1      -8.828   4.645 130.024  0.00  0.00    +0.000 C 
BRANCH   4   5
ATOM      5  C   UNL     1      -9.038   3.144 129.906  0.00  0.00    +0.000 C 
ATOM      6  O   UNL     1      -9.259   2.621 128.811  0.00  0.00    +0.000 OA
BRANCH   5   7
ATOM      7  C   UNL     1      -9.011   2.339 131.216  0.00  0.00    +0.000 C 
BRANCH   7   9
ATOM      8  H   UNL     1     -10.368   1.691 132.632  0.00  0.00    +0.000 HD
ATOM      9  N   UNL     1     -10.345   2.306 131.824  0.00  0.00    +0.000 NA
ATOM     10  H   UNL     1     -10.587   3.246 132.144  0.00  0.00    +0.000 HD
ENDBRANCH   7   9
ENDBRANCH   5   7
ENDBRANCH   4   5
ENDBRANCH   3   4
ENDBRANCH   1   3
BRANCH   1  11
ATOM     11  O   UNL     1     -10.395   6.421 127.725  0.00  0.00    +0.000 OA
BRANCH  11  12
ATOM     12  C   UNL     1     -11.204   7.491 127.196  0.00  0.00    +0.000 C 
BRANCH  12  13
ATOM     13  C   UNL     1     -12.671   7.068 127.140  0.00  0.00    +0.000 C 
BRANCH  13  14
ATOM     14  C   UNL     1     -13.534   7.924 128.072  0.00  0.00    +0.000 C 
BRANCH  14  15
ATOM     15  C   UNL     1     -12.719   9.052 128.702  0.00  0.00    +0.000 C 
BRANCH  15  16
ATOM     16  C   UNL     1     -12.955   9.129 130.210  0.00  0.00    +0.000 C 
ATOM     17  C   UNL     1     -12.897   7.747 130.836  0.00  0.00    +0.000 C 
ENDBRANCH  15  16
ENDBRANCH  14  15
ENDBRANCH  13  14
ENDBRANCH  12  13
ENDBRANCH  11  12
ENDBRANCH   1  11
TORSDOF 11
ENDMDL
