MODEL 1
REMARK VINA RESULT:      -6.7      0.000      0.000
REMARK  Name = Hexachlorophene
REMARK  4 active torsions:
REMARK  status: ('A' for Active; 'I' for Inactive)
REMARK    1  A    between atoms: O_1  and  C_2
REMARK    2  A    between atoms: C_3  and  C_4
REMARK    3  A    between atoms: C_4  and  C_5
REMARK    4  A    between atoms: C_6  and  O_7
REMARK                            x       y       z     vdW  Elec       q    Type
REMARK                         _______ _______ _______ _____ _____    ______ ____
ROOT
ATOM      1  C   UNL     1      -8.976   1.485 125.241  0.00  0.00    +0.000 C 
ENDROOT
BRANCH   1   3
ATOM      2  C   UNL     1      -6.909   2.905 125.599  0.00  0.00    +0.000 A 
ATOM      3  C   UNL     1      -7.892   2.426 124.695  0.00  0.00    +0.000 A 
ATOM      4  C   UNL     1      -7.746   2.832 123.334  0.00  0.00    +0.000 A 
ATOM      5 CL   UNL     1      -9.029   2.745 122.161  0.00  0.00    +0.000 Cl
ATOM      6  C   UNL     1      -6.575   3.476 122.892  0.00  0.00    +0.000 A 
ATOM      7 CL   UNL     1      -6.246   3.781 121.214  0.00  0.00    +0.000 Cl
ATOM      8  C   UNL     1      -5.618   3.900 123.799  0.00  0.00    +0.000 A 
ATOM      9  C   UNL     1      -5.807   3.657 125.152  0.00  0.00    +0.000 A 
ATOM     10 CL   UNL     1      -4.642   4.308 126.249  0.00  0.00    +0.000 Cl
BRANCH   2  11
ATOM     11  O   UNL     1      -6.975   2.685 126.956  0.00  0.00    +0.000 OA
ATOM     12  H   UNL     1      -6.780   1.778 127.218  0.00  0.00    +0.000 HD
ENDBRANCH   2  11
ENDBRANCH   1   3
BRANCH   1  13
ATOM     13  C   UNL     1      -8.654   0.010 125.412  0.00  0.00    +0.000 A 
ATOM     14  C   UNL     1      -8.246  -0.519 126.656  0.00  0.00    +0.000 A 
ATOM     15  C   UNL     1      -8.247  -1.906 126.877  0.00  0.00    +0.000 A 
ATOM     16 CL   UNL     1      -7.806  -2.574 128.409  0.00  0.00    +0.000 Cl
ATOM     17  C   UNL     1      -8.666  -2.783 125.881  0.00  0.00    +0.000 A 
ATOM     18  C   UNL     1      -9.008  -2.289 124.623  0.00  0.00    +0.000 A 
ATOM     19 CL   UNL     1      -9.638  -3.425 123.480  0.00  0.00    +0.000 Cl
ATOM     20  C   UNL     1      -8.948  -0.908 124.361  0.00  0.00    +0.000 A 
ATOM     21 CL   UNL     1      -9.401  -0.313 122.787  0.00  0.00    +0.000 Cl
BRANCH  14  22
ATOM     22  O   UNL     1      -7.899   0.265 127.729  0.00  0.00    +0.000 OA
ATOM     23  H   UNL     1      -6.951   0.352 127.862  0.00  0.00    +0.000 HD
ENDBRANCH  14  22
ENDBRANCH   1  13
TORSDOF 4
ENDMDL
MODEL 2
REMARK VINA RESULT:      -6.6      7.233      9.418
REMARK  Name = Hexachlorophene
REMARK  4 active torsions:
REMARK  status: ('A' for Active; 'I' for Inactive)
REMARK    1  A    between atoms: O_1  and  C_2
REMARK    2  A    between atoms: C_3  and  C_4
REMARK    3  A    between atoms: C_4  and  C_5
REMARK    4  A    between atoms: C_6  and  O_7
REMARK                            x       y       z     vdW  Elec       q    Type
REMARK                         _______ _______ _______ _____ _____    ______ ____
ROOT
ATOM      1  C   UNL     1      -8.901   4.446 130.617  0.00  0.00    +0.000 C 
ENDROOT
BRANCH   1   3
ATOM      2  C   UNL     1      -9.807   6.003 128.837  0.00  0.00    +0.000 A 
ATOM      3  C   UNL     1      -9.823   5.600 130.197  0.00  0.00    +0.000 A 
ATOM      4  C   UNL     1     -10.746   6.285 131.045  0.00  0.00    +0.000 A 
ATOM      5 CL   UNL     1     -10.641   6.280 132.782  0.00  0.00    +0.000 Cl
ATOM      6  C   UNL     1     -11.727   7.139 130.508  0.00  0.00    +0.000 A 
ATOM      7 CL   UNL     1     -13.014   7.809 131.461  0.00  0.00    +0.000 Cl
ATOM      8  C   UNL     1     -11.703   7.485 129.167  0.00  0.00    +0.000 A 
ATOM      9  C   UNL     1     -10.719   6.955 128.345  0.00  0.00    +0.000 A 
ATOM     10 CL   UNL     1     -10.665   7.509 126.709  0.00  0.00    +0.000 Cl
BRANCH   2  11
ATOM     11  O   UNL     1      -8.903   5.510 127.924  0.00  0.00    +0.000 OA
ATOM     12  H   UNL     1      -7.995   5.479 128.248  0.00  0.00    +0.000 HD
ENDBRANCH   2  11
ENDBRANCH   1   3
BRANCH   1  13
ATOM     13  C   UNL     1      -7.708   4.744 131.510  0.00  0.00    +0.000 A 
ATOM     14  C   UNL     1      -6.637   5.552 131.068  0.00  0.00    +0.000 A 
ATOM     15  C   UNL     1      -5.705   6.066 131.984  0.00  0.00    +0.000 A 
ATOM     16 CL   UNL     1      -4.420   7.103 131.476  0.00  0.00    +0.000 Cl
ATOM     17  C   UNL     1      -5.829   5.802 133.346  0.00  0.00    +0.000 A 
ATOM     18  C   UNL     1      -6.837   4.951 133.797  0.00  0.00    +0.000 A 
ATOM     19 CL   UNL     1      -7.004   4.774 135.511  0.00  0.00    +0.000 Cl
ATOM     20  C   UNL     1      -7.740   4.373 132.886  0.00  0.00    +0.000 A 
ATOM     21 CL   UNL     1      -9.004   3.329 133.477  0.00  0.00    +0.000 Cl
BRANCH  14  22
ATOM     22  O   UNL     1      -6.479   5.942 129.761  0.00  0.00    +0.000 OA
ATOM     23  H   UNL     1      -6.901   6.779 129.546  0.00  0.00    +0.000 HD
ENDBRANCH  14  22
ENDBRANCH   1  13
TORSDOF 4
ENDMDL
MODEL 3
REMARK VINA RESULT:      -6.6      2.254      5.982
REMARK  Name = Hexachlorophene
REMARK  4 active torsions:
REMARK  status: ('A' for Active; 'I' for Inactive)
REMARK    1  A    between atoms: O_1  and  C_2
REMARK    2  A    between atoms: C_3  and  C_4
REMARK    3  A    between atoms: C_4  and  C_5
REMARK    4  A    between atoms: C_6  and  O_7
REMARK                            x       y       z     vdW  Elec       q    Type
REMARK                         _______ _______ _______ _____ _____    ______ ____
ROOT
ATOM      1  C   UNL     1      -5.465  -0.781 125.591  0.00  0.00    +0.000 C 
ENDROOT
BRANCH   1   3
ATOM      2  C   UNL     1      -7.094  -2.213 126.899  0.00  0.00    +0.000 A 
ATOM      3  C   UNL     1      -6.651  -1.756 125.631  0.00  0.00    +0.000 A 
ATOM      4  C   UNL     1      -7.396  -2.215 124.502  0.00  0.00    +0.000 A 
ATOM      5 CL   UNL     1      -6.800  -2.155 122.869  0.00  0.00    +0.000 Cl
ATOM      6  C   UNL     1      -8.620  -2.890 124.668  0.00  0.00    +0.000 A 
ATOM      7 CL   UNL     1      -9.676  -3.261 123.340  0.00  0.00    +0.000 Cl
ATOM      8  C   UNL     1      -9.040  -3.292 125.925  0.00  0.00    +0.000 A 
ATOM      9  C   UNL     1      -8.256  -2.995 127.031  0.00  0.00    +0.000 A 
ATOM     10 CL   UNL     1      -8.766  -3.620 128.559  0.00  0.00    +0.000 Cl
BRANCH   2  11
ATOM     11  O   UNL     1      -6.417  -1.942 128.067  0.00  0.00    +0.000 OA
ATOM     12  H   UNL     1      -6.405  -2.674 128.694  0.00  0.00    +0.000 HD
ENDBRANCH   2  11
ENDBRANCH   1   3
BRANCH   1  13
ATOM     13  C   UNL     1      -5.665   0.643 126.079  0.00  0.00    +0.000 A 
ATOM     14  C   UNL     1      -5.161   1.075 127.326  0.00  0.00    +0.000 A 
ATOM     15  C   UNL     1      -5.083   2.444 127.628  0.00  0.00    +0.000 A 
ATOM     16 CL   UNL     1      -4.418   3.000 129.124  0.00  0.00    +0.000 Cl
ATOM     17  C   UNL     1      -5.484   3.400 126.699  0.00  0.00    +0.000 A 
ATOM     18  C   UNL     1      -6.047   2.997 125.490  0.00  0.00    +0.000 A 
ATOM     19 CL   UNL     1      -6.403   4.238 124.337  0.00  0.00    +0.000 Cl
ATOM     20  C   UNL     1      -6.196   1.629 125.197  0.00  0.00    +0.000 A 
ATOM     21 CL   UNL     1      -6.884   1.149 123.669  0.00  0.00    +0.000 Cl
BRANCH  14  22
ATOM     22  O   UNL     1      -4.660   0.216 128.273  0.00  0.00    +0.000 OA
ATOM     23  H   UNL     1      -3.896   0.558 128.747  0.00  0.00    +0.000 HD
ENDBRANCH  14  22
ENDBRANCH   1  13
TORSDOF 4
ENDMDL
MODEL 4
REMARK VINA RESULT:      -6.5      1.810      6.592
REMARK  Name = Hexachlorophene
REMARK  4 active torsions:
REMARK  status: ('A' for Active; 'I' for Inactive)
REMARK    1  A    between atoms: O_1  and  C_2
REMARK    2  A    between atoms: C_3  and  C_4
REMARK    3  A    between atoms: C_4  and  C_5
REMARK    4  A    between atoms: C_6  and  O_7
REMARK                            x       y       z     vdW  Elec       q    Type
REMARK                         _______ _______ _______ _____ _____    ______ ____
ROOT
ATOM      1  C   UNL     1      -8.814   1.433 125.452  0.00  0.00    +0.000 C 
ENDROOT
BRANCH   1   3
ATOM      2  C   UNL     1      -9.153  -0.964 124.705  0.00  0.00    +0.000 A 
ATOM      3  C   UNL     1      -8.727  -0.076 125.727  0.00  0.00    +0.000 A 
ATOM      4  C   UNL     1      -8.206  -0.682 126.910  0.00  0.00    +0.000 A 
ATOM      5 CL   UNL     1      -8.039   0.154 128.426  0.00  0.00    +0.000 Cl
ATOM      6  C   UNL     1      -7.926  -2.062 126.954  0.00  0.00    +0.000 A 
ATOM      7 CL   UNL     1      -7.079  -2.807 128.274  0.00  0.00    +0.000 Cl
ATOM      8  C   UNL     1      -8.325  -2.896 125.923  0.00  0.00    +0.000 A 
ATOM      9  C   UNL     1      -8.979  -2.355 124.824  0.00  0.00    +0.000 A 
ATOM     10 CL   UNL     1      -9.557  -3.453 123.622  0.00  0.00    +0.000 Cl
BRANCH   2  11
ATOM     11  O   UNL     1      -9.773  -0.533 123.555  0.00  0.00    +0.000 OA
ATOM     12  H   UNL     1      -9.210  -0.556 122.772  0.00  0.00    +0.000 HD
ENDBRANCH   2  11
ENDBRANCH   1   3
BRANCH   1  13
ATOM     13  C   UNL     1      -7.772   2.079 124.555  0.00  0.00    +0.000 A 
ATOM     14  C   UNL     1      -8.063   2.430 123.218  0.00  0.00    +0.000 A 
ATOM     15  C   UNL     1      -7.211   3.289 122.505  0.00  0.00    +0.000 A 
ATOM     16 CL   UNL     1      -7.575   3.780 120.888  0.00  0.00    +0.000 Cl
ATOM     17  C   UNL     1      -6.075   3.822 123.106  0.00  0.00    +0.000 A 
ATOM     18  C   UNL     1      -5.731   3.436 124.401  0.00  0.00    +0.000 A 
ATOM     19 CL   UNL     1      -4.378   4.237 125.125  0.00  0.00    +0.000 Cl
ATOM     20  C   UNL     1      -6.536   2.524 125.108  0.00  0.00    +0.000 A 
ATOM     21 CL   UNL     1      -6.096   2.072 126.733  0.00  0.00    +0.000 Cl
BRANCH  14  22
ATOM     22  O   UNL     1      -9.203   2.029 122.566  0.00  0.00    +0.000 OA
ATOM     23  H   UNL     1      -9.074   1.280 121.976  0.00  0.00    +0.000 HD
ENDBRANCH  14  22
ENDBRANCH   1  13
TORSDOF 4
ENDMDL
MODEL 5
REMARK VINA RESULT:      -6.4      1.891      3.658
REMARK  Name = Hexachlorophene
REMARK  4 active torsions:
REMARK  status: ('A' for Active; 'I' for Inactive)
REMARK    1  A    between atoms: O_1  and  C_2
REMARK    2  A    between atoms: C_3  and  C_4
REMARK    3  A    between atoms: C_4  and  C_5
REMARK    4  A    between atoms: C_6  and  O_7
REMARK                            x       y       z     vdW  Elec       q    Type
REMARK                         _______ _______ _______ _____ _____    ______ ____
ROOT
ATOM      1  C   UNL     1      -8.957   1.207 126.083  0.00  0.00    +0.000 C 
ENDROOT
BRANCH   1   3
ATOM      2  C   UNL     1      -8.716   2.314 123.818  0.00  0.00    +0.000 A 
ATOM      3  C   UNL     1      -8.107   1.960 125.049  0.00  0.00    +0.000 A 
ATOM      4  C   UNL     1      -6.757   2.389 125.230  0.00  0.00    +0.000 A 
ATOM      5 CL   UNL     1      -5.686   1.719 126.426  0.00  0.00    +0.000 Cl
ATOM      6  C   UNL     1      -6.159   3.297 124.334  0.00  0.00    +0.000 A 
ATOM      7 CL   UNL     1      -4.614   4.030 124.631  0.00  0.00    +0.000 Cl
ATOM      8  C   UNL     1      -6.797   3.649 123.156  0.00  0.00    +0.000 A 
ATOM      9  C   UNL     1      -8.050   3.122 122.877  0.00  0.00    +0.000 A 
ATOM     10 CL   UNL     1      -8.750   3.500 121.343  0.00  0.00    +0.000 Cl
BRANCH   2  11
ATOM     11  O   UNL     1      -9.972   1.883 123.456  0.00  0.00    +0.000 OA
ATOM     12  H   UNL     1     -10.253   2.177 122.582  0.00  0.00    +0.000 HD
ENDBRANCH   2  11
ENDBRANCH   1   3
BRANCH   1  13
ATOM     13  C   UNL     1      -8.718  -0.279 126.291  0.00  0.00    +0.000 A 
ATOM     14  C   UNL     1      -8.972  -1.219 125.269  0.00  0.00    +0.000 A 
ATOM     15  C   UNL     1      -8.468  -2.527 125.362  0.00  0.00    +0.000 A 
ATOM     16 CL   UNL     1      -8.717  -3.680 124.098  0.00  0.00    +0.000 Cl
ATOM     17  C   UNL     1      -7.697  -2.915 126.454  0.00  0.00    +0.000 A 
ATOM     18  C   UNL     1      -7.491  -2.025 127.506  0.00  0.00    +0.000 A 
ATOM     19 CL   UNL     1      -6.418  -2.535 128.765  0.00  0.00    +0.000 Cl
ATOM     20  C   UNL     1      -8.044  -0.732 127.463  0.00  0.00    +0.000 A 
ATOM     21 CL   UNL     1      -7.754   0.369 128.783  0.00  0.00    +0.000 Cl
BRANCH  14  22
ATOM     22  O   UNL     1      -9.646  -0.910 124.114  0.00  0.00    +0.000 OA
ATOM     23  H   UNL     1      -9.081  -0.599 123.401  0.00  0.00    +0.000 HD
ENDBRANCH  14  22
ENDBRANCH   1  13
TORSDOF 4
ENDMDL
MODEL 6
REMARK VINA RESULT:      -6.2      2.290      6.196
REMARK  Name = Hexachlorophene
REMARK  4 active torsions:
REMARK  status: ('A' for Active; 'I' for Inactive)
REMARK    1  A    between atoms: O_1  and  C_2
REMARK    2  A    between atoms: C_3  and  C_4
REMARK    3  A    between atoms: C_4  and  C_5
REMARK    4  A    between atoms: C_6  and  O_7
REMARK                            x       y       z     vdW  Elec       q    Type
REMARK                         _______ _______ _______ _____ _____    ______ ____
ROOT
ATOM      1  C   UNL     1      -5.409  -0.704 125.831  0.00  0.00    +0.000 C 
ENDROOT
BRANCH   1   3
ATOM      2  C   UNL     1      -5.658  -1.328 128.273  0.00  0.00    +0.000 A 
ATOM      3  C   UNL     1      -6.083  -1.533 126.935  0.00  0.00    +0.000 A 
ATOM      4  C   UNL     1      -7.146  -2.468 126.749  0.00  0.00    +0.000 A 
ATOM      5 CL   UNL     1      -7.527  -3.197 125.216  0.00  0.00    +0.000 Cl
ATOM      6  C   UNL     1      -7.867  -2.974 127.847  0.00  0.00    +0.000 A 
ATOM      7 CL   UNL     1      -9.309  -3.924 127.668  0.00  0.00    +0.000 Cl
ATOM      8  C   UNL     1      -7.445  -2.725 129.143  0.00  0.00    +0.000 A 
ATOM      9  C   UNL     1      -6.317  -1.944 129.353  0.00  0.00    +0.000 A 
ATOM     10 CL   UNL     1      -5.767  -1.763 130.981  0.00  0.00    +0.000 Cl
BRANCH   2  11
ATOM     11  O   UNL     1      -4.579  -0.540 128.600  0.00  0.00    +0.000 OA
ATOM     12  H   UNL     1      -4.795   0.392 128.727  0.00  0.00    +0.000 HD
ENDBRANCH   2  11
ENDBRANCH   1   3
BRANCH   1  13
ATOM     13  C   UNL     1      -5.820   0.747 125.645  0.00  0.00    +0.000 A 
ATOM     14  C   UNL     1      -5.052   1.806 126.176  0.00  0.00    +0.000 A 
ATOM     15  C   UNL     1      -5.265   3.127 125.747  0.00  0.00    +0.000 A 
ATOM     16 CL   UNL     1      -4.300   4.433 126.339  0.00  0.00    +0.000 Cl
ATOM     17  C   UNL     1      -6.225   3.412 124.780  0.00  0.00    +0.000 A 
ATOM     18  C   UNL     1      -7.040   2.393 124.292  0.00  0.00    +0.000 A 
ATOM     19 CL   UNL     1      -8.120   2.803 123.002  0.00  0.00    +0.000 Cl
ATOM     20  C   UNL     1      -6.887   1.075 124.759  0.00  0.00    +0.000 A 
ATOM     21 CL   UNL     1      -7.906  -0.186 124.118  0.00  0.00    +0.000 Cl
BRANCH  14  22
ATOM     22  O   UNL     1      -4.024   1.618 127.067  0.00  0.00    +0.000 OA
ATOM     23  H   UNL     1      -4.052   2.205 127.828  0.00  0.00    +0.000 HD
ENDBRANCH  14  22
ENDBRANCH   1  13
TORSDOF 4
ENDMDL
MODEL 7
REMARK VINA RESULT:      -6.1      2.261      3.213
REMARK  Name = Hexachlorophene
REMARK  4 active torsions:
REMARK  status: ('A' for Active; 'I' for Inactive)
REMARK    1  A    between atoms: O_1  and  C_2
REMARK    2  A    between atoms: C_3  and  C_4
REMARK    3  A    between atoms: C_4  and  C_5
REMARK    4  A    between atoms: C_6  and  O_7
REMARK                            x       y       z     vdW  Elec       q    Type
REMARK                         _______ _______ _______ _____ _____    ______ ____
ROOT
ATOM      1  C   UNL     1      -5.658  -0.960 125.861  0.00  0.00    +0.000 C 
ENDROOT
BRANCH   1   3
ATOM      2  C   UNL     1      -5.310   1.549 125.847  0.00  0.00    +0.000 A 
ATOM      3  C   UNL     1      -6.159   0.456 125.537  0.00  0.00    +0.000 A 
ATOM      4  C   UNL     1      -7.394   0.780 124.897  0.00  0.00    +0.000 A 
ATOM      5 CL   UNL     1      -8.752  -0.306 124.822  0.00  0.00    +0.000 Cl
ATOM      6  C   UNL     1      -7.638   2.077 124.408  0.00  0.00    +0.000 A 
ATOM      7 CL   UNL     1      -9.012   2.467 123.422  0.00  0.00    +0.000 Cl
ATOM      8  C   UNL     1      -6.770   3.116 124.701  0.00  0.00    +0.000 A 
ATOM      9  C   UNL     1      -5.634   2.862 125.458  0.00  0.00    +0.000 A 
ATOM     10 CL   UNL     1      -4.648   4.212 125.892  0.00  0.00    +0.000 Cl
BRANCH   2  11
ATOM     11  O   UNL     1      -4.139   1.406 126.556  0.00  0.00    +0.000 OA
ATOM     12  H   UNL     1      -4.142   0.668 127.177  0.00  0.00    +0.000 HD
ENDBRANCH   2  11
ENDBRANCH   1   3
BRANCH   1  13
ATOM     13  C   UNL     1      -6.195  -1.666 127.094  0.00  0.00    +0.000 A 
ATOM     14  C   UNL     1      -5.867  -1.233 128.397  0.00  0.00    +0.000 A 
ATOM     15  C   UNL     1      -6.598  -1.690 129.507  0.00  0.00    +0.000 A 
ATOM     16 CL   UNL     1      -6.252  -1.131 131.105  0.00  0.00    +0.000 Cl
ATOM     17  C   UNL     1      -7.668  -2.564 129.340  0.00  0.00    +0.000 A 
ATOM     18  C   UNL     1      -7.967  -3.058 128.072  0.00  0.00    +0.000 A 
ATOM     19 CL   UNL     1      -9.387  -4.037 127.927  0.00  0.00    +0.000 Cl
ATOM     20  C   UNL     1      -7.204  -2.665 126.957  0.00  0.00    +0.000 A 
ATOM     21 CL   UNL     1      -7.611  -3.280 125.378  0.00  0.00    +0.000 Cl
BRANCH  14  22
ATOM     22  O   UNL     1      -4.888  -0.306 128.657  0.00  0.00    +0.000 OA
ATOM     23  H   UNL     1      -4.002  -0.593 128.416  0.00  0.00    +0.000 HD
ENDBRANCH  14  22
ENDBRANCH   1  13
TORSDOF 4
ENDMDL
MODEL 8
REMARK VINA RESULT:      -6.1      2.400      6.010
REMARK  Name = Hexachlorophene
REMARK  4 active torsions:
REMARK  status: ('A' for Active; 'I' for Inactive)
REMARK    1  A    between atoms: O_1  and  C_2
REMARK    2  A    between atoms: C_3  and  C_4
REMARK    3  A    between atoms: C_4  and  C_5
REMARK    4  A    between atoms: C_6  and  O_7
REMARK                            x       y       z     vdW  Elec       q    Type
REMARK                         _______ _______ _______ _____ _____    ______ ____
ROOT
ATOM      1  C   UNL     1      -5.997  -0.746 125.065  0.00  0.00    +0.000 C 
ENDROOT
BRANCH   1   3
ATOM      2  C   UNL     1      -5.872  -1.013 127.580  0.00  0.00    +0.000 A 
ATOM      3  C   UNL     1      -6.430  -1.459 126.355  0.00  0.00    +0.000 A 
ATOM      4  C   UNL     1      -7.392  -2.510 126.447  0.00  0.00    +0.000 A 
ATOM      5 CL   UNL     1      -7.871  -3.497 125.096  0.00  0.00    +0.000 Cl
ATOM      6  C   UNL     1      -7.911  -2.910 127.693  0.00  0.00    +0.000 A 
ATOM      7 CL   UNL     1      -9.244  -4.012 127.846  0.00  0.00    +0.000 Cl
ATOM      8  C   UNL     1      -7.365  -2.428 128.872  0.00  0.00    +0.000 A 
ATOM      9  C   UNL     1      -6.319  -1.519 128.815  0.00  0.00    +0.000 A 
ATOM     10 CL   UNL     1      -5.599  -1.039 130.311  0.00  0.00    +0.000 Cl
BRANCH   2  11
ATOM     11  O   UNL     1      -4.860  -0.083 127.644  0.00  0.00    +0.000 OA
ATOM     12  H   UNL     1      -4.256  -0.208 128.385  0.00  0.00    +0.000 HD
ENDBRANCH   2  11
ENDBRANCH   1   3
BRANCH   1  13
ATOM     13  C   UNL     1      -6.916   0.301 124.458  0.00  0.00    +0.000 A 
ATOM     14  C   UNL     1      -7.998  -0.058 123.625  0.00  0.00    +0.000 A 
ATOM     15  C   UNL     1      -9.006   0.873 123.324  0.00  0.00    +0.000 A 
ATOM     16 CL   UNL     1     -10.370   0.441 122.353  0.00  0.00    +0.000 Cl
ATOM     17  C   UNL     1      -8.965   2.159 123.854  0.00  0.00    +0.000 A 
ATOM     18  C   UNL     1      -7.873   2.557 124.623  0.00  0.00    +0.000 A 
ATOM     19 CL   UNL     1      -7.956   4.126 125.350  0.00  0.00    +0.000 Cl
ATOM     20  C   UNL     1      -6.820   1.660 124.880  0.00  0.00    +0.000 A 
ATOM     21 CL   UNL     1      -5.475   2.174 125.861  0.00  0.00    +0.000 Cl
BRANCH  14  22
ATOM     22  O   UNL     1      -8.175  -1.325 123.125  0.00  0.00    +0.000 OA
ATOM     23  H   UNL     1      -7.448  -1.635 122.577  0.00  0.00    +0.000 HD
ENDBRANCH  14  22
ENDBRANCH   1  13
TORSDOF 4
ENDMDL
MODEL 9
REMARK VINA RESULT:      -6.0      1.306      5.937
REMARK  Name = Hexachlorophene
REMARK  4 active torsions:
REMARK  status: ('A' for Active; 'I' for Inactive)
REMARK    1  A    between atoms: O_1  and  C_2
REMARK    2  A    between atoms: C_3  and  C_4
REMARK    3  A    between atoms: C_4  and  C_5
REMARK    4  A    between atoms: C_6  and  O_7
REMARK                            x       y       z     vdW  Elec       q    Type
REMARK                         _______ _______ _______ _____ _____    ______ ____
ROOT
ATOM      1  C   UNL     1      -8.974   1.686 125.426  0.00  0.00    +0.000 C 
ENDROOT
BRANCH   1   3
ATOM      2  C   UNL     1      -9.004  -0.682 124.526  0.00  0.00    +0.000 A 
ATOM      3  C   UNL     1      -8.657   0.192 125.589  0.00  0.00    +0.000 A 
ATOM      4  C   UNL     1      -7.991  -0.406 126.703  0.00  0.00    +0.000 A 
ATOM      5 CL   UNL     1      -7.867   0.348 128.266  0.00  0.00    +0.000 Cl
ATOM      6  C   UNL     1      -7.515  -1.729 126.637  0.00  0.00    +0.000 A 
ATOM      7 CL   UNL     1      -6.501  -2.424 127.863  0.00  0.00    +0.000 Cl
ATOM      8  C   UNL     1      -7.844  -2.545 125.567  0.00  0.00    +0.000 A 
ATOM      9  C   UNL     1      -8.625  -2.037 124.539  0.00  0.00    +0.000 A 
ATOM     10 CL   UNL     1      -9.103  -3.129 123.288  0.00  0.00    +0.000 Cl
BRANCH   2  11
ATOM     11  O   UNL     1      -9.739  -0.274 123.437  0.00  0.00    +0.000 OA
ATOM     12  H   UNL     1     -10.641  -0.005 123.648  0.00  0.00    +0.000 HD
ENDBRANCH   2  11
ENDBRANCH   1   3
BRANCH   1  13
ATOM     13  C   UNL     1      -7.899   2.611 124.881  0.00  0.00    +0.000 A 
ATOM     14  C   UNL     1      -6.820   3.044 125.681  0.00  0.00    +0.000 A 
ATOM     15  C   UNL     1      -5.689   3.637 125.095  0.00  0.00    +0.000 A 
ATOM     16 CL   UNL     1      -4.331   4.123 126.048  0.00  0.00    +0.000 Cl
ATOM     17  C   UNL     1      -5.606   3.794 123.715  0.00  0.00    +0.000 A 
ATOM     18  C   UNL     1      -6.687   3.437 122.911  0.00  0.00    +0.000 A 
ATOM     19 CL   UNL     1      -6.459   3.543 121.198  0.00  0.00    +0.000 Cl
ATOM     20  C   UNL     1      -7.855   2.904 123.486  0.00  0.00    +0.000 A 
ATOM     21 CL   UNL     1      -9.185   2.446 122.457  0.00  0.00    +0.000 Cl
BRANCH  14  22
ATOM     22  O   UNL     1      -6.768   2.854 127.040  0.00  0.00    +0.000 OA
ATOM     23  H   UNL     1      -6.776   3.670 127.551  0.00  0.00    +0.000 HD
ENDBRANCH  14  22
ENDBRANCH   1  13
TORSDOF 4
ENDMDL
