MODEL 1
REMARK VINA RESULT:      -6.4      0.000      0.000
REMARK  Name = Hexamidine
REMARK  11 active torsions:
REMARK  status: ('A' for Active; 'I' for Inactive)
REMARK    1  A    between atoms: C_2  and  C_4
REMARK    2  A    between atoms: C_7  and  O_8
REMARK    3  A    between atoms: O_8  and  C_9
REMARK    4  A    between atoms: C_9  and  C_10
REMARK    5  A    between atoms: C_10  and  C_11
REMARK    6  A    between atoms: C_11  and  C_12
REMARK    7  A    between atoms: C_12  and  C_13
REMARK    8  A    between atoms: C_13  and  C_14
REMARK    9  A    between atoms: C_14  and  O_15
REMARK   10  A    between atoms: O_15  and  C_16
REMARK   11  A    between atoms: C_19  and  C_22
REMARK                            x       y       z     vdW  Elec       q    Type
REMARK                         _______ _______ _______ _____ _____    ______ ____
ROOT
ATOM      1  C   UNL     1      -8.772  -3.654 124.763  0.00  0.00    +0.000 C 
ENDROOT
BRANCH   1   2
ATOM      2  C   UNL     1      -9.348  -3.119 123.452  0.00  0.00    +0.000 C 
BRANCH   2   3
ATOM      3  C   UNL     1      -8.694  -1.794 123.074  0.00  0.00    +0.000 C 
BRANCH   3   4
ATOM      4  O   UNL     1      -9.579  -0.716 123.391  0.00  0.00    +0.000 OA
BRANCH   4   8
ATOM      5  C   UNL     1      -7.561   2.875 124.088  0.00  0.00    +0.000 A 
ATOM      6  C   UNL     1      -6.952   1.806 123.424  0.00  0.00    +0.000 A 
ATOM      7  C   UNL     1      -7.674   0.633 123.178  0.00  0.00    +0.000 A 
ATOM      8  C   UNL     1      -8.984   0.494 123.647  0.00  0.00    +0.000 A 
ATOM      9  C   UNL     1      -9.581   1.563 124.324  0.00  0.00    +0.000 A 
ATOM     10  C   UNL     1      -8.872   2.748 124.549  0.00  0.00    +0.000 A 
BRANCH   5  12
ATOM     11  N   UNL     1      -7.208   5.097 125.131  0.00  0.00    +0.000 N 
ATOM     12  C   UNL     1      -6.868   4.192 124.167  0.00  0.00    +0.000 C 
ATOM     13  N   UNL     1      -5.979   4.469 123.278  0.00  0.00    +0.000 NA
ATOM     14  H   UNL     1      -6.628   5.914 125.267  0.00  0.00    +0.000 HD
ATOM     15  H   UNL     1      -7.709   4.785 125.953  0.00  0.00    +0.000 HD
ATOM     16  H   UNL     1      -5.633   5.421 123.403  0.00  0.00    +0.000 HD
ENDBRANCH   5  12
ENDBRANCH   4   8
ENDBRANCH   3   4
ENDBRANCH   2   3
ENDBRANCH   1   2
BRANCH   1  17
ATOM     17  C   UNL     1      -9.452  -3.009 125.968  0.00  0.00    +0.000 C 
BRANCH  17  18
ATOM     18  C   UNL     1      -8.738  -3.366 127.268  0.00  0.00    +0.000 C 
BRANCH  18  19
ATOM     19  C   UNL     1      -7.858  -2.212 127.743  0.00  0.00    +0.000 C 
BRANCH  19  20
ATOM     20  O   UNL     1      -8.220  -1.052 126.997  0.00  0.00    +0.000 OA
BRANCH  20  21
ATOM     21  C   UNL     1      -7.270  -0.076 126.892  0.00  0.00    +0.000 A 
ATOM     22  C   UNL     1      -6.109  -0.450 126.220  0.00  0.00    +0.000 A 
ATOM     23  C   UNL     1      -5.009   0.410 126.168  0.00  0.00    +0.000 A 
ATOM     24  C   UNL     1      -5.074   1.692 126.727  0.00  0.00    +0.000 A 
ATOM     25  C   UNL     1      -6.245   2.061 127.406  0.00  0.00    +0.000 A 
ATOM     26  C   UNL     1      -7.334   1.179 127.490  0.00  0.00    +0.000 A 
BRANCH  24  27
ATOM     27  C   UNL     1      -3.919   2.641 126.560  0.00  0.00    +0.000 C 
ATOM     28  N   UNL     1      -4.114   3.979 126.415  0.00  0.00    +0.000 N 
ATOM     29  N   UNL     1      -2.676   2.273 126.556  0.00  0.00    +0.000 NA
ATOM     30  H   UNL     1      -4.996   4.446 126.544  0.00  0.00    +0.000 HD
ATOM     31  H   UNL     1      -3.279   4.553 126.441  0.00  0.00    +0.000 HD
ATOM     32  H   UNL     1      -2.559   1.267 126.667  0.00  0.00    +0.000 HD
ENDBRANCH  24  27
ENDBRANCH  20  21
ENDBRANCH  19  20
ENDBRANCH  18  19
ENDBRANCH  17  18
ENDBRANCH   1  17
TORSDOF 11
ENDMDL
MODEL 2
REMARK VINA RESULT:      -6.3      1.718      4.098
REMARK  Name = Hexamidine
REMARK  11 active torsions:
REMARK  status: ('A' for Active; 'I' for Inactive)
REMARK    1  A    between atoms: C_2  and  C_4
REMARK    2  A    between atoms: C_7  and  O_8
REMARK    3  A    between atoms: O_8  and  C_9
REMARK    4  A    between atoms: C_9  and  C_10
REMARK    5  A    between atoms: C_10  and  C_11
REMARK    6  A    between atoms: C_11  and  C_12
REMARK    7  A    between atoms: C_12  and  C_13
REMARK    8  A    between atoms: C_13  and  C_14
REMARK    9  A    between atoms: C_14  and  O_15
REMARK   10  A    between atoms: O_15  and  C_16
REMARK   11  A    between atoms: C_19  and  C_22
REMARK                            x       y       z     vdW  Elec       q    Type
REMARK                         _______ _______ _______ _____ _____    ______ ____
ROOT
ATOM      1  C   UNL     1      -7.846  -3.141 128.351  0.00  0.00    +0.000 C 
ENDROOT
BRANCH   1   2
ATOM      2  C   UNL     1      -6.447  -2.563 128.571  0.00  0.00    +0.000 C 
BRANCH   2   3
ATOM      3  C   UNL     1      -6.493  -1.040 128.631  0.00  0.00    +0.000 C 
BRANCH   3   4
ATOM      4  O   UNL     1      -5.859  -0.496 127.470  0.00  0.00    +0.000 OA
BRANCH   4   8
ATOM      5  C   UNL     1      -6.991   3.306 126.161  0.00  0.00    +0.000 A 
ATOM      6  C   UNL     1      -5.719   2.788 125.901  0.00  0.00    +0.000 A 
ATOM      7  C   UNL     1      -5.391   1.495 126.325  0.00  0.00    +0.000 A 
ATOM      8  C   UNL     1      -6.304   0.737 127.065  0.00  0.00    +0.000 A 
ATOM      9  C   UNL     1      -7.569   1.270 127.334  0.00  0.00    +0.000 A 
ATOM     10  C   UNL     1      -7.911   2.552 126.888  0.00  0.00    +0.000 A 
BRANCH   5  12
ATOM     11  N   UNL     1      -6.484   5.417 124.962  0.00  0.00    +0.000 N 
ATOM     12  C   UNL     1      -7.410   4.591 125.533  0.00  0.00    +0.000 C 
ATOM     13  N   UNL     1      -8.652   4.922 125.587  0.00  0.00    +0.000 NA
ATOM     14  H   UNL     1      -6.798   6.202 124.408  0.00  0.00    +0.000 HD
ATOM     15  H   UNL     1      -5.577   5.046 124.705  0.00  0.00    +0.000 HD
ATOM     16  H   UNL     1      -8.793   5.849 125.184  0.00  0.00    +0.000 HD
ENDBRANCH   5  12
ENDBRANCH   4   8
ENDBRANCH   3   4
ENDBRANCH   2   3
ENDBRANCH   1   2
BRANCH   1  17
ATOM     17  C   UNL     1      -8.559  -2.435 127.201  0.00  0.00    +0.000 C 
BRANCH  17  18
ATOM     18  C   UNL     1      -8.590  -3.304 125.947  0.00  0.00    +0.000 C 
BRANCH  18  19
ATOM     19  C   UNL     1      -8.696  -2.443 124.689  0.00  0.00    +0.000 C 
BRANCH  19  20
ATOM     20  O   UNL     1      -9.357  -1.231 125.044  0.00  0.00    +0.000 OA
BRANCH  20  21
ATOM     21  C   UNL     1      -9.052  -0.131 124.293  0.00  0.00    +0.000 A 
ATOM     22  C   UNL     1      -7.761  -0.108 123.774  0.00  0.00    +0.000 A 
ATOM     23  C   UNL     1      -7.282   1.023 123.108  0.00  0.00    +0.000 A 
ATOM     24  C   UNL     1      -8.111   2.129 122.885  0.00  0.00    +0.000 A 
ATOM     25  C   UNL     1      -9.410   2.101 123.415  0.00  0.00    +0.000 A 
ATOM     26  C   UNL     1      -9.875   0.978 124.118  0.00  0.00    +0.000 A 
BRANCH  24  27
ATOM     27  C   UNL     1      -7.611   3.288 122.068  0.00  0.00    +0.000 C 
ATOM     28  N   UNL     1      -8.370   3.848 121.089  0.00  0.00    +0.000 N 
ATOM     29  N   UNL     1      -6.450   3.843 122.236  0.00  0.00    +0.000 NA
ATOM     30  H   UNL     1      -9.342   3.640 120.930  0.00  0.00    +0.000 HD
ATOM     31  H   UNL     1      -8.008   4.702 120.682  0.00  0.00    +0.000 HD
ATOM     32  H   UNL     1      -5.904   3.405 122.974  0.00  0.00    +0.000 HD
ENDBRANCH  24  27
ENDBRANCH  20  21
ENDBRANCH  19  20
ENDBRANCH  18  19
ENDBRANCH  17  18
ENDBRANCH   1  17
TORSDOF 11
ENDMDL
MODEL 3
REMARK VINA RESULT:      -6.3      2.898      5.844
REMARK  Name = Hexamidine
REMARK  11 active torsions:
REMARK  status: ('A' for Active; 'I' for Inactive)
REMARK    1  A    between atoms: C_2  and  C_4
REMARK    2  A    between atoms: C_7  and  O_8
REMARK    3  A    between atoms: O_8  and  C_9
REMARK    4  A    between atoms: C_9  and  C_10
REMARK    5  A    between atoms: C_10  and  C_11
REMARK    6  A    between atoms: C_11  and  C_12
REMARK    7  A    between atoms: C_12  and  C_13
REMARK    8  A    between atoms: C_13  and  C_14
REMARK    9  A    between atoms: C_14  and  O_15
REMARK   10  A    between atoms: O_15  and  C_16
REMARK   11  A    between atoms: C_19  and  C_22
REMARK                            x       y       z     vdW  Elec       q    Type
REMARK                         _______ _______ _______ _____ _____    ______ ____
ROOT
ATOM      1  C   UNL     1      -8.746  -1.657 122.835  0.00  0.00    +0.000 C 
ENDROOT
BRANCH   1   2
ATOM      2  C   UNL     1      -9.438  -2.988 123.131  0.00  0.00    +0.000 C 
BRANCH   2   3
ATOM      3  C   UNL     1      -8.958  -3.565 124.459  0.00  0.00    +0.000 C 
BRANCH   3   4
ATOM      4  O   UNL     1      -9.635  -2.912 125.537  0.00  0.00    +0.000 OA
BRANCH   4   8
ATOM      5  C   UNL     1      -7.475  -2.572 129.095  0.00  0.00    +0.000 A 
ATOM      6  C   UNL     1      -7.456  -1.565 128.125  0.00  0.00    +0.000 A 
ATOM      7  C   UNL     1      -8.223  -1.702 126.962  0.00  0.00    +0.000 A 
ATOM      8  C   UNL     1      -8.960  -2.867 126.731  0.00  0.00    +0.000 A 
ATOM      9  C   UNL     1      -8.960  -3.876 127.699  0.00  0.00    +0.000 A 
ATOM     10  C   UNL     1      -8.217  -3.732 128.876  0.00  0.00    +0.000 A 
BRANCH   5  12
ATOM     11  N   UNL     1      -5.687  -1.594 130.509  0.00  0.00    +0.000 N 
ATOM     12  C   UNL     1      -6.829  -2.339 130.418  0.00  0.00    +0.000 C 
ATOM     13  N   UNL     1      -7.345  -2.894 131.458  0.00  0.00    +0.000 NA
ATOM     14  H   UNL     1      -5.351  -1.316 131.422  0.00  0.00    +0.000 HD
ATOM     15  H   UNL     1      -5.438  -0.970 129.752  0.00  0.00    +0.000 HD
ATOM     16  H   UNL     1      -6.772  -2.712 132.283  0.00  0.00    +0.000 HD
ENDBRANCH   5  12
ENDBRANCH   4   8
ENDBRANCH   3   4
ENDBRANCH   2   3
ENDBRANCH   1   2
BRANCH   1  17
ATOM     17  C   UNL     1      -7.233  -1.776 122.993  0.00  0.00    +0.000 C 
BRANCH  17  18
ATOM     18  C   UNL     1      -6.689  -0.729 123.961  0.00  0.00    +0.000 C 
BRANCH  18  19
ATOM     19  C   UNL     1      -7.651   0.451 124.086  0.00  0.00    +0.000 C 
BRANCH  19  20
ATOM     20  O   UNL     1      -6.938   1.534 124.680  0.00  0.00    +0.000 OA
BRANCH  20  21
ATOM     21  C   UNL     1      -6.495   2.508 123.830  0.00  0.00    +0.000 A 
ATOM     22  C   UNL     1      -6.651   2.227 122.475  0.00  0.00    +0.000 A 
ATOM     23  C   UNL     1      -6.113   3.078 121.506  0.00  0.00    +0.000 A 
ATOM     24  C   UNL     1      -5.469   4.266 121.872  0.00  0.00    +0.000 A 
ATOM     25  C   UNL     1      -5.311   4.540 123.239  0.00  0.00    +0.000 A 
ATOM     26  C   UNL     1      -5.819   3.663 124.211  0.00  0.00    +0.000 A 
BRANCH  24  27
ATOM     27  C   UNL     1      -4.999   5.221 120.810  0.00  0.00    +0.000 C 
ATOM     28  N   UNL     1      -5.491   5.174 119.544  0.00  0.00    +0.000 N 
ATOM     29  N   UNL     1      -4.121   6.154 121.015  0.00  0.00    +0.000 NA
ATOM     30  H   UNL     1      -6.278   4.617 119.256  0.00  0.00    +0.000 HD
ATOM     31  H   UNL     1      -5.216   5.936 118.934  0.00  0.00    +0.000 HD
ATOM     32  H   UNL     1      -3.770   6.167 121.971  0.00  0.00    +0.000 HD
ENDBRANCH  24  27
ENDBRANCH  20  21
ENDBRANCH  19  20
ENDBRANCH  18  19
ENDBRANCH  17  18
ENDBRANCH   1  17
TORSDOF 11
ENDMDL
MODEL 4
REMARK VINA RESULT:      -6.2      1.223      4.296
REMARK  Name = Hexamidine
REMARK  11 active torsions:
REMARK  status: ('A' for Active; 'I' for Inactive)
REMARK    1  A    between atoms: C_2  and  C_4
REMARK    2  A    between atoms: C_7  and  O_8
REMARK    3  A    between atoms: O_8  and  C_9
REMARK    4  A    between atoms: C_9  and  C_10
REMARK    5  A    between atoms: C_10  and  C_11
REMARK    6  A    between atoms: C_11  and  C_12
REMARK    7  A    between atoms: C_12  and  C_13
REMARK    8  A    between atoms: C_13  and  C_14
REMARK    9  A    between atoms: C_14  and  O_15
REMARK   10  A    between atoms: O_15  and  C_16
REMARK   11  A    between atoms: C_19  and  C_22
REMARK                            x       y       z     vdW  Elec       q    Type
REMARK                         _______ _______ _______ _____ _____    ______ ____
ROOT
ATOM      1  C   UNL     1      -9.361  -3.085 125.853  0.00  0.00    +0.000 C 
ENDROOT
BRANCH   1   2
ATOM      2  C   UNL     1      -8.373  -2.508 126.867  0.00  0.00    +0.000 C 
BRANCH   2   3
ATOM      3  C   UNL     1      -7.037  -2.191 126.203  0.00  0.00    +0.000 C 
BRANCH   3   4
ATOM      4  O   UNL     1      -6.114  -1.716 127.186  0.00  0.00    +0.000 OA
BRANCH   4   8
ATOM      5  C   UNL     1      -5.440   2.404 127.306  0.00  0.00    +0.000 A 
ATOM      6  C   UNL     1      -6.104   1.738 128.340  0.00  0.00    +0.000 A 
ATOM      7  C   UNL     1      -6.278   0.351 128.279  0.00  0.00    +0.000 A 
ATOM      8  C   UNL     1      -5.849  -0.370 127.160  0.00  0.00    +0.000 A 
ATOM      9  C   UNL     1      -5.199   0.307 126.123  0.00  0.00    +0.000 A 
ATOM     10  C   UNL     1      -4.998   1.691 126.192  0.00  0.00    +0.000 A 
BRANCH   5  12
ATOM     11  N   UNL     1      -3.800   4.262 127.199  0.00  0.00    +0.000 N 
ATOM     12  C   UNL     1      -5.072   3.840 127.466  0.00  0.00    +0.000 C 
ATOM     13  N   UNL     1      -5.965   4.656 127.904  0.00  0.00    +0.000 NA
ATOM     14  H   UNL     1      -3.608   5.254 127.162  0.00  0.00    +0.000 HD
ATOM     15  H   UNL     1      -3.193   3.686 126.630  0.00  0.00    +0.000 HD
ATOM     16  H   UNL     1      -5.567   5.587 128.032  0.00  0.00    +0.000 HD
ENDBRANCH   5  12
ENDBRANCH   4   8
ENDBRANCH   3   4
ENDBRANCH   2   3
ENDBRANCH   1   2
BRANCH   1  17
ATOM     17  C   UNL     1      -8.646  -3.533 124.581  0.00  0.00    +0.000 C 
BRANCH  17  18
ATOM     18  C   UNL     1      -9.347  -3.006 123.333  0.00  0.00    +0.000 C 
BRANCH  18  19
ATOM     19  C   UNL     1      -8.814  -1.626 122.950  0.00  0.00    +0.000 C 
BRANCH  19  20
ATOM     20  O   UNL     1      -9.846  -0.675 123.204  0.00  0.00    +0.000 OA
BRANCH  20  21
ATOM     21  C   UNL     1      -9.457   0.502 123.780  0.00  0.00    +0.000 A 
ATOM     22  C   UNL     1      -9.257   1.557 122.895  0.00  0.00    +0.000 A 
ATOM     23  C   UNL     1      -8.725   2.770 123.341  0.00  0.00    +0.000 A 
ATOM     24  C   UNL     1      -8.451   2.976 124.699  0.00  0.00    +0.000 A 
ATOM     25  C   UNL     1      -8.652   1.907 125.585  0.00  0.00    +0.000 A 
ATOM     26  C   UNL     1      -9.149   0.676 125.126  0.00  0.00    +0.000 A 
BRANCH  24  27
ATOM     27  C   UNL     1      -7.988   4.325 125.173  0.00  0.00    +0.000 C 
ATOM     28  N   UNL     1      -6.837   4.884 124.714  0.00  0.00    +0.000 N 
ATOM     29  N   UNL     1      -8.640   5.055 126.024  0.00  0.00    +0.000 NA
ATOM     30  H   UNL     1      -6.293   4.525 123.947  0.00  0.00    +0.000 HD
ATOM     31  H   UNL     1      -6.673   5.846 124.986  0.00  0.00    +0.000 HD
ATOM     32  H   UNL     1      -9.498   4.613 126.351  0.00  0.00    +0.000 HD
ENDBRANCH  24  27
ENDBRANCH  20  21
ENDBRANCH  19  20
ENDBRANCH  18  19
ENDBRANCH  17  18
ENDBRANCH   1  17
TORSDOF 11
ENDMDL
MODEL 5
REMARK VINA RESULT:      -6.1      6.007      8.538
REMARK  Name = Hexamidine
REMARK  11 active torsions:
REMARK  status: ('A' for Active; 'I' for Inactive)
REMARK    1  A    between atoms: C_2  and  C_4
REMARK    2  A    between atoms: C_7  and  O_8
REMARK    3  A    between atoms: O_8  and  C_9
REMARK    4  A    between atoms: C_9  and  C_10
REMARK    5  A    between atoms: C_10  and  C_11
REMARK    6  A    between atoms: C_11  and  C_12
REMARK    7  A    between atoms: C_12  and  C_13
REMARK    8  A    between atoms: C_13  and  C_14
REMARK    9  A    between atoms: C_14  and  O_15
REMARK   10  A    between atoms: O_15  and  C_16
REMARK   11  A    between atoms: C_19  and  C_22
REMARK                            x       y       z     vdW  Elec       q    Type
REMARK                         _______ _______ _______ _____ _____    ______ ____
ROOT
ATOM      1  C   UNL     1      -9.293   1.486 131.347  0.00  0.00    +0.000 C 
ENDROOT
BRANCH   1   2
ATOM      2  C   UNL     1      -8.907   0.031 131.619  0.00  0.00    +0.000 C 
BRANCH   2   3
ATOM      3  C   UNL     1      -7.678  -0.364 130.807  0.00  0.00    +0.000 C 
BRANCH   3   4
ATOM      4  O   UNL     1      -7.680  -1.778 130.592  0.00  0.00    +0.000 OA
BRANCH   4   8
ATOM      5  C   UNL     1      -8.509  -2.814 126.632  0.00  0.00    +0.000 A 
ATOM      6  C   UNL     1      -7.944  -1.580 126.965  0.00  0.00    +0.000 A 
ATOM      7  C   UNL     1      -7.648  -1.285 128.302  0.00  0.00    +0.000 A 
ATOM      8  C   UNL     1      -7.971  -2.191 129.317  0.00  0.00    +0.000 A 
ATOM      9  C   UNL     1      -8.551  -3.417 128.975  0.00  0.00    +0.000 A 
ATOM     10  C   UNL     1      -8.824  -3.727 127.638  0.00  0.00    +0.000 A 
BRANCH   5  12
ATOM     11  N   UNL     1      -7.525  -3.569 124.484  0.00  0.00    +0.000 N 
ATOM     12  C   UNL     1      -8.632  -3.210 125.200  0.00  0.00    +0.000 C 
ATOM     13  N   UNL     1      -9.793  -3.159 124.648  0.00  0.00    +0.000 NA
ATOM     14  H   UNL     1      -7.643  -3.981 123.568  0.00  0.00    +0.000 HD
ATOM     15  H   UNL     1      -6.683  -3.844 124.974  0.00  0.00    +0.000 HD
ATOM     16  H   UNL     1      -9.728  -3.388 123.655  0.00  0.00    +0.000 HD
ENDBRANCH   5  12
ENDBRANCH   4   8
ENDBRANCH   3   4
ENDBRANCH   2   3
ENDBRANCH   1   2
BRANCH   1  17
ATOM     17  C   UNL     1      -9.362   2.289 132.642  0.00  0.00    +0.000 C 
BRANCH  17  18
ATOM     18  C   UNL     1      -8.577   3.594 132.532  0.00  0.00    +0.000 C 
BRANCH  18  19
ATOM     19  C   UNL     1      -9.445   4.788 132.926  0.00  0.00    +0.000 C 
BRANCH  19  20
ATOM     20  O   UNL     1      -9.076   5.887 132.096  0.00  0.00    +0.000 OA
BRANCH  20  21
ATOM     21  C   UNL     1     -10.074   6.445 131.348  0.00  0.00    +0.000 A 
ATOM     22  C   UNL     1      -9.658   7.071 130.177  0.00  0.00    +0.000 A 
ATOM     23  C   UNL     1     -10.562   7.799 129.398  0.00  0.00    +0.000 A 
ATOM     24  C   UNL     1     -11.919   7.855 129.740  0.00  0.00    +0.000 A 
ATOM     25  C   UNL     1     -12.331   7.226 130.924  0.00  0.00    +0.000 A 
ATOM     26  C   UNL     1     -11.412   6.529 131.724  0.00  0.00    +0.000 A 
BRANCH  24  27
ATOM     27  C   UNL     1     -12.892   8.548 128.827  0.00  0.00    +0.000 C 
ATOM     28  N   UNL     1     -13.679   7.850 127.965  0.00  0.00    +0.000 N 
ATOM     29  N   UNL     1     -13.068   9.833 128.799  0.00  0.00    +0.000 NA
ATOM     30  H   UNL     1     -13.777   6.849 127.964  0.00  0.00    +0.000 HD
ATOM     31  H   UNL     1     -14.394   8.385 127.487  0.00  0.00    +0.000 HD
ATOM     32  H   UNL     1     -12.467  10.330 129.454  0.00  0.00    +0.000 HD
ENDBRANCH  24  27
ENDBRANCH  20  21
ENDBRANCH  19  20
ENDBRANCH  18  19
ENDBRANCH  17  18
ENDBRANCH   1  17
TORSDOF 11
ENDMDL
MODEL 6
REMARK VINA RESULT:      -6.0      1.499      2.162
REMARK  Name = Hexamidine
REMARK  11 active torsions:
REMARK  status: ('A' for Active; 'I' for Inactive)
REMARK    1  A    between atoms: C_2  and  C_4
REMARK    2  A    between atoms: C_7  and  O_8
REMARK    3  A    between atoms: O_8  and  C_9
REMARK    4  A    between atoms: C_9  and  C_10
REMARK    5  A    between atoms: C_10  and  C_11
REMARK    6  A    between atoms: C_11  and  C_12
REMARK    7  A    between atoms: C_12  and  C_13
REMARK    8  A    between atoms: C_13  and  C_14
REMARK    9  A    between atoms: C_14  and  O_15
REMARK   10  A    between atoms: O_15  and  C_16
REMARK   11  A    between atoms: C_19  and  C_22
REMARK                            x       y       z     vdW  Elec       q    Type
REMARK                         _______ _______ _______ _____ _____    ______ ____
ROOT
ATOM      1  C   UNL     1      -8.160  -2.937 126.980  0.00  0.00    +0.000 C 
ENDROOT
BRANCH   1   2
ATOM      2  C   UNL     1      -8.771  -3.535 125.713  0.00  0.00    +0.000 C 
BRANCH   2   3
ATOM      3  C   UNL     1      -9.173  -2.436 124.734  0.00  0.00    +0.000 C 
BRANCH   3   4
ATOM      4  O   UNL     1      -9.370  -1.211 125.445  0.00  0.00    +0.000 OA
BRANCH   4   8
ATOM      5  C   UNL     1      -8.100   2.184 123.369  0.00  0.00    +0.000 A 
ATOM      6  C   UNL     1      -7.302   1.040 123.464  0.00  0.00    +0.000 A 
ATOM      7  C   UNL     1      -7.780  -0.090 124.138  0.00  0.00    +0.000 A 
ATOM      8  C   UNL     1      -9.025  -0.065 124.774  0.00  0.00    +0.000 A 
ATOM      9  C   UNL     1      -9.810   1.089 124.686  0.00  0.00    +0.000 A 
ATOM     10  C   UNL     1      -9.349   2.212 123.990  0.00  0.00    +0.000 A 
BRANCH   5  12
ATOM     11  N   UNL     1      -8.452   3.662 121.409  0.00  0.00    +0.000 N 
ATOM     12  C   UNL     1      -7.684   3.306 122.480  0.00  0.00    +0.000 C 
ATOM     13  N   UNL     1      -6.565   3.894 122.721  0.00  0.00    +0.000 NA
ATOM     14  H   UNL     1      -8.239   4.516 120.912  0.00  0.00    +0.000 HD
ATOM     15  H   UNL     1      -9.423   3.376 121.375  0.00  0.00    +0.000 HD
ATOM     16  H   UNL     1      -6.366   4.593 122.004  0.00  0.00    +0.000 HD
ENDBRANCH   5  12
ENDBRANCH   4   8
ENDBRANCH   3   4
ENDBRANCH   2   3
ENDBRANCH   1   2
BRANCH   1  17
ATOM     17  C   UNL     1      -8.578  -3.725 128.219  0.00  0.00    +0.000 C 
BRANCH  17  18
ATOM     18  C   UNL     1      -8.210  -2.984 129.501  0.00  0.00    +0.000 C 
BRANCH  18  19
ATOM     19  C   UNL     1      -7.239  -1.841 129.212  0.00  0.00    +0.000 C 
BRANCH  19  20
ATOM     20  O   UNL     1      -7.926  -0.615 129.454  0.00  0.00    +0.000 OA
BRANCH  20  21
ATOM     21  C   UNL     1      -7.634   0.421 128.611  0.00  0.00    +0.000 A 
ATOM     22  C   UNL     1      -6.366   0.378 128.038  0.00  0.00    +0.000 A 
ATOM     23  C   UNL     1      -5.896   1.447 127.270  0.00  0.00    +0.000 A 
ATOM     24  C   UNL     1      -6.714   2.551 127.002  0.00  0.00    +0.000 A 
ATOM     25  C   UNL     1      -7.989   2.590 127.586  0.00  0.00    +0.000 A 
ATOM     26  C   UNL     1      -8.443   1.531 128.389  0.00  0.00    +0.000 A 
BRANCH  24  27
ATOM     27  C   UNL     1      -6.229   3.636 126.080  0.00  0.00    +0.000 C 
ATOM     28  N   UNL     1      -5.087   3.495 125.356  0.00  0.00    +0.000 N 
ATOM     29  N   UNL     1      -6.852   4.758 125.894  0.00  0.00    +0.000 NA
ATOM     30  H   UNL     1      -4.568   2.638 125.268  0.00  0.00    +0.000 HD
ATOM     31  H   UNL     1      -4.909   4.216 124.666  0.00  0.00    +0.000 HD
ATOM     32  H   UNL     1      -7.703   4.836 126.447  0.00  0.00    +0.000 HD
ENDBRANCH  24  27
ENDBRANCH  20  21
ENDBRANCH  19  20
ENDBRANCH  18  19
ENDBRANCH  17  18
ENDBRANCH   1  17
TORSDOF 11
ENDMDL
MODEL 7
REMARK VINA RESULT:      -5.8      2.742      3.705
REMARK  Name = Hexamidine
REMARK  11 active torsions:
REMARK  status: ('A' for Active; 'I' for Inactive)
REMARK    1  A    between atoms: C_2  and  C_4
REMARK    2  A    between atoms: C_7  and  O_8
REMARK    3  A    between atoms: O_8  and  C_9
REMARK    4  A    between atoms: C_9  and  C_10
REMARK    5  A    between atoms: C_10  and  C_11
REMARK    6  A    between atoms: C_11  and  C_12
REMARK    7  A    between atoms: C_12  and  C_13
REMARK    8  A    between atoms: C_13  and  C_14
REMARK    9  A    between atoms: C_14  and  O_15
REMARK   10  A    between atoms: O_15  and  C_16
REMARK   11  A    between atoms: C_19  and  C_22
REMARK                            x       y       z     vdW  Elec       q    Type
REMARK                         _______ _______ _______ _____ _____    ______ ____
ROOT
ATOM      1  C   UNL     1      -8.457  -2.838 126.865  0.00  0.00    +0.000 C 
ENDROOT
BRANCH   1   2
ATOM      2  C   UNL     1      -9.021  -3.311 125.524  0.00  0.00    +0.000 C 
BRANCH   2   3
ATOM      3  C   UNL     1      -8.412  -2.520 124.371  0.00  0.00    +0.000 C 
BRANCH   3   4
ATOM      4  O   UNL     1      -9.334  -1.517 123.937  0.00  0.00    +0.000 OA
BRANCH   4   8
ATOM      5  C   UNL     1      -8.129   2.418 124.647  0.00  0.00    +0.000 A 
ATOM      6  C   UNL     1      -7.643   1.686 123.561  0.00  0.00    +0.000 A 
ATOM      7  C   UNL     1      -8.099   0.382 123.337  0.00  0.00    +0.000 A 
ATOM      8  C   UNL     1      -8.992  -0.221 124.228  0.00  0.00    +0.000 A 
ATOM      9  C   UNL     1      -9.462   0.515 125.322  0.00  0.00    +0.000 A 
ATOM     10  C   UNL     1      -9.029   1.828 125.535  0.00  0.00    +0.000 A 
BRANCH   5  12
ATOM     11  N   UNL     1      -6.636   4.361 124.262  0.00  0.00    +0.000 N 
ATOM     12  C   UNL     1      -7.806   3.868 124.768  0.00  0.00    +0.000 C 
ATOM     13  N   UNL     1      -8.630   4.629 125.399  0.00  0.00    +0.000 NA
ATOM     14  H   UNL     1      -6.503   5.362 124.214  0.00  0.00    +0.000 HD
ATOM     15  H   UNL     1      -6.129   3.827 123.568  0.00  0.00    +0.000 HD
ATOM     16  H   UNL     1      -8.259   5.578 125.469  0.00  0.00    +0.000 HD
ENDBRANCH   5  12
ENDBRANCH   4   8
ENDBRANCH   3   4
ENDBRANCH   2   3
ENDBRANCH   1   2
BRANCH   1  17
ATOM     17  C   UNL     1      -8.825  -3.802 127.988  0.00  0.00    +0.000 C 
BRANCH  17  18
ATOM     18  C   UNL     1      -8.280  -3.327 129.332  0.00  0.00    +0.000 C 
BRANCH  18  19
ATOM     19  C   UNL     1      -7.239  -2.225 129.140  0.00  0.00    +0.000 C 
BRANCH  19  20
ATOM     20  O   UNL     1      -7.180  -1.467 130.347  0.00  0.00    +0.000 OA
BRANCH  20  21
ATOM     21  C   UNL     1      -7.914  -0.315 130.377  0.00  0.00    +0.000 A 
ATOM     22  C   UNL     1      -7.821   0.476 129.235  0.00  0.00    +0.000 A 
ATOM     23  C   UNL     1      -8.411   1.742 129.197  0.00  0.00    +0.000 A 
ATOM     24  C   UNL     1      -9.168   2.213 130.277  0.00  0.00    +0.000 A 
ATOM     25  C   UNL     1      -9.254   1.412 131.426  0.00  0.00    +0.000 A 
ATOM     26  C   UNL     1      -8.627   0.157 131.475  0.00  0.00    +0.000 A 
BRANCH  24  27
ATOM     27  C   UNL     1      -9.888   3.529 130.170  0.00  0.00    +0.000 C 
ATOM     28  N   UNL     1     -11.075   3.743 130.797  0.00  0.00    +0.000 N 
ATOM     29  N   UNL     1      -9.439   4.545 129.500  0.00  0.00    +0.000 NA
ATOM     30  H   UNL     1     -11.486   3.120 131.471  0.00  0.00    +0.000 HD
ATOM     31  H   UNL     1     -11.420   4.696 130.777  0.00  0.00    +0.000 HD
ATOM     32  H   UNL     1      -8.549   4.358 129.042  0.00  0.00    +0.000 HD
ENDBRANCH  24  27
ENDBRANCH  20  21
ENDBRANCH  19  20
ENDBRANCH  18  19
ENDBRANCH  17  18
ENDBRANCH   1  17
TORSDOF 11
ENDMDL
MODEL 8
REMARK VINA RESULT:      -5.7      0.926      4.350
REMARK  Name = Hexamidine
REMARK  11 active torsions:
REMARK  status: ('A' for Active; 'I' for Inactive)
REMARK    1  A    between atoms: C_2  and  C_4
REMARK    2  A    between atoms: C_7  and  O_8
REMARK    3  A    between atoms: O_8  and  C_9
REMARK    4  A    between atoms: C_9  and  C_10
REMARK    5  A    between atoms: C_10  and  C_11
REMARK    6  A    between atoms: C_11  and  C_12
REMARK    7  A    between atoms: C_12  and  C_13
REMARK    8  A    between atoms: C_13  and  C_14
REMARK    9  A    between atoms: C_14  and  O_15
REMARK   10  A    between atoms: O_15  and  C_16
REMARK   11  A    between atoms: C_19  and  C_22
REMARK                            x       y       z     vdW  Elec       q    Type
REMARK                         _______ _______ _______ _____ _____    ______ ____
ROOT
ATOM      1  C   UNL     1      -9.139  -2.948 126.237  0.00  0.00    +0.000 C 
ENDROOT
BRANCH   1   2
ATOM      2  C   UNL     1      -8.947  -3.816 127.481  0.00  0.00    +0.000 C 
BRANCH   2   3
ATOM      3  C   UNL     1      -7.886  -3.218 128.400  0.00  0.00    +0.000 C 
BRANCH   3   4
ATOM      4  O   UNL     1      -8.229  -1.864 128.709  0.00  0.00    +0.000 OA
BRANCH   4   8
ATOM      5  C   UNL     1      -5.761   1.199 127.306  0.00  0.00    +0.000 A 
ATOM      6  C   UNL     1      -7.126   1.400 127.530  0.00  0.00    +0.000 A 
ATOM      7  C   UNL     1      -7.912   0.358 128.036  0.00  0.00    +0.000 A 
ATOM      8  C   UNL     1      -7.357  -0.906 128.260  0.00  0.00    +0.000 A 
ATOM      9  C   UNL     1      -5.993  -1.102 128.018  0.00  0.00    +0.000 A 
ATOM     10  C   UNL     1      -5.197  -0.055 127.539  0.00  0.00    +0.000 A 
BRANCH   5  12
ATOM     11  N   UNL     1      -3.627   2.157 126.482  0.00  0.00    +0.000 N 
ATOM     12  C   UNL     1      -4.887   2.359 126.969  0.00  0.00    +0.000 C 
ATOM     13  N   UNL     1      -5.332   3.546 127.193  0.00  0.00    +0.000 NA
ATOM     14  H   UNL     1      -3.109   2.944 126.115  0.00  0.00    +0.000 HD
ATOM     15  H   UNL     1      -3.385   1.259 126.082  0.00  0.00    +0.000 HD
ATOM     16  H   UNL     1      -4.614   4.241 126.984  0.00  0.00    +0.000 HD
ENDBRANCH   5  12
ENDBRANCH   4   8
ENDBRANCH   3   4
ENDBRANCH   2   3
ENDBRANCH   1   2
BRANCH   1  17
ATOM     17  C   UNL     1      -8.560  -3.624 124.998  0.00  0.00    +0.000 C 
BRANCH  17  18
ATOM     18  C   UNL     1      -9.414  -3.352 123.763  0.00  0.00    +0.000 C 
BRANCH  18  19
ATOM     19  C   UNL     1      -8.870  -2.162 122.974  0.00  0.00    +0.000 C 
BRANCH  19  20
ATOM     20  O   UNL     1      -9.616  -1.008 123.358  0.00  0.00    +0.000 OA
BRANCH  20  21
ATOM     21  C   UNL     1      -8.891   0.113 123.648  0.00  0.00    +0.000 A 
ATOM     22  C   UNL     1      -9.644   1.232 123.994  0.00  0.00    +0.000 A 
ATOM     23  C   UNL     1      -9.031   2.474 124.177  0.00  0.00    +0.000 A 
ATOM     24  C   UNL     1      -7.640   2.607 124.086  0.00  0.00    +0.000 A 
ATOM     25  C   UNL     1      -6.888   1.477 123.733  0.00  0.00    +0.000 A 
ATOM     26  C   UNL     1      -7.512   0.239 123.512  0.00  0.00    +0.000 A 
BRANCH  24  27
ATOM     27  C   UNL     1      -6.993   3.928 124.399  0.00  0.00    +0.000 C 
ATOM     28  N   UNL     1      -7.617   4.863 125.163  0.00  0.00    +0.000 N 
ATOM     29  N   UNL     1      -5.809   4.267 123.989  0.00  0.00    +0.000 NA
ATOM     30  H   UNL     1      -8.466   4.705 125.680  0.00  0.00    +0.000 HD
ATOM     31  H   UNL     1      -7.056   5.663 125.430  0.00  0.00    +0.000 HD
ATOM     32  H   UNL     1      -5.365   3.549 123.420  0.00  0.00    +0.000 HD
ENDBRANCH  24  27
ENDBRANCH  20  21
ENDBRANCH  19  20
ENDBRANCH  18  19
ENDBRANCH  17  18
ENDBRANCH   1  17
TORSDOF 11
ENDMDL
MODEL 9
REMARK VINA RESULT:      -5.7      3.037      5.554
REMARK  Name = Hexamidine
REMARK  11 active torsions:
REMARK  status: ('A' for Active; 'I' for Inactive)
REMARK    1  A    between atoms: C_2  and  C_4
REMARK    2  A    between atoms: C_7  and  O_8
REMARK    3  A    between atoms: O_8  and  C_9
REMARK    4  A    between atoms: C_9  and  C_10
REMARK    5  A    between atoms: C_10  and  C_11
REMARK    6  A    between atoms: C_11  and  C_12
REMARK    7  A    between atoms: C_12  and  C_13
REMARK    8  A    between atoms: C_13  and  C_14
REMARK    9  A    between atoms: C_14  and  O_15
REMARK   10  A    between atoms: O_15  and  C_16
REMARK   11  A    between atoms: C_19  and  C_22
REMARK                            x       y       z     vdW  Elec       q    Type
REMARK                         _______ _______ _______ _____ _____    ______ ____
ROOT
ATOM      1  C   UNL     1      -7.986  -2.826 127.747  0.00  0.00    +0.000 C 
ENDROOT
BRANCH   1   2
ATOM      2  C   UNL     1      -8.237  -2.900 129.254  0.00  0.00    +0.000 C 
BRANCH   2   3
ATOM      3  C   UNL     1      -7.264  -2.002 130.010  0.00  0.00    +0.000 C 
BRANCH   3   4
ATOM      4  O   UNL     1      -7.939  -1.382 131.108  0.00  0.00    +0.000 OA
BRANCH   4   8
ATOM      5  C   UNL     1      -9.346   2.527 130.681  0.00  0.00    +0.000 A 
ATOM      6  C   UNL     1      -9.734   1.720 131.754  0.00  0.00    +0.000 A 
ATOM      7  C   UNL     1      -9.211   0.428 131.881  0.00  0.00    +0.000 A 
ATOM      8  C   UNL     1      -8.351  -0.089 130.907  0.00  0.00    +0.000 A 
ATOM      9  C   UNL     1      -7.981   0.721 129.829  0.00  0.00    +0.000 A 
ATOM     10  C   UNL     1      -8.479   2.023 129.712  0.00  0.00    +0.000 A 
BRANCH   5  12
ATOM     11  N   UNL     1      -9.124   4.835 129.799  0.00  0.00    +0.000 N 
ATOM     12  C   UNL     1      -9.736   3.966 130.657  0.00  0.00    +0.000 C 
ATOM     13  N   UNL     1     -10.624   4.373 131.495  0.00  0.00    +0.000 NA
ATOM     14  H   UNL     1      -9.504   5.765 129.686  0.00  0.00    +0.000 HD
ATOM     15  H   UNL     1      -8.627   4.473 128.995  0.00  0.00    +0.000 HD
ATOM     16  H   UNL     1     -10.748   5.384 131.421  0.00  0.00    +0.000 HD
ENDBRANCH   5  12
ENDBRANCH   4   8
ENDBRANCH   3   4
ENDBRANCH   2   3
ENDBRANCH   1   2
BRANCH   1  17
ATOM     17  C   UNL     1      -9.080  -3.552 126.970  0.00  0.00    +0.000 C 
BRANCH  17  18
ATOM     18  C   UNL     1      -8.976  -3.279 125.473  0.00  0.00    +0.000 C 
BRANCH  18  19
ATOM     19  C   UNL     1      -8.328  -1.920 125.210  0.00  0.00    +0.000 C 
BRANCH  19  20
ATOM     20  O   UNL     1      -9.370  -0.950 125.125  0.00  0.00    +0.000 OA
BRANCH  20  21
ATOM     21  C   UNL     1      -8.998   0.355 125.288  0.00  0.00    +0.000 A 
ATOM     22  C   UNL     1      -9.536   1.244 124.362  0.00  0.00    +0.000 A 
ATOM     23  C   UNL     1      -9.125   2.579 124.335  0.00  0.00    +0.000 A 
ATOM     24  C   UNL     1      -8.218   3.069 125.283  0.00  0.00    +0.000 A 
ATOM     25  C   UNL     1      -7.677   2.167 126.211  0.00  0.00    +0.000 A 
ATOM     26  C   UNL     1      -8.063   0.817 126.210  0.00  0.00    +0.000 A 
BRANCH  24  27
ATOM     27  C   UNL     1      -7.877   4.534 125.306  0.00  0.00    +0.000 C 
ATOM     28  N   UNL     1      -6.683   4.993 124.847  0.00  0.00    +0.000 N 
ATOM     29  N   UNL     1      -8.681   5.455 125.739  0.00  0.00    +0.000 NA
ATOM     30  H   UNL     1      -6.012   4.437 124.344  0.00  0.00    +0.000 HD
ATOM     31  H   UNL     1      -6.593   6.000 124.779  0.00  0.00    +0.000 HD
ATOM     32  H   UNL     1      -9.567   5.084 126.076  0.00  0.00    +0.000 HD
ENDBRANCH  24  27
ENDBRANCH  20  21
ENDBRANCH  19  20
ENDBRANCH  18  19
ENDBRANCH  17  18
ENDBRANCH   1  17
TORSDOF 11
ENDMDL
