MODEL 1
REMARK VINA RESULT:      -6.7      0.000      0.000
REMARK  Name = Hexetidine
REMARK  18 active torsions:
REMARK  status: ('A' for Active; 'I' for Inactive)
REMARK    1  A    between atoms: C_1  and  C_2
REMARK    2  A    between atoms: C_2  and  C_3
REMARK    3  A    between atoms: C_3  and  C_4
REMARK    4  A    between atoms: C_4  and  C_5
REMARK    5  A    between atoms: C_5  and  C_6
REMARK    6  A    between atoms: C_5  and  C_8
REMARK    7  A    between atoms: C_6  and  C_7
REMARK    8  A    between atoms: C_8  and  N_9
REMARK    9  A    between atoms: N_11  and  C_12
REMARK   10  A    between atoms: C_12  and  C_13
REMARK   11  A    between atoms: C_13  and  C_14
REMARK   12  A    between atoms: C_13  and  C_16
REMARK   13  A    between atoms: C_14  and  C_15
REMARK   14  A    between atoms: C_16  and  C_17
REMARK   15  A    between atoms: C_17  and  C_18
REMARK   16  A    between atoms: C_18  and  C_19
REMARK   17  A    between atoms: C_21  and  C_22
REMARK   18  A    between atoms: C_21  and  N_23
REMARK                            x       y       z     vdW  Elec       q    Type
REMARK                         _______ _______ _______ _____ _____    ______ ____
ROOT
ATOM      1  N   UNL     1      -9.163   0.298 124.253  0.00  0.00    +0.000 NA
ATOM      2  C   UNL     1      -9.230  -0.224 125.634  0.00  0.00    +0.000 C 
ATOM      3  N   UNL     1      -8.287   0.496 126.450  0.00  0.00    +0.000 NA
ATOM      4  C   UNL     1      -8.386   1.919 126.252  0.00  0.00    +0.000 C 
ATOM      5  C   UNL     1      -8.414   2.618 124.859  0.00  0.00    +0.000 C 
ATOM      6  C   UNL     1      -7.090   2.763 124.060  0.00  0.00    +0.000 C 
ATOM      7  C   UNL     1      -9.453   1.756 124.145  0.00  0.00    +0.000 C 
ENDROOT
BRANCH   5   8
ATOM      8  N   UNL     1      -8.744   4.059 124.991  0.00  0.00    +0.000 NA
ATOM      9  H   UNL     1      -8.385   4.549 124.164  0.00  0.00    +0.000 HD
ATOM     10  H   UNL     1      -8.258   4.478 125.780  0.00  0.00    +0.000 HD
ENDBRANCH   5   8
BRANCH   1  11
ATOM     11  C   UNL     1      -7.994  -0.129 123.452  0.00  0.00    +0.000 C 
BRANCH  11  12
ATOM     12  C   UNL     1      -7.813  -1.591 122.823  0.00  0.00    +0.000 C 
BRANCH  12  13
ATOM     13  C   UNL     1      -8.241  -2.873 123.622  0.00  0.00    +0.000 C 
ATOM     14  C   UNL     1      -9.630  -3.499 123.564  0.00  0.00    +0.000 C 
ENDBRANCH  12  13
BRANCH  12  15
ATOM     15  C   UNL     1      -6.294  -1.799 122.586  0.00  0.00    +0.000 C 
BRANCH  15  16
ATOM     16  C   UNL     1      -5.811  -2.815 123.595  0.00  0.00    +0.000 C 
BRANCH  16  18
ATOM     17  C   UNL     1      -4.461  -4.829 123.642  0.00  0.00    +0.000 C 
ATOM     18  C   UNL     1      -4.402  -3.311 123.489  0.00  0.00    +0.000 C 
ENDBRANCH  16  18
ENDBRANCH  15  16
ENDBRANCH  12  15
ENDBRANCH  11  12
ENDBRANCH   1  11
BRANCH   3  19
ATOM     19  C   UNL     1      -7.971   0.140 127.848  0.00  0.00    +0.000 C 
BRANCH  19  20
ATOM     20  C   UNL     1      -7.299  -1.317 128.115  0.00  0.00    +0.000 C 
BRANCH  20  21
ATOM     21  C   UNL     1      -7.758  -2.621 127.321  0.00  0.00    +0.000 C 
ATOM     22  C   UNL     1      -8.771  -3.667 127.820  0.00  0.00    +0.000 C 
ENDBRANCH  20  21
BRANCH  20  23
ATOM     23  C   UNL     1      -5.752  -1.179 127.986  0.00  0.00    +0.000 C 
BRANCH  23  24
ATOM     24  C   UNL     1      -5.040  -2.538 127.899  0.00  0.00    +0.000 C 
BRANCH  24  25
ATOM     25  C   UNL     1      -4.712  -3.114 129.262  0.00  0.00    +0.000 C 
ATOM     26  C   UNL     1      -3.216  -2.998 129.510  0.00  0.00    +0.000 C 
ENDBRANCH  24  25
ENDBRANCH  23  24
ENDBRANCH  20  23
ENDBRANCH  19  20
ENDBRANCH   3  19
TORSDOF 13
ENDMDL
MODEL 2
REMARK VINA RESULT:      -6.5      1.056      1.891
REMARK  Name = Hexetidine
REMARK  18 active torsions:
REMARK  status: ('A' for Active; 'I' for Inactive)
REMARK    1  A    between atoms: C_1  and  C_2
REMARK    2  A    between atoms: C_2  and  C_3
REMARK    3  A    between atoms: C_3  and  C_4
REMARK    4  A    between atoms: C_4  and  C_5
REMARK    5  A    between atoms: C_5  and  C_6
REMARK    6  A    between atoms: C_5  and  C_8
REMARK    7  A    between atoms: C_6  and  C_7
REMARK    8  A    between atoms: C_8  and  N_9
REMARK    9  A    between atoms: N_11  and  C_12
REMARK   10  A    between atoms: C_12  and  C_13
REMARK   11  A    between atoms: C_13  and  C_14
REMARK   12  A    between atoms: C_13  and  C_16
REMARK   13  A    between atoms: C_14  and  C_15
REMARK   14  A    between atoms: C_16  and  C_17
REMARK   15  A    between atoms: C_17  and  C_18
REMARK   16  A    between atoms: C_18  and  C_19
REMARK   17  A    between atoms: C_21  and  C_22
REMARK   18  A    between atoms: C_21  and  N_23
REMARK                            x       y       z     vdW  Elec       q    Type
REMARK                         _______ _______ _______ _____ _____    ______ ____
ROOT
ATOM      1  N   UNL     1      -9.344  -0.018 124.358  0.00  0.00    +0.000 NA
ATOM      2  C   UNL     1      -9.243  -0.532 125.740  0.00  0.00    +0.000 C 
ATOM      3  N   UNL     1      -8.247   0.231 126.448  0.00  0.00    +0.000 NA
ATOM      4  C   UNL     1      -8.423   1.647 126.257  0.00  0.00    +0.000 C 
ATOM      5  C   UNL     1      -8.627   2.334 124.872  0.00  0.00    +0.000 C 
ATOM      6  C   UNL     1      -7.402   2.524 123.935  0.00  0.00    +0.000 C 
ATOM      7  C   UNL     1      -9.701   1.427 124.276  0.00  0.00    +0.000 C 
ENDROOT
BRANCH   5   8
ATOM      8  N   UNL     1      -8.998   3.762 125.034  0.00  0.00    +0.000 NA
ATOM      9  H   UNL     1     -10.022   3.834 124.998  0.00  0.00    +0.000 HD
ATOM     10  H   UNL     1      -8.665   4.321 124.252  0.00  0.00    +0.000 HD
ENDBRANCH   5   8
BRANCH   1  11
ATOM     11  C   UNL     1      -8.250  -0.405 123.438  0.00  0.00    +0.000 C 
BRANCH  11  12
ATOM     12  C   UNL     1      -7.693  -1.898 123.272  0.00  0.00    +0.000 C 
BRANCH  12  13
ATOM     13  C   UNL     1      -8.569  -3.137 123.679  0.00  0.00    +0.000 C 
ATOM     14  C   UNL     1      -8.362  -3.957 124.947  0.00  0.00    +0.000 C 
ENDBRANCH  12  13
BRANCH  12  15
ATOM     15  C   UNL     1      -6.443  -2.020 124.183  0.00  0.00    +0.000 C 
BRANCH  15  16
ATOM     16  C   UNL     1      -5.400  -2.805 123.421  0.00  0.00    +0.000 C 
BRANCH  16  18
ATOM     17  C   UNL     1      -4.331  -4.979 123.309  0.00  0.00    +0.000 C 
ATOM     18  C   UNL     1      -4.515  -3.742 124.184  0.00  0.00    +0.000 C 
ENDBRANCH  16  18
ENDBRANCH  15  16
ENDBRANCH  12  15
ENDBRANCH  11  12
ENDBRANCH   1  11
BRANCH   3  19
ATOM     19  C   UNL     1      -7.771  -0.101 127.805  0.00  0.00    +0.000 C 
BRANCH  19  20
ATOM     20  C   UNL     1      -6.291  -0.764 127.937  0.00  0.00    +0.000 C 
BRANCH  20  21
ATOM     21  C   UNL     1      -5.296  -0.390 129.126  0.00  0.00    +0.000 C 
ATOM     22  C   UNL     1      -4.223  -1.315 129.725  0.00  0.00    +0.000 C 
ENDBRANCH  20  21
BRANCH  20  23
ATOM     23  C   UNL     1      -6.439  -2.316 127.887  0.00  0.00    +0.000 C 
BRANCH  23  24
ATOM     24  C   UNL     1      -7.790  -2.801 128.436  0.00  0.00    +0.000 C 
BRANCH  24  25
ATOM     25  C   UNL     1      -7.710  -3.233 129.886  0.00  0.00    +0.000 C 
ATOM     26  C   UNL     1      -6.469  -4.089 130.089  0.00  0.00    +0.000 C 
ENDBRANCH  24  25
ENDBRANCH  23  24
ENDBRANCH  20  23
ENDBRANCH  19  20
ENDBRANCH   3  19
TORSDOF 13
ENDMDL
MODEL 3
REMARK VINA RESULT:      -6.5      1.361      4.980
REMARK  Name = Hexetidine
REMARK  18 active torsions:
REMARK  status: ('A' for Active; 'I' for Inactive)
REMARK    1  A    between atoms: C_1  and  C_2
REMARK    2  A    between atoms: C_2  and  C_3
REMARK    3  A    between atoms: C_3  and  C_4
REMARK    4  A    between atoms: C_4  and  C_5
REMARK    5  A    between atoms: C_5  and  C_6
REMARK    6  A    between atoms: C_5  and  C_8
REMARK    7  A    between atoms: C_6  and  C_7
REMARK    8  A    between atoms: C_8  and  N_9
REMARK    9  A    between atoms: N_11  and  C_12
REMARK   10  A    between atoms: C_12  and  C_13
REMARK   11  A    between atoms: C_13  and  C_14
REMARK   12  A    between atoms: C_13  and  C_16
REMARK   13  A    between atoms: C_14  and  C_15
REMARK   14  A    between atoms: C_16  and  C_17
REMARK   15  A    between atoms: C_17  and  C_18
REMARK   16  A    between atoms: C_18  and  C_19
REMARK   17  A    between atoms: C_21  and  C_22
REMARK   18  A    between atoms: C_21  and  N_23
REMARK                            x       y       z     vdW  Elec       q    Type
REMARK                         _______ _______ _______ _____ _____    ______ ____
ROOT
ATOM      1  N   UNL     1      -6.703   0.850 126.412  0.00  0.00    +0.000 NA
ATOM      2  C   UNL     1      -5.939   0.266 125.291  0.00  0.00    +0.000 C 
ATOM      3  N   UNL     1      -6.860  -0.350 124.371  0.00  0.00    +0.000 NA
ATOM      4  C   UNL     1      -7.968   0.516 124.064  0.00  0.00    +0.000 C 
ATOM      5  C   UNL     1      -8.820   1.273 125.128  0.00  0.00    +0.000 C 
ATOM      6  C   UNL     1      -9.875   0.484 125.951  0.00  0.00    +0.000 C 
ATOM      7  C   UNL     1      -7.709   1.867 125.992  0.00  0.00    +0.000 C 
ENDROOT
BRANCH   5   8
ATOM      8  N   UNL     1      -9.735   2.249 124.484  0.00  0.00    +0.000 NA
ATOM      9  H   UNL     1     -10.509   1.729 124.055  0.00  0.00    +0.000 HD
ATOM     10  H   UNL     1      -9.278   2.730 123.713  0.00  0.00    +0.000 HD
ENDBRANCH   5   8
BRANCH   1  11
ATOM     11  C   UNL     1      -7.220  -0.107 127.416  0.00  0.00    +0.000 C 
BRANCH  11  12
ATOM     12  C   UNL     1      -6.653  -1.590 127.629  0.00  0.00    +0.000 C 
BRANCH  12  13
ATOM     13  C   UNL     1      -7.518  -2.691 128.342  0.00  0.00    +0.000 C 
ATOM     14  C   UNL     1      -8.178  -2.517 129.704  0.00  0.00    +0.000 C 
ENDBRANCH  12  13
BRANCH  12  15
ATOM     15  C   UNL     1      -5.398  -1.471 128.532  0.00  0.00    +0.000 C 
BRANCH  15  16
ATOM     16  C   UNL     1      -4.749  -2.835 128.593  0.00  0.00    +0.000 C 
BRANCH  16  18
ATOM     17  C   UNL     1      -4.995  -4.406 130.424  0.00  0.00    +0.000 C 
ATOM     18  C   UNL     1      -4.127  -3.272 129.883  0.00  0.00    +0.000 C 
ENDBRANCH  16  18
ENDBRANCH  15  16
ENDBRANCH  12  15
ENDBRANCH  11  12
ENDBRANCH   1  11
BRANCH   3  19
ATOM     19  C   UNL     1      -6.442  -1.165 123.213  0.00  0.00    +0.000 C 
BRANCH  19  20
ATOM     20  C   UNL     1      -6.062  -2.722 123.493  0.00  0.00    +0.000 C 
BRANCH  20  21
ATOM     21  C   UNL     1      -4.560  -3.253 123.427  0.00  0.00    +0.000 C 
ATOM     22  C   UNL     1      -4.123  -4.726 123.511  0.00  0.00    +0.000 C 
ENDBRANCH  20  21
BRANCH  20  23
ATOM     23  C   UNL     1      -6.675  -3.143 124.863  0.00  0.00    +0.000 C 
BRANCH  23  24
ATOM     24  C   UNL     1      -7.939  -4.003 124.708  0.00  0.00    +0.000 C 
BRANCH  24  25
ATOM     25  C   UNL     1      -9.208  -3.176 124.672  0.00  0.00    +0.000 C 
ATOM     26  C   UNL     1      -9.694  -3.063 123.234  0.00  0.00    +0.000 C 
ENDBRANCH  24  25
ENDBRANCH  23  24
ENDBRANCH  20  23
ENDBRANCH  19  20
ENDBRANCH   3  19
TORSDOF 13
ENDMDL
MODEL 4
REMARK VINA RESULT:      -6.3      2.381      3.258
REMARK  Name = Hexetidine
REMARK  18 active torsions:
REMARK  status: ('A' for Active; 'I' for Inactive)
REMARK    1  A    between atoms: C_1  and  C_2
REMARK    2  A    between atoms: C_2  and  C_3
REMARK    3  A    between atoms: C_3  and  C_4
REMARK    4  A    between atoms: C_4  and  C_5
REMARK    5  A    between atoms: C_5  and  C_6
REMARK    6  A    between atoms: C_5  and  C_8
REMARK    7  A    between atoms: C_6  and  C_7
REMARK    8  A    between atoms: C_8  and  N_9
REMARK    9  A    between atoms: N_11  and  C_12
REMARK   10  A    between atoms: C_12  and  C_13
REMARK   11  A    between atoms: C_13  and  C_14
REMARK   12  A    between atoms: C_13  and  C_16
REMARK   13  A    between atoms: C_14  and  C_15
REMARK   14  A    between atoms: C_16  and  C_17
REMARK   15  A    between atoms: C_17  and  C_18
REMARK   16  A    between atoms: C_18  and  C_19
REMARK   17  A    between atoms: C_21  and  C_22
REMARK   18  A    between atoms: C_21  and  N_23
REMARK                            x       y       z     vdW  Elec       q    Type
REMARK                         _______ _______ _______ _____ _____    ______ ____
ROOT
ATOM      1  N   UNL     1      -8.720   0.499 124.581  0.00  0.00    +0.000 NA
ATOM      2  C   UNL     1      -8.493   1.058 125.929  0.00  0.00    +0.000 C 
ATOM      3  N   UNL     1      -7.465   2.064 125.850  0.00  0.00    +0.000 NA
ATOM      4  C   UNL     1      -7.695   2.978 124.761  0.00  0.00    +0.000 C 
ATOM      5  C   UNL     1      -8.030   2.546 123.300  0.00  0.00    +0.000 C 
ATOM      6  C   UNL     1      -6.890   2.007 122.392  0.00  0.00    +0.000 C 
ATOM      7  C   UNL     1      -9.123   1.514 123.567  0.00  0.00    +0.000 C 
ENDROOT
BRANCH   5   8
ATOM      8  N   UNL     1      -8.426   3.716 122.476  0.00  0.00    +0.000 NA
ATOM      9  H   UNL     1      -8.164   4.570 122.982  0.00  0.00    +0.000 HD
ATOM     10  H   UNL     1      -9.437   3.769 122.372  0.00  0.00    +0.000 HD
ENDBRANCH   5   8
BRANCH   1  11
ATOM     11  C   UNL     1      -7.694  -0.448 124.088  0.00  0.00    +0.000 C 
BRANCH  11  12
ATOM     12  C   UNL     1      -7.922  -1.487 122.890  0.00  0.00    +0.000 C 
BRANCH  12  13
ATOM     13  C   UNL     1      -8.820  -2.762 123.087  0.00  0.00    +0.000 C 
ATOM     14  C   UNL     1      -9.194  -3.349 124.443  0.00  0.00    +0.000 C 
ENDBRANCH  12  13
BRANCH  12  15
ATOM     15  C   UNL     1      -6.533  -2.073 122.526  0.00  0.00    +0.000 C 
BRANCH  15  16
ATOM     16  C   UNL     1      -5.691  -2.065 123.781  0.00  0.00    +0.000 C 
BRANCH  16  18
ATOM     17  C   UNL     1      -4.431  -4.118 123.508  0.00  0.00    +0.000 C 
ATOM     18  C   UNL     1      -5.382  -3.374 124.441  0.00  0.00    +0.000 C 
ENDBRANCH  16  18
ENDBRANCH  15  16
ENDBRANCH  12  15
ENDBRANCH  11  12
ENDBRANCH   1  11
BRANCH   3  19
ATOM     19  C   UNL     1      -6.872   2.727 127.028  0.00  0.00    +0.000 C 
BRANCH  19  20
ATOM     20  C   UNL     1      -5.496   2.097 127.626  0.00  0.00    +0.000 C 
BRANCH  20  21
ATOM     21  C   UNL     1      -5.417   0.604 128.180  0.00  0.00    +0.000 C 
ATOM     22  C   UNL     1      -5.508  -0.676 127.331  0.00  0.00    +0.000 C 
ENDBRANCH  20  21
BRANCH  20  23
ATOM     23  C   UNL     1      -4.364   2.293 126.572  0.00  0.00    +0.000 C 
BRANCH  23  24
ATOM     24  C   UNL     1      -3.952   3.765 126.410  0.00  0.00    +0.000 C 
BRANCH  24  25
ATOM     25  C   UNL     1      -2.568   4.049 126.957  0.00  0.00    +0.000 C 
ATOM     26  C   UNL     1      -1.636   2.904 126.587  0.00  0.00    +0.000 C 
ENDBRANCH  24  25
ENDBRANCH  23  24
ENDBRANCH  20  23
ENDBRANCH  19  20
ENDBRANCH   3  19
TORSDOF 13
ENDMDL
MODEL 5
REMARK VINA RESULT:      -6.2      1.592      2.573
REMARK  Name = Hexetidine
REMARK  18 active torsions:
REMARK  status: ('A' for Active; 'I' for Inactive)
REMARK    1  A    between atoms: C_1  and  C_2
REMARK    2  A    between atoms: C_2  and  C_3
REMARK    3  A    between atoms: C_3  and  C_4
REMARK    4  A    between atoms: C_4  and  C_5
REMARK    5  A    between atoms: C_5  and  C_6
REMARK    6  A    between atoms: C_5  and  C_8
REMARK    7  A    between atoms: C_6  and  C_7
REMARK    8  A    between atoms: C_8  and  N_9
REMARK    9  A    between atoms: N_11  and  C_12
REMARK   10  A    between atoms: C_12  and  C_13
REMARK   11  A    between atoms: C_13  and  C_14
REMARK   12  A    between atoms: C_13  and  C_16
REMARK   13  A    between atoms: C_14  and  C_15
REMARK   14  A    between atoms: C_16  and  C_17
REMARK   15  A    between atoms: C_17  and  C_18
REMARK   16  A    between atoms: C_18  and  C_19
REMARK   17  A    between atoms: C_21  and  C_22
REMARK   18  A    between atoms: C_21  and  N_23
REMARK                            x       y       z     vdW  Elec       q    Type
REMARK                         _______ _______ _______ _____ _____    ______ ____
ROOT
ATOM      1  N   UNL     1      -8.957   0.368 124.678  0.00  0.00    +0.000 NA
ATOM      2  C   UNL     1      -9.016   0.029 126.115  0.00  0.00    +0.000 C 
ATOM      3  N   UNL     1      -8.119   0.895 126.836  0.00  0.00    +0.000 NA
ATOM      4  C   UNL     1      -8.283   2.273 126.451  0.00  0.00    +0.000 C 
ATOM      5  C   UNL     1      -8.327   2.781 124.977  0.00  0.00    +0.000 C 
ATOM      6  C   UNL     1      -7.001   2.884 124.174  0.00  0.00    +0.000 C 
ATOM      7  C   UNL     1      -9.315   1.783 124.377  0.00  0.00    +0.000 C 
ENDROOT
BRANCH   5   8
ATOM      8  N   UNL     1      -8.728   4.209 124.917  0.00  0.00    +0.000 NA
ATOM      9  H   UNL     1      -9.521   4.294 124.271  0.00  0.00    +0.000 HD
ATOM     10  H   UNL     1      -7.992   4.782 124.510  0.00  0.00    +0.000 HD
ENDBRANCH   5   8
BRANCH   1  11
ATOM     11  C   UNL     1      -7.758  -0.103 123.948  0.00  0.00    +0.000 C 
BRANCH  11  12
ATOM     12  C   UNL     1      -7.697  -1.450 123.083  0.00  0.00    +0.000 C 
BRANCH  12  13
ATOM     13  C   UNL     1      -8.183  -2.818 123.682  0.00  0.00    +0.000 C 
ATOM     14  C   UNL     1      -9.593  -3.373 123.525  0.00  0.00    +0.000 C 
ENDBRANCH  12  13
BRANCH  12  15
ATOM     15  C   UNL     1      -6.204  -1.707 122.749  0.00  0.00    +0.000 C 
BRANCH  15  16
ATOM     16  C   UNL     1      -5.820  -3.031 123.370  0.00  0.00    +0.000 C 
BRANCH  16  18
ATOM     17  C   UNL     1      -4.301  -4.913 123.545  0.00  0.00    +0.000 C 
ATOM     18  C   UNL     1      -4.368  -3.392 123.441  0.00  0.00    +0.000 C 
ENDBRANCH  16  18
ENDBRANCH  15  16
ENDBRANCH  12  15
ENDBRANCH  11  12
ENDBRANCH   1  11
BRANCH   3  19
ATOM     19  C   UNL     1      -7.805   0.743 128.270  0.00  0.00    +0.000 C 
BRANCH  19  20
ATOM     20  C   UNL     1      -7.267  -0.710 128.767  0.00  0.00    +0.000 C 
BRANCH  20  21
ATOM     21  C   UNL     1      -5.948  -1.377 128.169  0.00  0.00    +0.000 C 
ATOM     22  C   UNL     1      -5.826  -2.047 126.789  0.00  0.00    +0.000 C 
ENDBRANCH  20  21
BRANCH  20  23
ATOM     23  C   UNL     1      -7.147  -0.687 130.321  0.00  0.00    +0.000 C 
BRANCH  23  24
ATOM     24  C   UNL     1      -8.500  -0.472 131.018  0.00  0.00    +0.000 C 
BRANCH  24  25
ATOM     25  C   UNL     1      -8.460   0.645 132.041  0.00  0.00    +0.000 C 
ATOM     26  C   UNL     1      -9.716   1.493 131.911  0.00  0.00    +0.000 C 
ENDBRANCH  24  25
ENDBRANCH  23  24
ENDBRANCH  20  23
ENDBRANCH  19  20
ENDBRANCH   3  19
TORSDOF 13
ENDMDL
MODEL 6
REMARK VINA RESULT:      -6.2      1.361      2.856
REMARK  Name = Hexetidine
REMARK  18 active torsions:
REMARK  status: ('A' for Active; 'I' for Inactive)
REMARK    1  A    between atoms: C_1  and  C_2
REMARK    2  A    between atoms: C_2  and  C_3
REMARK    3  A    between atoms: C_3  and  C_4
REMARK    4  A    between atoms: C_4  and  C_5
REMARK    5  A    between atoms: C_5  and  C_6
REMARK    6  A    between atoms: C_5  and  C_8
REMARK    7  A    between atoms: C_6  and  C_7
REMARK    8  A    between atoms: C_8  and  N_9
REMARK    9  A    between atoms: N_11  and  C_12
REMARK   10  A    between atoms: C_12  and  C_13
REMARK   11  A    between atoms: C_13  and  C_14
REMARK   12  A    between atoms: C_13  and  C_16
REMARK   13  A    between atoms: C_14  and  C_15
REMARK   14  A    between atoms: C_16  and  C_17
REMARK   15  A    between atoms: C_17  and  C_18
REMARK   16  A    between atoms: C_18  and  C_19
REMARK   17  A    between atoms: C_21  and  C_22
REMARK   18  A    between atoms: C_21  and  N_23
REMARK                            x       y       z     vdW  Elec       q    Type
REMARK                         _______ _______ _______ _____ _____    ______ ____
ROOT
ATOM      1  N   UNL     1      -9.780   0.456 124.179  0.00  0.00    +0.000 NA
ATOM      2  C   UNL     1      -9.766   0.356 125.653  0.00  0.00    +0.000 C 
ATOM      3  N   UNL     1      -8.521   0.889 126.144  0.00  0.00    +0.000 NA
ATOM      4  C   UNL     1      -8.209   2.160 125.542  0.00  0.00    +0.000 C 
ATOM      5  C   UNL     1      -8.261   2.449 124.010  0.00  0.00    +0.000 C 
ATOM      6  C   UNL     1      -7.114   1.922 123.104  0.00  0.00    +0.000 C 
ATOM      7  C   UNL     1      -9.621   1.847 123.667  0.00  0.00    +0.000 C 
ENDROOT
BRANCH   5   8
ATOM      8  N   UNL     1      -8.103   3.900 123.736  0.00  0.00    +0.000 NA
ATOM      9  H   UNL     1      -7.973   4.023 122.725  0.00  0.00    +0.000 HD
ATOM     10  H   UNL     1      -7.255   4.265 124.160  0.00  0.00    +0.000 HD
ENDBRANCH   5   8
BRANCH   1  11
ATOM     11  C   UNL     1      -8.955  -0.535 123.452  0.00  0.00    +0.000 C 
BRANCH  11  12
ATOM     12  C   UNL     1      -8.154  -1.733 124.151  0.00  0.00    +0.000 C 
BRANCH  12  13
ATOM     13  C   UNL     1      -6.836  -2.304 123.514  0.00  0.00    +0.000 C 
ATOM     14  C   UNL     1      -5.907  -3.295 124.205  0.00  0.00    +0.000 C 
ENDBRANCH  12  13
BRANCH  12  15
ATOM     15  C   UNL     1      -9.105  -2.958 124.182  0.00  0.00    +0.000 C 
BRANCH  15  16
ATOM     16  C   UNL     1      -9.565  -3.143 125.610  0.00  0.00    +0.000 C 
BRANCH  16  18
ATOM     17  C   UNL     1      -9.226  -4.078 127.821  0.00  0.00    +0.000 C 
ATOM     18  C   UNL     1      -8.530  -3.355 126.671  0.00  0.00    +0.000 C 
ENDBRANCH  16  18
ENDBRANCH  15  16
ENDBRANCH  12  15
ENDBRANCH  11  12
ENDBRANCH   1  11
BRANCH   3  19
ATOM     19  C   UNL     1      -8.094   0.813 127.555  0.00  0.00    +0.000 C 
BRANCH  19  20
ATOM     20  C   UNL     1      -7.221  -0.485 128.003  0.00  0.00    +0.000 C 
BRANCH  20  21
ATOM     21  C   UNL     1      -5.842  -0.865 127.298  0.00  0.00    +0.000 C 
ATOM     22  C   UNL     1      -5.221  -0.141 126.091  0.00  0.00    +0.000 C 
ENDBRANCH  20  21
BRANCH  20  23
ATOM     23  C   UNL     1      -6.986  -0.414 129.543  0.00  0.00    +0.000 C 
BRANCH  23  24
ATOM     24  C   UNL     1      -7.853  -1.416 130.322  0.00  0.00    +0.000 C 
BRANCH  24  25
ATOM     25  C   UNL     1      -7.216  -2.787 130.420  0.00  0.00    +0.000 C 
ATOM     26  C   UNL     1      -5.754  -2.636 130.813  0.00  0.00    +0.000 C 
ENDBRANCH  24  25
ENDBRANCH  23  24
ENDBRANCH  20  23
ENDBRANCH  19  20
ENDBRANCH   3  19
TORSDOF 13
ENDMDL
MODEL 7
REMARK VINA RESULT:      -6.2      1.277      2.801
REMARK  Name = Hexetidine
REMARK  18 active torsions:
REMARK  status: ('A' for Active; 'I' for Inactive)
REMARK    1  A    between atoms: C_1  and  C_2
REMARK    2  A    between atoms: C_2  and  C_3
REMARK    3  A    between atoms: C_3  and  C_4
REMARK    4  A    between atoms: C_4  and  C_5
REMARK    5  A    between atoms: C_5  and  C_6
REMARK    6  A    between atoms: C_5  and  C_8
REMARK    7  A    between atoms: C_6  and  C_7
REMARK    8  A    between atoms: C_8  and  N_9
REMARK    9  A    between atoms: N_11  and  C_12
REMARK   10  A    between atoms: C_12  and  C_13
REMARK   11  A    between atoms: C_13  and  C_14
REMARK   12  A    between atoms: C_13  and  C_16
REMARK   13  A    between atoms: C_14  and  C_15
REMARK   14  A    between atoms: C_16  and  C_17
REMARK   15  A    between atoms: C_17  and  C_18
REMARK   16  A    between atoms: C_18  and  C_19
REMARK   17  A    between atoms: C_21  and  C_22
REMARK   18  A    between atoms: C_21  and  N_23
REMARK                            x       y       z     vdW  Elec       q    Type
REMARK                         _______ _______ _______ _____ _____    ______ ____
ROOT
ATOM      1  N   UNL     1      -8.601  -0.126 123.999  0.00  0.00    +0.000 NA
ATOM      2  C   UNL     1      -9.072   0.020 125.392  0.00  0.00    +0.000 C 
ATOM      3  N   UNL     1      -8.463   1.191 125.969  0.00  0.00    +0.000 NA
ATOM      4  C   UNL     1      -8.557   2.329 125.092  0.00  0.00    +0.000 C 
ATOM      5  C   UNL     1      -8.180   2.314 123.579  0.00  0.00    +0.000 C 
ATOM      6  C   UNL     1      -6.680   2.332 123.175  0.00  0.00    +0.000 C 
ATOM      7  C   UNL     1      -8.906   1.047 123.132  0.00  0.00    +0.000 C 
ENDROOT
BRANCH   5   8
ATOM      8  N   UNL     1      -8.598   3.573 122.913  0.00  0.00    +0.000 NA
ATOM      9  H   UNL     1      -8.056   4.346 123.317  0.00  0.00    +0.000 HD
ATOM     10  H   UNL     1      -9.569   3.794 123.117  0.00  0.00    +0.000 HD
ENDBRANCH   5   8
BRANCH   1  11
ATOM     11  C   UNL     1      -7.223  -0.639 123.829  0.00  0.00    +0.000 C 
BRANCH  11  12
ATOM     12  C   UNL     1      -6.755  -2.123 124.212  0.00  0.00    +0.000 C 
BRANCH  12  13
ATOM     13  C   UNL     1      -5.517  -2.786 123.510  0.00  0.00    +0.000 C 
ATOM     14  C   UNL     1      -4.814  -4.041 124.013  0.00  0.00    +0.000 C 
ENDBRANCH  12  13
BRANCH  12  15
ATOM     15  C   UNL     1      -7.929  -3.074 123.858  0.00  0.00    +0.000 C 
BRANCH  15  16
ATOM     16  C   UNL     1      -8.271  -3.859 125.103  0.00  0.00    +0.000 C 
BRANCH  16  18
ATOM     17  C   UNL     1      -8.867  -3.834 127.453  0.00  0.00    +0.000 C 
ATOM     18  C   UNL     1      -9.226  -3.258 126.086  0.00  0.00    +0.000 C 
ENDBRANCH  16  18
ENDBRANCH  15  16
ENDBRANCH  12  15
ENDBRANCH  11  12
ENDBRANCH   1  11
BRANCH   3  19
ATOM     19  C   UNL     1      -8.584   1.562 127.392  0.00  0.00    +0.000 C 
BRANCH  19  20
ATOM     20  C   UNL     1      -7.593   0.817 128.446  0.00  0.00    +0.000 C 
BRANCH  20  21
ATOM     21  C   UNL     1      -7.942   0.697 129.998  0.00  0.00    +0.000 C 
ATOM     22  C   UNL     1      -8.120  -0.616 130.780  0.00  0.00    +0.000 C 
ENDBRANCH  20  21
BRANCH  20  23
ATOM     23  C   UNL     1      -7.273  -0.608 127.901  0.00  0.00    +0.000 C 
BRANCH  23  24
ATOM     24  C   UNL     1      -5.785  -0.794 127.563  0.00  0.00    +0.000 C 
BRANCH  24  25
ATOM     25  C   UNL     1      -5.350  -2.244 127.617  0.00  0.00    +0.000 C 
ATOM     26  C   UNL     1      -5.596  -2.792 129.015  0.00  0.00    +0.000 C 
ENDBRANCH  24  25
ENDBRANCH  23  24
ENDBRANCH  20  23
ENDBRANCH  19  20
ENDBRANCH   3  19
TORSDOF 13
ENDMDL
MODEL 8
REMARK VINA RESULT:      -6.0      2.308      4.979
REMARK  Name = Hexetidine
REMARK  18 active torsions:
REMARK  status: ('A' for Active; 'I' for Inactive)
REMARK    1  A    between atoms: C_1  and  C_2
REMARK    2  A    between atoms: C_2  and  C_3
REMARK    3  A    between atoms: C_3  and  C_4
REMARK    4  A    between atoms: C_4  and  C_5
REMARK    5  A    between atoms: C_5  and  C_6
REMARK    6  A    between atoms: C_5  and  C_8
REMARK    7  A    between atoms: C_6  and  C_7
REMARK    8  A    between atoms: C_8  and  N_9
REMARK    9  A    between atoms: N_11  and  C_12
REMARK   10  A    between atoms: C_12  and  C_13
REMARK   11  A    between atoms: C_13  and  C_14
REMARK   12  A    between atoms: C_13  and  C_16
REMARK   13  A    between atoms: C_14  and  C_15
REMARK   14  A    between atoms: C_16  and  C_17
REMARK   15  A    between atoms: C_17  and  C_18
REMARK   16  A    between atoms: C_18  and  C_19
REMARK   17  A    between atoms: C_21  and  C_22
REMARK   18  A    between atoms: C_21  and  N_23
REMARK                            x       y       z     vdW  Elec       q    Type
REMARK                         _______ _______ _______ _____ _____    ______ ____
ROOT
ATOM      1  N   UNL     1      -8.623   0.562 126.054  0.00  0.00    +0.000 NA
ATOM      2  C   UNL     1      -8.254   1.992 126.045  0.00  0.00    +0.000 C 
ATOM      3  N   UNL     1      -7.947   2.386 124.694  0.00  0.00    +0.000 NA
ATOM      4  C   UNL     1      -8.951   1.934 123.766  0.00  0.00    +0.000 C 
ATOM      5  C   UNL     1      -9.508   0.479 123.705  0.00  0.00    +0.000 C 
ATOM      6  C   UNL     1      -8.641  -0.636 123.058  0.00  0.00    +0.000 C 
ATOM      7  C   UNL     1      -9.790   0.235 125.186  0.00  0.00    +0.000 C 
ENDROOT
BRANCH   5   8
ATOM      8  N   UNL     1     -10.681   0.394 122.797  0.00  0.00    +0.000 NA
ATOM      9  H   UNL     1     -11.199  -0.463 123.021  0.00  0.00    +0.000 HD
ATOM     10  H   UNL     1     -10.390   0.284 121.829  0.00  0.00    +0.000 HD
ENDBRANCH   5   8
BRANCH   1  11
ATOM     11  C   UNL     1      -7.506  -0.400 125.922  0.00  0.00    +0.000 C 
BRANCH  11  12
ATOM     12  C   UNL     1      -7.648  -1.984 126.119  0.00  0.00    +0.000 C 
BRANCH  12  13
ATOM     13  C   UNL     1      -8.499  -2.578 127.298  0.00  0.00    +0.000 C 
ATOM     14  C   UNL     1      -7.908  -3.171 128.571  0.00  0.00    +0.000 C 
ENDBRANCH  12  13
BRANCH  12  15
ATOM     15  C   UNL     1      -6.223  -2.537 126.383  0.00  0.00    +0.000 C 
BRANCH  15  16
ATOM     16  C   UNL     1      -5.489  -2.557 125.062  0.00  0.00    +0.000 C 
BRANCH  16  18
ATOM     17  C   UNL     1      -4.534  -4.292 123.663  0.00  0.00    +0.000 C 
ATOM     18  C   UNL     1      -5.843  -3.617 124.065  0.00  0.00    +0.000 C 
ENDBRANCH  16  18
ENDBRANCH  15  16
ENDBRANCH  12  15
ENDBRANCH  11  12
ENDBRANCH   1  11
BRANCH   3  19
ATOM     19  C   UNL     1      -7.392   3.704 124.328  0.00  0.00    +0.000 C 
BRANCH  19  20
ATOM     20  C   UNL     1      -5.809   3.771 123.956  0.00  0.00    +0.000 C 
BRANCH  20  21
ATOM     21  C   UNL     1      -5.281   4.455 122.616  0.00  0.00    +0.000 C 
ATOM     22  C   UNL     1      -5.210   3.785 121.233  0.00  0.00    +0.000 C 
ENDBRANCH  20  21
BRANCH  20  23
ATOM     23  C   UNL     1      -5.044   4.394 125.163  0.00  0.00    +0.000 C 
BRANCH  23  24
ATOM     24  C   UNL     1      -4.309   3.341 126.007  0.00  0.00    +0.000 C 
BRANCH  24  25
ATOM     25  C   UNL     1      -3.157   3.927 126.799  0.00  0.00    +0.000 C 
ATOM     26  C   UNL     1      -1.897   3.121 126.525  0.00  0.00    +0.000 C 
ENDBRANCH  24  25
ENDBRANCH  23  24
ENDBRANCH  20  23
ENDBRANCH  19  20
ENDBRANCH   3  19
TORSDOF 13
ENDMDL
MODEL 9
REMARK VINA RESULT:      -6.0      2.377      6.247
REMARK  Name = Hexetidine
REMARK  18 active torsions:
REMARK  status: ('A' for Active; 'I' for Inactive)
REMARK    1  A    between atoms: C_1  and  C_2
REMARK    2  A    between atoms: C_2  and  C_3
REMARK    3  A    between atoms: C_3  and  C_4
REMARK    4  A    between atoms: C_4  and  C_5
REMARK    5  A    between atoms: C_5  and  C_6
REMARK    6  A    between atoms: C_5  and  C_8
REMARK    7  A    between atoms: C_6  and  C_7
REMARK    8  A    between atoms: C_8  and  N_9
REMARK    9  A    between atoms: N_11  and  C_12
REMARK   10  A    between atoms: C_12  and  C_13
REMARK   11  A    between atoms: C_13  and  C_14
REMARK   12  A    between atoms: C_13  and  C_16
REMARK   13  A    between atoms: C_14  and  C_15
REMARK   14  A    between atoms: C_16  and  C_17
REMARK   15  A    between atoms: C_17  and  C_18
REMARK   16  A    between atoms: C_18  and  C_19
REMARK   17  A    between atoms: C_21  and  C_22
REMARK   18  A    between atoms: C_21  and  N_23
REMARK                            x       y       z     vdW  Elec       q    Type
REMARK                         _______ _______ _______ _____ _____    ______ ____
ROOT
ATOM      1  N   UNL     1      -6.579  -1.454 125.971  0.00  0.00    +0.000 NA
ATOM      2  C   UNL     1      -6.172  -0.337 125.094  0.00  0.00    +0.000 C 
ATOM      3  N   UNL     1      -6.066   0.862 125.885  0.00  0.00    +0.000 NA
ATOM      4  C   UNL     1      -5.321   0.638 127.097  0.00  0.00    +0.000 C 
ATOM      5  C   UNL     1      -5.571  -0.543 128.084  0.00  0.00    +0.000 C 
ATOM      6  C   UNL     1      -6.794  -0.481 129.040  0.00  0.00    +0.000 C 
ATOM      7  C   UNL     1      -5.639  -1.709 127.099  0.00  0.00    +0.000 C 
ENDROOT
BRANCH   5   8
ATOM      8  N   UNL     1      -4.500  -0.619 129.109  0.00  0.00    +0.000 NA
ATOM      9  H   UNL     1      -4.289  -1.609 129.281  0.00  0.00    +0.000 HD
ATOM     10  H   UNL     1      -4.818  -0.255 130.003  0.00  0.00    +0.000 HD
ENDBRANCH   5   8
BRANCH   1  11
ATOM     11  C   UNL     1      -8.003  -1.477 126.377  0.00  0.00    +0.000 C 
BRANCH  11  12
ATOM     12  C   UNL     1      -8.962  -2.753 126.241  0.00  0.00    +0.000 C 
BRANCH  12  13
ATOM     13  C   UNL     1      -9.111  -3.782 127.419  0.00  0.00    +0.000 C 
ATOM     14  C   UNL     1      -8.342  -3.702 128.732  0.00  0.00    +0.000 C 
ENDBRANCH  12  13
BRANCH  12  15
ATOM     15  C   UNL     1      -8.409  -3.614 125.074  0.00  0.00    +0.000 C 
BRANCH  15  16
ATOM     16  C   UNL     1      -9.194  -3.256 123.832  0.00  0.00    +0.000 C 
BRANCH  16  18
ATOM     17  C   UNL     1      -9.271  -1.026 122.881  0.00  0.00    +0.000 C 
ATOM     18  C   UNL     1      -8.549  -2.370 122.812  0.00  0.00    +0.000 C 
ENDBRANCH  16  18
ENDBRANCH  15  16
ENDBRANCH  12  15
ENDBRANCH  11  12
ENDBRANCH   1  11
BRANCH   3  19
ATOM     19  C   UNL     1      -5.829   2.203 125.317  0.00  0.00    +0.000 C 
BRANCH  19  20
ATOM     20  C   UNL     1      -6.903   2.753 124.225  0.00  0.00    +0.000 C 
BRANCH  20  21
ATOM     21  C   UNL     1      -8.146   3.661 124.640  0.00  0.00    +0.000 C 
ATOM     22  C   UNL     1      -8.139   4.754 125.723  0.00  0.00    +0.000 C 
ENDBRANCH  20  21
BRANCH  20  23
ATOM     23  C   UNL     1      -6.123   3.475 123.084  0.00  0.00    +0.000 C 
BRANCH  23  24
ATOM     24  C   UNL     1      -6.829   3.371 121.724  0.00  0.00    +0.000 C 
BRANCH  24  25
ATOM     25  C   UNL     1      -6.090   4.105 120.623  0.00  0.00    +0.000 C 
ATOM     26  C   UNL     1      -7.025   4.316 119.442  0.00  0.00    +0.000 C 
ENDBRANCH  24  25
ENDBRANCH  23  24
ENDBRANCH  20  23
ENDBRANCH  19  20
ENDBRANCH   3  19
TORSDOF 13
ENDMDL
