MODEL 1
REMARK VINA RESULT:      -6.0      0.000      0.000
REMARK  Name = Hexobendine
REMARK  29 active torsions:
REMARK  status: ('A' for Active; 'I' for Inactive)
REMARK    1  A    between atoms: C_1  and  O_2
REMARK    2  A    between atoms: O_2  and  C_3
REMARK    3  A    between atoms: C_5  and  C_13
REMARK    4  A    between atoms: C_7  and  O_8
REMARK    5  A    between atoms: O_8  and  C_9
REMARK    6  A    between atoms: C_10  and  O_11
REMARK    7  A    between atoms: O_11  and  C_12
REMARK    8  A    between atoms: C_13  and  O_15
REMARK    9  A    between atoms: O_15  and  C_16
REMARK   10  A    between atoms: C_16  and  C_17
REMARK   11  A    between atoms: C_17  and  C_18
REMARK   12  A    between atoms: C_18  and  N_19
REMARK   13  A    between atoms: N_19  and  C_20
REMARK   14  A    between atoms: N_19  and  C_21
REMARK   15  A    between atoms: C_21  and  C_22
REMARK   16  A    between atoms: C_22  and  N_23
REMARK   17  A    between atoms: N_23  and  C_24
REMARK   18  A    between atoms: N_23  and  C_25
REMARK   19  A    between atoms: C_25  and  C_26
REMARK   20  A    between atoms: C_26  and  C_27
REMARK   21  A    between atoms: C_27  and  O_28
REMARK   22  A    between atoms: O_28  and  C_29
REMARK   23  A    between atoms: C_29  and  C_31
REMARK   24  A    between atoms: C_33  and  O_34
REMARK   25  A    between atoms: O_34  and  C_35
REMARK   26  A    between atoms: C_36  and  O_37
REMARK   27  A    between atoms: O_37  and  C_38
REMARK   28  A    between atoms: C_39  and  O_40
REMARK   29  A    between atoms: O_40  and  C_41
REMARK                            x       y       z     vdW  Elec       q    Type
REMARK                         _______ _______ _______ _____ _____    ______ ____
ROOT
ATOM      1  C   UNL     1      -7.927   0.341 124.258  0.00  0.00    +0.000 C 
ENDROOT
BRANCH   1   2
ATOM      2  N   UNL     1      -8.084   1.803 124.123  0.00  0.00    +0.000 NA
ATOM      3  C   UNL     1      -9.207   2.105 123.233  0.00  0.00    +0.000 C 
BRANCH   2   4
ATOM      4  C   UNL     1      -6.821   2.380 123.615  0.00  0.00    +0.000 C 
BRANCH   4   5
ATOM      5  C   UNL     1      -6.024   3.077 124.725  0.00  0.00    +0.000 C 
BRANCH   5   6
ATOM      6  C   UNL     1      -6.358   4.560 124.831  0.00  0.00    +0.000 C 
BRANCH   6   7
ATOM      7  O   UNL     1      -6.603   4.898 126.217  0.00  0.00    +0.000 OA
BRANCH   7   8
ATOM      8  C   UNL     1      -7.885   4.694 126.636  0.00  0.00    +0.000 C 
ATOM      9  O   UNL     1      -8.864   4.703 125.895  0.00  0.00    +0.000 OA
BRANCH   8  12
ATOM     10  C   UNL     1      -9.289   4.627 130.210  0.00  0.00    +0.000 A 
ATOM     11  C   UNL     1      -8.968   5.035 128.887  0.00  0.00    +0.000 A 
ATOM     12  C   UNL     1      -7.986   4.380 128.104  0.00  0.00    +0.000 A 
ATOM     13  C   UNL     1      -7.224   3.370 128.692  0.00  0.00    +0.000 A 
ATOM     14  C   UNL     1      -7.501   2.955 130.004  0.00  0.00    +0.000 A 
ATOM     15  C   UNL     1      -8.535   3.578 130.766  0.00  0.00    +0.000 A 
BRANCH  10  17
ATOM     16  C   UNL     1     -10.614   6.127 131.667  0.00  0.00    +0.000 C 
ATOM     17  O   UNL     1     -10.498   5.126 130.657  0.00  0.00    +0.000 OA
ENDBRANCH  10  17
BRANCH  15  18
ATOM     18  O   UNL     1      -8.674   2.974 131.970  0.00  0.00    +0.000 OA
ATOM     19  C   UNL     1      -9.694   2.095 132.274  0.00  0.00    +0.000 C 
ENDBRANCH  15  18
BRANCH  14  20
ATOM     20  O   UNL     1      -6.734   1.872 130.417  0.00  0.00    +0.000 OA
ATOM     21  C   UNL     1      -6.878   0.629 129.718  0.00  0.00    +0.000 C 
ENDBRANCH  14  20
ENDBRANCH   8  12
ENDBRANCH   7   8
ENDBRANCH   6   7
ENDBRANCH   5   6
ENDBRANCH   4   5
ENDBRANCH   2   4
ENDBRANCH   1   2
BRANCH   1  22
ATOM     22  C   UNL     1      -6.914  -0.262 123.256  0.00  0.00    +0.000 C 
BRANCH  22  23
ATOM     23  N   UNL     1      -7.210  -1.663 122.895  0.00  0.00    +0.000 NA
ATOM     24  C   UNL     1      -6.234  -2.556 123.518  0.00  0.00    +0.000 C 
BRANCH  23  25
ATOM     25  C   UNL     1      -8.589  -1.989 123.315  0.00  0.00    +0.000 C 
BRANCH  25  26
ATOM     26  C   UNL     1      -8.625  -3.195 124.260  0.00  0.00    +0.000 C 
BRANCH  26  27
ATOM     27  C   UNL     1      -9.320  -2.880 125.578  0.00  0.00    +0.000 C 
BRANCH  27  28
ATOM     28  O   UNL     1      -8.320  -2.654 126.599  0.00  0.00    +0.000 OA
BRANCH  28  29
ATOM     29  C   UNL     1      -8.512  -3.369 127.739  0.00  0.00    +0.000 C 
ATOM     30  O   UNL     1      -9.413  -4.189 127.919  0.00  0.00    +0.000 OA
BRANCH  29  31
ATOM     31  C   UNL     1      -7.520  -3.032 128.796  0.00  0.00    +0.000 A 
ATOM     32  C   UNL     1      -6.180  -2.778 128.469  0.00  0.00    +0.000 A 
ATOM     33  C   UNL     1      -5.199  -2.671 129.479  0.00  0.00    +0.000 A 
ATOM     34  C   UNL     1      -5.586  -2.704 130.836  0.00  0.00    +0.000 A 
ATOM     35  C   UNL     1      -6.928  -2.989 131.154  0.00  0.00    +0.000 A 
ATOM     36  C   UNL     1      -7.883  -3.143 130.139  0.00  0.00    +0.000 A 
BRANCH  35  37
ATOM     37  O   UNL     1      -7.223  -3.151 132.478  0.00  0.00    +0.000 OA
ATOM     38  C   UNL     1      -7.796  -2.074 133.187  0.00  0.00    +0.000 C 
ENDBRANCH  35  37
BRANCH  34  39
ATOM     39  O   UNL     1      -4.603  -2.433 131.753  0.00  0.00    +0.000 OA
ATOM     40  C   UNL     1      -4.346  -1.113 132.198  0.00  0.00    +0.000 C 
ENDBRANCH  34  39
BRANCH  33  41
ATOM     41  O   UNL     1      -3.904  -2.580 129.004  0.00  0.00    +0.000 OA
ATOM     42  C   UNL     1      -3.098  -3.762 129.050  0.00  0.00    +0.000 C 
ENDBRANCH  33  41
ENDBRANCH  29  31
ENDBRANCH  28  29
ENDBRANCH  27  28
ENDBRANCH  26  27
ENDBRANCH  25  26
ENDBRANCH  23  25
ENDBRANCH  22  23
ENDBRANCH   1  22
TORSDOF 21
ENDMDL
MODEL 2
REMARK VINA RESULT:      -6.0      2.314      6.106
REMARK  Name = Hexobendine
REMARK  29 active torsions:
REMARK  status: ('A' for Active; 'I' for Inactive)
REMARK    1  A    between atoms: C_1  and  O_2
REMARK    2  A    between atoms: O_2  and  C_3
REMARK    3  A    between atoms: C_5  and  C_13
REMARK    4  A    between atoms: C_7  and  O_8
REMARK    5  A    between atoms: O_8  and  C_9
REMARK    6  A    between atoms: C_10  and  O_11
REMARK    7  A    between atoms: O_11  and  C_12
REMARK    8  A    between atoms: C_13  and  O_15
REMARK    9  A    between atoms: O_15  and  C_16
REMARK   10  A    between atoms: C_16  and  C_17
REMARK   11  A    between atoms: C_17  and  C_18
REMARK   12  A    between atoms: C_18  and  N_19
REMARK   13  A    between atoms: N_19  and  C_20
REMARK   14  A    between atoms: N_19  and  C_21
REMARK   15  A    between atoms: C_21  and  C_22
REMARK   16  A    between atoms: C_22  and  N_23
REMARK   17  A    between atoms: N_23  and  C_24
REMARK   18  A    between atoms: N_23  and  C_25
REMARK   19  A    between atoms: C_25  and  C_26
REMARK   20  A    between atoms: C_26  and  C_27
REMARK   21  A    between atoms: C_27  and  O_28
REMARK   22  A    between atoms: O_28  and  C_29
REMARK   23  A    between atoms: C_29  and  C_31
REMARK   24  A    between atoms: C_33  and  O_34
REMARK   25  A    between atoms: O_34  and  C_35
REMARK   26  A    between atoms: C_36  and  O_37
REMARK   27  A    between atoms: O_37  and  C_38
REMARK   28  A    between atoms: C_39  and  O_40
REMARK   29  A    between atoms: O_40  and  C_41
REMARK                            x       y       z     vdW  Elec       q    Type
REMARK                         _______ _______ _______ _____ _____    ______ ____
ROOT
ATOM      1  C   UNL     1      -9.174  -2.153 125.847  0.00  0.00    +0.000 C 
ENDROOT
BRANCH   1   2
ATOM      2  N   UNL     1      -8.046  -2.168 126.799  0.00  0.00    +0.000 NA
ATOM      3  C   UNL     1      -6.831  -2.633 126.127  0.00  0.00    +0.000 C 
BRANCH   2   4
ATOM      4  C   UNL     1      -8.394  -3.033 127.947  0.00  0.00    +0.000 C 
BRANCH   4   5
ATOM      5  C   UNL     1      -7.186  -3.291 128.856  0.00  0.00    +0.000 C 
BRANCH   5   6
ATOM      6  C   UNL     1      -7.402  -2.759 130.268  0.00  0.00    +0.000 C 
BRANCH   6   7
ATOM      7  O   UNL     1      -8.110  -1.498 130.203  0.00  0.00    +0.000 OA
BRANCH   7   8
ATOM      8  C   UNL     1      -7.924  -0.683 131.279  0.00  0.00    +0.000 C 
ATOM      9  O   UNL     1      -7.235  -0.972 132.254  0.00  0.00    +0.000 OA
BRANCH   8  12
ATOM     10  C   UNL     1      -9.550   2.654 132.267  0.00  0.00    +0.000 A 
ATOM     11  C   UNL     1      -9.123   1.299 132.277  0.00  0.00    +0.000 A 
ATOM     12  C   UNL     1      -8.593   0.656 131.131  0.00  0.00    +0.000 A 
ATOM     13  C   UNL     1      -8.596   1.345 129.916  0.00  0.00    +0.000 A 
ATOM     14  C   UNL     1      -9.029   2.679 129.867  0.00  0.00    +0.000 A 
ATOM     15  C   UNL     1      -9.503   3.339 131.040  0.00  0.00    +0.000 A 
BRANCH  10  17
ATOM     16  C   UNL     1      -8.687   4.035 134.131  0.00  0.00    +0.000 C 
ATOM     17  O   UNL     1      -9.673   3.196 133.533  0.00  0.00    +0.000 OA
ENDBRANCH  10  17
BRANCH  15  18
ATOM     18  O   UNL     1      -9.797   4.634 130.776  0.00  0.00    +0.000 OA
ATOM     19  C   UNL     1     -11.083   5.123 130.668  0.00  0.00    +0.000 C 
ENDBRANCH  15  18
BRANCH  14  20
ATOM     20  O   UNL     1      -8.875   3.265 128.616  0.00  0.00    +0.000 OA
ATOM     21  C   UNL     1      -7.616   3.871 128.297  0.00  0.00    +0.000 C 
ENDBRANCH  14  20
ENDBRANCH   8  12
ENDBRANCH   7   8
ENDBRANCH   6   7
ENDBRANCH   5   6
ENDBRANCH   4   5
ENDBRANCH   2   4
ENDBRANCH   1   2
BRANCH   1  22
ATOM     22  C   UNL     1      -8.821  -1.502 124.487  0.00  0.00    +0.000 C 
BRANCH  22  23
ATOM     23  N   UNL     1      -9.508  -0.215 124.258  0.00  0.00    +0.000 NA
ATOM     24  C   UNL     1      -9.592   0.536 125.510  0.00  0.00    +0.000 C 
BRANCH  23  25
ATOM     25  C   UNL     1      -8.779   0.542 123.219  0.00  0.00    +0.000 C 
BRANCH  25  26
ATOM     26  C   UNL     1      -9.290   1.982 123.101  0.00  0.00    +0.000 C 
BRANCH  26  27
ATOM     27  C   UNL     1      -8.197   2.954 122.680  0.00  0.00    +0.000 C 
BRANCH  27  28
ATOM     28  O   UNL     1      -7.701   3.646 123.850  0.00  0.00    +0.000 OA
BRANCH  28  29
ATOM     29  C   UNL     1      -6.370   3.919 123.816  0.00  0.00    +0.000 C 
ATOM     30  O   UNL     1      -5.763   4.373 122.846  0.00  0.00    +0.000 OA
BRANCH  29  31
ATOM     31  C   UNL     1      -5.686   3.573 125.092  0.00  0.00    +0.000 A 
ATOM     32  C   UNL     1      -4.870   4.507 125.746  0.00  0.00    +0.000 A 
ATOM     33  C   UNL     1      -4.055   4.119 126.832  0.00  0.00    +0.000 A 
ATOM     34  C   UNL     1      -4.147   2.805 127.340  0.00  0.00    +0.000 A 
ATOM     35  C   UNL     1      -4.947   1.867 126.659  0.00  0.00    +0.000 A 
ATOM     36  C   UNL     1      -5.712   2.256 125.550  0.00  0.00    +0.000 A 
BRANCH  35  37
ATOM     37  O   UNL     1      -4.891   0.577 127.104  0.00  0.00    +0.000 OA
ATOM     38  C   UNL     1      -5.811   0.154 128.088  0.00  0.00    +0.000 C 
ENDBRANCH  35  37
BRANCH  34  39
ATOM     39  O   UNL     1      -3.448   2.551 128.492  0.00  0.00    +0.000 OA
ATOM     40  C   UNL     1      -4.005   2.800 129.770  0.00  0.00    +0.000 C 
ENDBRANCH  34  39
BRANCH  33  41
ATOM     41  O   UNL     1      -3.190   5.103 127.272  0.00  0.00    +0.000 OA
ATOM     42  C   UNL     1      -3.742   6.159 128.066  0.00  0.00    +0.000 C 
ENDBRANCH  33  41
ENDBRANCH  29  31
ENDBRANCH  28  29
ENDBRANCH  27  28
ENDBRANCH  26  27
ENDBRANCH  25  26
ENDBRANCH  23  25
ENDBRANCH  22  23
ENDBRANCH   1  22
TORSDOF 21
ENDMDL
MODEL 3
REMARK VINA RESULT:      -6.0      3.128      6.262
REMARK  Name = Hexobendine
REMARK  29 active torsions:
REMARK  status: ('A' for Active; 'I' for Inactive)
REMARK    1  A    between atoms: C_1  and  O_2
REMARK    2  A    between atoms: O_2  and  C_3
REMARK    3  A    between atoms: C_5  and  C_13
REMARK    4  A    between atoms: C_7  and  O_8
REMARK    5  A    between atoms: O_8  and  C_9
REMARK    6  A    between atoms: C_10  and  O_11
REMARK    7  A    between atoms: O_11  and  C_12
REMARK    8  A    between atoms: C_13  and  O_15
REMARK    9  A    between atoms: O_15  and  C_16
REMARK   10  A    between atoms: C_16  and  C_17
REMARK   11  A    between atoms: C_17  and  C_18
REMARK   12  A    between atoms: C_18  and  N_19
REMARK   13  A    between atoms: N_19  and  C_20
REMARK   14  A    between atoms: N_19  and  C_21
REMARK   15  A    between atoms: C_21  and  C_22
REMARK   16  A    between atoms: C_22  and  N_23
REMARK   17  A    between atoms: N_23  and  C_24
REMARK   18  A    between atoms: N_23  and  C_25
REMARK   19  A    between atoms: C_25  and  C_26
REMARK   20  A    between atoms: C_26  and  C_27
REMARK   21  A    between atoms: C_27  and  O_28
REMARK   22  A    between atoms: O_28  and  C_29
REMARK   23  A    between atoms: C_29  and  C_31
REMARK   24  A    between atoms: C_33  and  O_34
REMARK   25  A    between atoms: O_34  and  C_35
REMARK   26  A    between atoms: C_36  and  O_37
REMARK   27  A    between atoms: O_37  and  C_38
REMARK   28  A    between atoms: C_39  and  O_40
REMARK   29  A    between atoms: O_40  and  C_41
REMARK                            x       y       z     vdW  Elec       q    Type
REMARK                         _______ _______ _______ _____ _____    ______ ____
ROOT
ATOM      1  C   UNL     1      -8.642   1.706 129.418  0.00  0.00    +0.000 C 
ENDROOT
BRANCH   1   2
ATOM      2  N   UNL     1      -9.117   3.097 129.280  0.00  0.00    +0.000 NA
ATOM      3  C   UNL     1      -8.005   3.969 128.897  0.00  0.00    +0.000 C 
BRANCH   2   4
ATOM      4  C   UNL     1      -9.728   3.527 130.555  0.00  0.00    +0.000 C 
BRANCH   4   5
ATOM      5  C   UNL     1     -11.128   4.119 130.348  0.00  0.00    +0.000 C 
BRANCH   5   6
ATOM      6  C   UNL     1     -11.084   5.608 130.027  0.00  0.00    +0.000 C 
BRANCH   6   7
ATOM      7  O   UNL     1     -10.324   6.297 131.048  0.00  0.00    +0.000 OA
BRANCH   7   8
ATOM      8  C   UNL     1      -9.237   6.979 130.589  0.00  0.00    +0.000 C 
ATOM      9  O   UNL     1      -9.261   7.763 129.644  0.00  0.00    +0.000 OA
BRANCH   8  12
ATOM     10  C   UNL     1      -6.952   5.520 133.310  0.00  0.00    +0.000 A 
ATOM     11  C   UNL     1      -8.092   6.000 132.611  0.00  0.00    +0.000 A 
ATOM     12  C   UNL     1      -7.996   6.733 131.403  0.00  0.00    +0.000 A 
ATOM     13  C   UNL     1      -6.730   7.098 130.941  0.00  0.00    +0.000 A 
ATOM     14  C   UNL     1      -5.582   6.658 131.617  0.00  0.00    +0.000 A 
ATOM     15  C   UNL     1      -5.687   5.866 132.800  0.00  0.00    +0.000 A 
BRANCH  10  17
ATOM     16  C   UNL     1      -7.638   3.208 133.865  0.00  0.00    +0.000 C 
ATOM     17  O   UNL     1      -7.250   4.532 134.229  0.00  0.00    +0.000 OA
ENDBRANCH  10  17
BRANCH  15  18
ATOM     18  O   UNL     1      -4.461   5.496 133.240  0.00  0.00    +0.000 OA
ATOM     19  C   UNL     1      -3.930   5.888 134.452  0.00  0.00    +0.000 C 
ENDBRANCH  15  18
BRANCH  14  20
ATOM     20  O   UNL     1      -4.396   7.009 130.982  0.00  0.00    +0.000 OA
ATOM     21  C   UNL     1      -4.043   6.326 129.772  0.00  0.00    +0.000 C 
ENDBRANCH  14  20
ENDBRANCH   8  12
ENDBRANCH   7   8
ENDBRANCH   6   7
ENDBRANCH   5   6
ENDBRANCH   4   5
ENDBRANCH   2   4
ENDBRANCH   1   2
BRANCH   1  22
ATOM     22  C   UNL     1      -7.321   1.584 130.214  0.00  0.00    +0.000 C 
BRANCH  22  23
ATOM     23  N   UNL     1      -7.307   0.447 131.156  0.00  0.00    +0.000 NA
ATOM     24  C   UNL     1      -8.626   0.289 131.769  0.00  0.00    +0.000 C 
BRANCH  23  25
ATOM     25  C   UNL     1      -6.896  -0.774 130.431  0.00  0.00    +0.000 C 
BRANCH  25  26
ATOM     26  C   UNL     1      -8.050  -1.775 130.305  0.00  0.00    +0.000 C 
BRANCH  26  27
ATOM     27  C   UNL     1      -7.561  -3.202 130.099  0.00  0.00    +0.000 C 
BRANCH  27  28
ATOM     28  O   UNL     1      -7.149  -3.369 128.722  0.00  0.00    +0.000 OA
BRANCH  28  29
ATOM     29  C   UNL     1      -8.167  -3.320 127.823  0.00  0.00    +0.000 C 
ATOM     30  O   UNL     1      -9.218  -3.956 127.907  0.00  0.00    +0.000 OA
BRANCH  29  31
ATOM     31  C   UNL     1      -7.868  -2.425 126.673  0.00  0.00    +0.000 A 
ATOM     32  C   UNL     1      -8.863  -1.603 126.124  0.00  0.00    +0.000 A 
ATOM     33  C   UNL     1      -8.645  -0.919 124.908  0.00  0.00    +0.000 A 
ATOM     34  C   UNL     1      -7.373  -0.967 124.297  0.00  0.00    +0.000 A 
ATOM     35  C   UNL     1      -6.390  -1.817 124.839  0.00  0.00    +0.000 A 
ATOM     36  C   UNL     1      -6.639  -2.531 126.020  0.00  0.00    +0.000 A 
BRANCH  35  37
ATOM     37  O   UNL     1      -5.227  -1.938 124.133  0.00  0.00    +0.000 OA
ATOM     38  C   UNL     1      -4.970  -3.143 123.444  0.00  0.00    +0.000 C 
ENDBRANCH  35  37
BRANCH  34  39
ATOM     39  O   UNL     1      -7.191  -0.150 123.212  0.00  0.00    +0.000 OA
ATOM     40  C   UNL     1      -6.826   1.211 123.359  0.00  0.00    +0.000 C 
ENDBRANCH  34  39
BRANCH  33  41
ATOM     41  O   UNL     1      -9.764  -0.278 124.410  0.00  0.00    +0.000 OA
ATOM     42  C   UNL     1     -10.034   1.045 124.886  0.00  0.00    +0.000 C 
ENDBRANCH  33  41
ENDBRANCH  29  31
ENDBRANCH  28  29
ENDBRANCH  27  28
ENDBRANCH  26  27
ENDBRANCH  25  26
ENDBRANCH  23  25
ENDBRANCH  22  23
ENDBRANCH   1  22
TORSDOF 21
ENDMDL
MODEL 4
REMARK VINA RESULT:      -6.0      2.481      6.159
REMARK  Name = Hexobendine
REMARK  29 active torsions:
REMARK  status: ('A' for Active; 'I' for Inactive)
REMARK    1  A    between atoms: C_1  and  O_2
REMARK    2  A    between atoms: O_2  and  C_3
REMARK    3  A    between atoms: C_5  and  C_13
REMARK    4  A    between atoms: C_7  and  O_8
REMARK    5  A    between atoms: O_8  and  C_9
REMARK    6  A    between atoms: C_10  and  O_11
REMARK    7  A    between atoms: O_11  and  C_12
REMARK    8  A    between atoms: C_13  and  O_15
REMARK    9  A    between atoms: O_15  and  C_16
REMARK   10  A    between atoms: C_16  and  C_17
REMARK   11  A    between atoms: C_17  and  C_18
REMARK   12  A    between atoms: C_18  and  N_19
REMARK   13  A    between atoms: N_19  and  C_20
REMARK   14  A    between atoms: N_19  and  C_21
REMARK   15  A    between atoms: C_21  and  C_22
REMARK   16  A    between atoms: C_22  and  N_23
REMARK   17  A    between atoms: N_23  and  C_24
REMARK   18  A    between atoms: N_23  and  C_25
REMARK   19  A    between atoms: C_25  and  C_26
REMARK   20  A    between atoms: C_26  and  C_27
REMARK   21  A    between atoms: C_27  and  O_28
REMARK   22  A    between atoms: O_28  and  C_29
REMARK   23  A    between atoms: C_29  and  C_31
REMARK   24  A    between atoms: C_33  and  O_34
REMARK   25  A    between atoms: O_34  and  C_35
REMARK   26  A    between atoms: C_36  and  O_37
REMARK   27  A    between atoms: O_37  and  C_38
REMARK   28  A    between atoms: C_39  and  O_40
REMARK   29  A    between atoms: O_40  and  C_41
REMARK                            x       y       z     vdW  Elec       q    Type
REMARK                         _______ _______ _______ _____ _____    ______ ____
ROOT
ATOM      1  C   UNL     1      -7.771   4.416 126.801  0.00  0.00    +0.000 C 
ENDROOT
BRANCH   1   2
ATOM      2  N   UNL     1      -6.497   4.986 126.323  0.00  0.00    +0.000 NA
ATOM      3  C   UNL     1      -6.337   4.724 124.892  0.00  0.00    +0.000 C 
BRANCH   2   4
ATOM      4  C   UNL     1      -5.384   4.408 127.107  0.00  0.00    +0.000 C 
BRANCH   4   5
ATOM      5  C   UNL     1      -4.280   3.845 126.204  0.00  0.00    +0.000 C 
BRANCH   5   6
ATOM      6  C   UNL     1      -4.020   2.366 126.463  0.00  0.00    +0.000 C 
BRANCH   6   7
ATOM      7  O   UNL     1      -5.056   1.578 125.829  0.00  0.00    +0.000 OA
BRANCH   7   8
ATOM      8  C   UNL     1      -5.514   0.533 126.575  0.00  0.00    +0.000 C 
ATOM      9  O   UNL     1      -5.267   0.372 127.767  0.00  0.00    +0.000 OA
BRANCH   8  12
ATOM     10  C   UNL     1      -8.616  -0.677 124.660  0.00  0.00    +0.000 A 
ATOM     11  C   UNL     1      -7.766   0.009 125.568  0.00  0.00    +0.000 A 
ATOM     12  C   UNL     1      -6.427  -0.386 125.809  0.00  0.00    +0.000 A 
ATOM     13  C   UNL     1      -5.959  -1.560 125.218  0.00  0.00    +0.000 A 
ATOM     14  C   UNL     1      -6.779  -2.274 124.329  0.00  0.00    +0.000 A 
ATOM     15  C   UNL     1      -8.107  -1.835 124.044  0.00  0.00    +0.000 A 
BRANCH  10  17
ATOM     16  C   UNL     1      -9.797   1.481 124.389  0.00  0.00    +0.000 C 
ATOM     17  O   UNL     1      -9.724   0.060 124.285  0.00  0.00    +0.000 OA
ENDBRANCH  10  17
BRANCH  15  18
ATOM     18  O   UNL     1      -8.684  -2.628 123.111  0.00  0.00    +0.000 OA
ATOM     19  C   UNL     1      -9.702  -3.519 123.385  0.00  0.00    +0.000 C 
ENDBRANCH  15  18
BRANCH  14  20
ATOM     20  O   UNL     1      -6.142  -3.360 123.739  0.00  0.00    +0.000 OA
ATOM     21  C   UNL     1      -4.760  -3.587 124.044  0.00  0.00    +0.000 C 
ENDBRANCH  14  20
ENDBRANCH   8  12
ENDBRANCH   7   8
ENDBRANCH   6   7
ENDBRANCH   5   6
ENDBRANCH   4   5
ENDBRANCH   2   4
ENDBRANCH   1   2
BRANCH   1  22
ATOM     22  C   UNL     1      -7.892   4.389 128.344  0.00  0.00    +0.000 C 
BRANCH  22  23
ATOM     23  N   UNL     1      -8.835   3.368 128.841  0.00  0.00    +0.000 NA
ATOM     24  C   UNL     1      -8.384   2.035 128.443  0.00  0.00    +0.000 C 
BRANCH  23  25
ATOM     25  C   UNL     1      -8.945   3.487 130.310  0.00  0.00    +0.000 C 
BRANCH  25  26
ATOM     26  C   UNL     1     -10.311   3.012 130.818  0.00  0.00    +0.000 C 
BRANCH  26  27
ATOM     27  C   UNL     1     -10.194   2.083 132.019  0.00  0.00    +0.000 C 
BRANCH  27  28
ATOM     28  O   UNL     1      -9.520   0.869 131.616  0.00  0.00    +0.000 OA
BRANCH  28  29
ATOM     29  C   UNL     1      -8.373   0.612 132.298  0.00  0.00    +0.000 C 
ATOM     30  O   UNL     1      -7.889   1.335 133.170  0.00  0.00    +0.000 OA
BRANCH  29  31
ATOM     31  C   UNL     1      -7.717  -0.648 131.856  0.00  0.00    +0.000 A 
ATOM     32  C   UNL     1      -7.502  -0.907 130.494  0.00  0.00    +0.000 A 
ATOM     33  C   UNL     1      -7.080  -2.183 130.060  0.00  0.00    +0.000 A 
ATOM     34  C   UNL     1      -6.760  -3.175 131.012  0.00  0.00    +0.000 A 
ATOM     35  C   UNL     1      -7.008  -2.916 132.374  0.00  0.00    +0.000 A 
ATOM     36  C   UNL     1      -7.475  -1.659 132.786  0.00  0.00    +0.000 A 
BRANCH  35  37
ATOM     37  O   UNL     1      -6.817  -3.955 133.240  0.00  0.00    +0.000 OA
ATOM     38  C   UNL     1      -7.507  -3.952 134.472  0.00  0.00    +0.000 C 
ENDBRANCH  35  37
BRANCH  34  39
ATOM     39  O   UNL     1      -6.205  -4.329 130.522  0.00  0.00    +0.000 OA
ATOM     40  C   UNL     1      -4.806  -4.472 130.365  0.00  0.00    +0.000 C 
ENDBRANCH  34  39
BRANCH  33  41
ATOM     41  O   UNL     1      -7.063  -2.337 128.687  0.00  0.00    +0.000 OA
ATOM     42  C   UNL     1      -8.236  -2.876 128.068  0.00  0.00    +0.000 C 
ENDBRANCH  33  41
ENDBRANCH  29  31
ENDBRANCH  28  29
ENDBRANCH  27  28
ENDBRANCH  26  27
ENDBRANCH  25  26
ENDBRANCH  23  25
ENDBRANCH  22  23
ENDBRANCH   1  22
TORSDOF 21
ENDMDL
MODEL 5
REMARK VINA RESULT:      -5.9      3.507      8.503
REMARK  Name = Hexobendine
REMARK  29 active torsions:
REMARK  status: ('A' for Active; 'I' for Inactive)
REMARK    1  A    between atoms: C_1  and  O_2
REMARK    2  A    between atoms: O_2  and  C_3
REMARK    3  A    between atoms: C_5  and  C_13
REMARK    4  A    between atoms: C_7  and  O_8
REMARK    5  A    between atoms: O_8  and  C_9
REMARK    6  A    between atoms: C_10  and  O_11
REMARK    7  A    between atoms: O_11  and  C_12
REMARK    8  A    between atoms: C_13  and  O_15
REMARK    9  A    between atoms: O_15  and  C_16
REMARK   10  A    between atoms: C_16  and  C_17
REMARK   11  A    between atoms: C_17  and  C_18
REMARK   12  A    between atoms: C_18  and  N_19
REMARK   13  A    between atoms: N_19  and  C_20
REMARK   14  A    between atoms: N_19  and  C_21
REMARK   15  A    between atoms: C_21  and  C_22
REMARK   16  A    between atoms: C_22  and  N_23
REMARK   17  A    between atoms: N_23  and  C_24
REMARK   18  A    between atoms: N_23  and  C_25
REMARK   19  A    between atoms: C_25  and  C_26
REMARK   20  A    between atoms: C_26  and  C_27
REMARK   21  A    between atoms: C_27  and  O_28
REMARK   22  A    between atoms: O_28  and  C_29
REMARK   23  A    between atoms: C_29  and  C_31
REMARK   24  A    between atoms: C_33  and  O_34
REMARK   25  A    between atoms: O_34  and  C_35
REMARK   26  A    between atoms: C_36  and  O_37
REMARK   27  A    between atoms: O_37  and  C_38
REMARK   28  A    between atoms: C_39  and  O_40
REMARK   29  A    between atoms: O_40  and  C_41
REMARK                            x       y       z     vdW  Elec       q    Type
REMARK                         _______ _______ _______ _____ _____    ______ ____
ROOT
ATOM      1  C   UNL     1      -7.217   0.491 132.447  0.00  0.00    +0.000 C 
ENDROOT
BRANCH   1   2
ATOM      2  N   UNL     1      -7.221  -0.648 133.386  0.00  0.00    +0.000 NA
ATOM      3  C   UNL     1      -5.900  -0.793 134.001  0.00  0.00    +0.000 C 
BRANCH   2   4
ATOM      4  C   UNL     1      -7.617  -1.873 132.659  0.00  0.00    +0.000 C 
BRANCH   4   5
ATOM      5  C   UNL     1      -6.750  -2.106 131.416  0.00  0.00    +0.000 C 
BRANCH   5   6
ATOM      6  C   UNL     1      -7.583  -2.463 130.190  0.00  0.00    +0.000 C 
BRANCH   6   7
ATOM      7  O   UNL     1      -6.709  -2.629 129.048  0.00  0.00    +0.000 OA
BRANCH   7   8
ATOM      8  C   UNL     1      -6.401  -1.473 128.393  0.00  0.00    +0.000 C 
ATOM      9  O   UNL     1      -5.292  -0.946 128.406  0.00  0.00    +0.000 OA
BRANCH   8  12
ATOM     10  C   UNL     1      -8.751   1.085 126.754  0.00  0.00    +0.000 A 
ATOM     11  C   UNL     1      -7.856   0.450 127.657  0.00  0.00    +0.000 A 
ATOM     12  C   UNL     1      -7.545  -0.930 127.581  0.00  0.00    +0.000 A 
ATOM     13  C   UNL     1      -8.229  -1.720 126.656  0.00  0.00    +0.000 A 
ATOM     14  C   UNL     1      -9.134  -1.129 125.761  0.00  0.00    +0.000 A 
ATOM     15  C   UNL     1      -9.397   0.273 125.804  0.00  0.00    +0.000 A 
BRANCH  10  17
ATOM     16  C   UNL     1      -7.491   3.159 127.237  0.00  0.00    +0.000 C 
ATOM     17  O   UNL     1      -8.636   2.462 126.749  0.00  0.00    +0.000 OA
ENDBRANCH  10  17
BRANCH  15  18
ATOM     18  O   UNL     1     -10.241   0.633 124.809  0.00  0.00    +0.000 OA
ATOM     19  C   UNL     1      -9.845   1.305 123.670  0.00  0.00    +0.000 C 
ENDBRANCH  15  18
BRANCH  14  20
ATOM     20  O   UNL     1      -9.657  -2.021 124.832  0.00  0.00    +0.000 OA
ATOM     21  C   UNL     1      -8.769  -2.598 123.866  0.00  0.00    +0.000 C 
ENDBRANCH  14  20
ENDBRANCH   8  12
ENDBRANCH   7   8
ENDBRANCH   6   7
ENDBRANCH   5   6
ENDBRANCH   4   5
ENDBRANCH   2   4
ENDBRANCH   1   2
BRANCH   1  22
ATOM     22  C   UNL     1      -8.619   1.107 132.223  0.00  0.00    +0.000 C 
BRANCH  22  23
ATOM     23  N   UNL     1      -8.582   2.548 131.902  0.00  0.00    +0.000 NA
ATOM     24  C   UNL     1      -7.489   2.823 130.970  0.00  0.00    +0.000 C 
BRANCH  23  25
ATOM     25  C   UNL     1      -9.889   2.950 131.340  0.00  0.00    +0.000 C 
BRANCH  25  26
ATOM     26  C   UNL     1      -9.726   3.883 130.135  0.00  0.00    +0.000 C 
BRANCH  26  27
ATOM     27  C   UNL     1     -10.484   5.192 130.307  0.00  0.00    +0.000 C 
BRANCH  27  28
ATOM     28  O   UNL     1      -9.833   5.988 131.325  0.00  0.00    +0.000 OA
BRANCH  28  29
ATOM     29  C   UNL     1      -8.822   6.771 130.863  0.00  0.00    +0.000 C 
ATOM     30  O   UNL     1      -8.900   7.535 129.901  0.00  0.00    +0.000 OA
BRANCH  29  31
ATOM     31  C   UNL     1      -7.563   6.588 131.634  0.00  0.00    +0.000 A 
ATOM     32  C   UNL     1      -6.322   6.922 131.073  0.00  0.00    +0.000 A 
ATOM     33  C   UNL     1      -5.118   6.553 131.711  0.00  0.00    +0.000 A 
ATOM     34  C   UNL     1      -5.160   5.944 132.984  0.00  0.00    +0.000 A 
ATOM     35  C   UNL     1      -6.409   5.586 133.526  0.00  0.00    +0.000 A 
ATOM     36  C   UNL     1      -7.596   5.914 132.855  0.00  0.00    +0.000 A 
BRANCH  35  37
ATOM     37  O   UNL     1      -6.391   4.872 134.690  0.00  0.00    +0.000 OA
ATOM     38  C   UNL     1      -6.435   3.462 134.627  0.00  0.00    +0.000 C 
ENDBRANCH  35  37
BRANCH  34  39
ATOM     39  O   UNL     1      -3.953   5.763 133.609  0.00  0.00    +0.000 OA
ATOM     40  C   UNL     1      -3.138   4.637 133.342  0.00  0.00    +0.000 C 
ENDBRANCH  34  39
BRANCH  33  41
ATOM     41  O   UNL     1      -3.981   6.808 130.968  0.00  0.00    +0.000 OA
ATOM     42  C   UNL     1      -4.109   6.800 129.542  0.00  0.00    +0.000 C 
ENDBRANCH  33  41
ENDBRANCH  29  31
ENDBRANCH  28  29
ENDBRANCH  27  28
ENDBRANCH  26  27
ENDBRANCH  25  26
ENDBRANCH  23  25
ENDBRANCH  22  23
ENDBRANCH   1  22
TORSDOF 21
ENDMDL
MODEL 6
REMARK VINA RESULT:      -5.9      2.895      8.859
REMARK  Name = Hexobendine
REMARK  29 active torsions:
REMARK  status: ('A' for Active; 'I' for Inactive)
REMARK    1  A    between atoms: C_1  and  O_2
REMARK    2  A    between atoms: O_2  and  C_3
REMARK    3  A    between atoms: C_5  and  C_13
REMARK    4  A    between atoms: C_7  and  O_8
REMARK    5  A    between atoms: O_8  and  C_9
REMARK    6  A    between atoms: C_10  and  O_11
REMARK    7  A    between atoms: O_11  and  C_12
REMARK    8  A    between atoms: C_13  and  O_15
REMARK    9  A    between atoms: O_15  and  C_16
REMARK   10  A    between atoms: C_16  and  C_17
REMARK   11  A    between atoms: C_17  and  C_18
REMARK   12  A    between atoms: C_18  and  N_19
REMARK   13  A    between atoms: N_19  and  C_20
REMARK   14  A    between atoms: N_19  and  C_21
REMARK   15  A    between atoms: C_21  and  C_22
REMARK   16  A    between atoms: C_22  and  N_23
REMARK   17  A    between atoms: N_23  and  C_24
REMARK   18  A    between atoms: N_23  and  C_25
REMARK   19  A    between atoms: C_25  and  C_26
REMARK   20  A    between atoms: C_26  and  C_27
REMARK   21  A    between atoms: C_27  and  O_28
REMARK   22  A    between atoms: O_28  and  C_29
REMARK   23  A    between atoms: C_29  and  C_31
REMARK   24  A    between atoms: C_33  and  O_34
REMARK   25  A    between atoms: O_34  and  C_35
REMARK   26  A    between atoms: C_36  and  O_37
REMARK   27  A    between atoms: O_37  and  C_38
REMARK   28  A    between atoms: C_39  and  O_40
REMARK   29  A    between atoms: O_40  and  C_41
REMARK                            x       y       z     vdW  Elec       q    Type
REMARK                         _______ _______ _______ _____ _____    ______ ____
ROOT
ATOM      1  C   UNL     1      -4.426  -1.779 132.114  0.00  0.00    +0.000 C 
ENDROOT
BRANCH   1   2
ATOM      2  N   UNL     1      -4.435  -3.176 131.638  0.00  0.00    +0.000 NA
ATOM      3  C   UNL     1      -3.807  -3.259 130.319  0.00  0.00    +0.000 C 
BRANCH   2   4
ATOM      4  C   UNL     1      -5.830  -3.666 131.606  0.00  0.00    +0.000 C 
BRANCH   4   5
ATOM      5  C   UNL     1      -6.246  -4.116 130.200  0.00  0.00    +0.000 C 
BRANCH   5   6
ATOM      6  C   UNL     1      -7.533  -3.446 129.736  0.00  0.00    +0.000 C 
BRANCH   6   7
ATOM      7  O   UNL     1      -7.237  -2.537 128.649  0.00  0.00    +0.000 OA
BRANCH   7   8
ATOM      8  C   UNL     1      -8.091  -2.616 127.590  0.00  0.00    +0.000 C 
ATOM      9  O   UNL     1      -8.728  -3.622 127.289  0.00  0.00    +0.000 OA
BRANCH   8  12
ATOM     10  C   UNL     1      -8.892  -0.172 124.737  0.00  0.00    +0.000 A 
ATOM     11  C   UNL     1      -8.502  -1.332 125.459  0.00  0.00    +0.000 A 
ATOM     12  C   UNL     1      -8.241  -1.314 126.851  0.00  0.00    +0.000 A 
ATOM     13  C   UNL     1      -8.256  -0.089 127.519  0.00  0.00    +0.000 A 
ATOM     14  C   UNL     1      -8.619   1.080 126.833  0.00  0.00    +0.000 A 
ATOM     15  C   UNL     1      -8.941   1.044 125.443  0.00  0.00    +0.000 A 
BRANCH  10  17
ATOM     16  C   UNL     1      -9.267  -1.695 122.823  0.00  0.00    +0.000 C 
ATOM     17  O   UNL     1      -9.455  -0.458 123.508  0.00  0.00    +0.000 OA
ENDBRANCH  10  17
BRANCH  15  18
ATOM     18  O   UNL     1      -9.330   2.266 125.008  0.00  0.00    +0.000 OA
ATOM     19  C   UNL     1      -8.716   2.944 123.975  0.00  0.00    +0.000 C 
ENDBRANCH  15  18
BRANCH  14  20
ATOM     20  O   UNL     1      -8.692   2.203 127.650  0.00  0.00    +0.000 OA
ATOM     21  C   UNL     1      -7.486   2.933 127.913  0.00  0.00    +0.000 C 
ENDBRANCH  14  20
ENDBRANCH   8  12
ENDBRANCH   7   8
ENDBRANCH   6   7
ENDBRANCH   5   6
ENDBRANCH   4   5
ENDBRANCH   2   4
ENDBRANCH   1   2
BRANCH   1  22
ATOM     22  C   UNL     1      -5.831  -1.248 132.488  0.00  0.00    +0.000 C 
BRANCH  22  23
ATOM     23  N   UNL     1      -6.133   0.074 131.904  0.00  0.00    +0.000 NA
ATOM     24  C   UNL     1      -5.019   0.516 131.065  0.00  0.00    +0.000 C 
BRANCH  23  25
ATOM     25  C   UNL     1      -7.391  -0.014 131.134  0.00  0.00    +0.000 C 
BRANCH  25  26
ATOM     26  C   UNL     1      -8.487   0.874 131.732  0.00  0.00    +0.000 C 
BRANCH  26  27
ATOM     27  C   UNL     1      -7.950   1.829 132.789  0.00  0.00    +0.000 C 
BRANCH  27  28
ATOM     28  O   UNL     1      -9.055   2.552 133.380  0.00  0.00    +0.000 OA
BRANCH  28  29
ATOM     29  C   UNL     1      -8.776   3.846 133.690  0.00  0.00    +0.000 C 
ATOM     30  O   UNL     1      -8.432   4.251 134.801  0.00  0.00    +0.000 OA
BRANCH  29  31
ATOM     31  C   UNL     1      -8.963   4.762 132.532  0.00  0.00    +0.000 A 
ATOM     32  C   UNL     1     -10.028   4.582 131.638  0.00  0.00    +0.000 A 
ATOM     33  C   UNL     1     -10.086   5.309 130.429  0.00  0.00    +0.000 A 
ATOM     34  C   UNL     1      -9.127   6.311 130.169  0.00  0.00    +0.000 A 
ATOM     35  C   UNL     1      -8.045   6.464 131.058  0.00  0.00    +0.000 A 
ATOM     36  C   UNL     1      -7.974   5.698 132.231  0.00  0.00    +0.000 A 
BRANCH  35  37
ATOM     37  O   UNL     1      -7.069   7.346 130.689  0.00  0.00    +0.000 OA
ATOM     38  C   UNL     1      -5.718   7.000 130.910  0.00  0.00    +0.000 C 
ENDBRANCH  35  37
BRANCH  34  39
ATOM     39  O   UNL     1      -9.342   7.081 129.056  0.00  0.00    +0.000 OA
ATOM     40  C   UNL     1     -10.150   8.243 129.101  0.00  0.00    +0.000 C 
ENDBRANCH  34  39
BRANCH  33  41
ATOM     41  O   UNL     1     -11.102   4.914 129.579  0.00  0.00    +0.000 OA
ATOM     42  C   UNL     1     -12.342   5.625 129.657  0.00  0.00    +0.000 C 
ENDBRANCH  33  41
ENDBRANCH  29  31
ENDBRANCH  28  29
ENDBRANCH  27  28
ENDBRANCH  26  27
ENDBRANCH  25  26
ENDBRANCH  23  25
ENDBRANCH  22  23
ENDBRANCH   1  22
TORSDOF 21
ENDMDL
MODEL 7
REMARK VINA RESULT:      -5.9      3.635      7.316
REMARK  Name = Hexobendine
REMARK  29 active torsions:
REMARK  status: ('A' for Active; 'I' for Inactive)
REMARK    1  A    between atoms: C_1  and  O_2
REMARK    2  A    between atoms: O_2  and  C_3
REMARK    3  A    between atoms: C_5  and  C_13
REMARK    4  A    between atoms: C_7  and  O_8
REMARK    5  A    between atoms: O_8  and  C_9
REMARK    6  A    between atoms: C_10  and  O_11
REMARK    7  A    between atoms: O_11  and  C_12
REMARK    8  A    between atoms: C_13  and  O_15
REMARK    9  A    between atoms: O_15  and  C_16
REMARK   10  A    between atoms: C_16  and  C_17
REMARK   11  A    between atoms: C_17  and  C_18
REMARK   12  A    between atoms: C_18  and  N_19
REMARK   13  A    between atoms: N_19  and  C_20
REMARK   14  A    between atoms: N_19  and  C_21
REMARK   15  A    between atoms: C_21  and  C_22
REMARK   16  A    between atoms: C_22  and  N_23
REMARK   17  A    between atoms: N_23  and  C_24
REMARK   18  A    between atoms: N_23  and  C_25
REMARK   19  A    between atoms: C_25  and  C_26
REMARK   20  A    between atoms: C_26  and  C_27
REMARK   21  A    between atoms: C_27  and  O_28
REMARK   22  A    between atoms: O_28  and  C_29
REMARK   23  A    between atoms: C_29  and  C_31
REMARK   24  A    between atoms: C_33  and  O_34
REMARK   25  A    between atoms: O_34  and  C_35
REMARK   26  A    between atoms: C_36  and  O_37
REMARK   27  A    between atoms: O_37  and  C_38
REMARK   28  A    between atoms: C_39  and  O_40
REMARK   29  A    between atoms: O_40  and  C_41
REMARK                            x       y       z     vdW  Elec       q    Type
REMARK                         _______ _______ _______ _____ _____    ______ ____
ROOT
ATOM      1  C   UNL     1      -6.790   1.934 132.022  0.00  0.00    +0.000 C 
ENDROOT
BRANCH   1   2
ATOM      2  N   UNL     1      -8.117   1.426 131.624  0.00  0.00    +0.000 NA
ATOM      3  C   UNL     1      -8.077   0.949 130.241  0.00  0.00    +0.000 C 
BRANCH   2   4
ATOM      4  C   UNL     1      -9.118   2.500 131.798  0.00  0.00    +0.000 C 
BRANCH   4   5
ATOM      5  C   UNL     1      -9.395   3.241 130.484  0.00  0.00    +0.000 C 
BRANCH   5   6
ATOM      6  C   UNL     1     -10.245   4.489 130.693  0.00  0.00    +0.000 C 
BRANCH   6   7
ATOM      7  O   UNL     1      -9.407   5.664 130.584  0.00  0.00    +0.000 OA
BRANCH   7   8
ATOM      8  C   UNL     1      -8.935   6.140 131.771  0.00  0.00    +0.000 C 
ATOM      9  O   UNL     1      -9.646   6.469 132.716  0.00  0.00    +0.000 OA
BRANCH   8  12
ATOM     10  C   UNL     1      -5.303   7.052 130.917  0.00  0.00    +0.000 A 
ATOM     11  C   UNL     1      -6.693   6.780 130.809  0.00  0.00    +0.000 A 
ATOM     12  C   UNL     1      -7.432   6.158 131.846  0.00  0.00    +0.000 A 
ATOM     13  C   UNL     1      -6.748   5.691 132.969  0.00  0.00    +0.000 A 
ATOM     14  C   UNL     1      -5.370   5.926 133.099  0.00  0.00    +0.000 A 
ATOM     15  C   UNL     1      -4.643   6.609 132.078  0.00  0.00    +0.000 A 
BRANCH  10  17
ATOM     16  C   UNL     1      -3.747   7.750 129.123  0.00  0.00    +0.000 C 
ATOM     17  O   UNL     1      -4.855   7.977 129.993  0.00  0.00    +0.000 OA
ENDBRANCH  10  17
BRANCH  15  18
ATOM     18  O   UNL     1      -3.353   6.788 132.445  0.00  0.00    +0.000 OA
ATOM     19  C   UNL     1      -2.822   8.005 132.819  0.00  0.00    +0.000 C 
ENDBRANCH  15  18
BRANCH  14  20
ATOM     20  O   UNL     1      -4.848   5.499 134.314  0.00  0.00    +0.000 OA
ATOM     21  C   UNL     1      -5.280   6.158 135.512  0.00  0.00    +0.000 C 
ENDBRANCH  14  20
ENDBRANCH   8  12
ENDBRANCH   7   8
ENDBRANCH   6   7
ENDBRANCH   5   6
ENDBRANCH   4   5
ENDBRANCH   2   4
ENDBRANCH   1   2
BRANCH   1  22
ATOM     22  C   UNL     1      -5.620   1.051 131.524  0.00  0.00    +0.000 C 
BRANCH  22  23
ATOM     23  N   UNL     1      -4.604   1.800 130.758  0.00  0.00    +0.000 NA
ATOM     24  C   UNL     1      -4.306   1.101 129.508  0.00  0.00    +0.000 C 
BRANCH  23  25
ATOM     25  C   UNL     1      -5.102   3.169 130.508  0.00  0.00    +0.000 C 
BRANCH  25  26
ATOM     26  C   UNL     1      -4.444   3.797 129.275  0.00  0.00    +0.000 C 
BRANCH  26  27
ATOM     27  C   UNL     1      -5.464   4.358 128.293  0.00  0.00    +0.000 C 
BRANCH  27  28
ATOM     28  O   UNL     1      -6.692   3.601 128.400  0.00  0.00    +0.000 OA
BRANCH  28  29
ATOM     29  C   UNL     1      -7.557   3.789 127.369  0.00  0.00    +0.000 C 
ATOM     30  O   UNL     1      -8.323   4.746 127.252  0.00  0.00    +0.000 OA
BRANCH  29  31
ATOM     31  C   UNL     1      -7.516   2.677 126.382  0.00  0.00    +0.000 A 
ATOM     32  C   UNL     1      -6.905   2.848 125.131  0.00  0.00    +0.000 A 
ATOM     33  C   UNL     1      -7.051   1.876 124.117  0.00  0.00    +0.000 A 
ATOM     34  C   UNL     1      -7.720   0.666 124.400  0.00  0.00    +0.000 A 
ATOM     35  C   UNL     1      -8.355   0.515 125.648  0.00  0.00    +0.000 A 
ATOM     36  C   UNL     1      -8.244   1.512 126.628  0.00  0.00    +0.000 A 
BRANCH  35  37
ATOM     37  O   UNL     1      -9.108  -0.612 125.821  0.00  0.00    +0.000 OA
ATOM     38  C   UNL     1      -8.532  -1.725 126.471  0.00  0.00    +0.000 C 
ENDBRANCH  35  37
BRANCH  34  39
ATOM     39  O   UNL     1      -7.680  -0.292 123.420  0.00  0.00    +0.000 OA
ATOM     40  C   UNL     1      -6.590  -1.188 123.300  0.00  0.00    +0.000 C 
ENDBRANCH  34  39
BRANCH  33  41
ATOM     41  O   UNL     1      -6.531   2.252 122.893  0.00  0.00    +0.000 OA
ATOM     42  C   UNL     1      -6.649   3.629 122.520  0.00  0.00    +0.000 C 
ENDBRANCH  33  41
ENDBRANCH  29  31
ENDBRANCH  28  29
ENDBRANCH  27  28
ENDBRANCH  26  27
ENDBRANCH  25  26
ENDBRANCH  23  25
ENDBRANCH  22  23
ENDBRANCH   1  22
TORSDOF 21
ENDMDL
MODEL 8
REMARK VINA RESULT:      -5.8      2.771      8.860
REMARK  Name = Hexobendine
REMARK  29 active torsions:
REMARK  status: ('A' for Active; 'I' for Inactive)
REMARK    1  A    between atoms: C_1  and  O_2
REMARK    2  A    between atoms: O_2  and  C_3
REMARK    3  A    between atoms: C_5  and  C_13
REMARK    4  A    between atoms: C_7  and  O_8
REMARK    5  A    between atoms: O_8  and  C_9
REMARK    6  A    between atoms: C_10  and  O_11
REMARK    7  A    between atoms: O_11  and  C_12
REMARK    8  A    between atoms: C_13  and  O_15
REMARK    9  A    between atoms: O_15  and  C_16
REMARK   10  A    between atoms: C_16  and  C_17
REMARK   11  A    between atoms: C_17  and  C_18
REMARK   12  A    between atoms: C_18  and  N_19
REMARK   13  A    between atoms: N_19  and  C_20
REMARK   14  A    between atoms: N_19  and  C_21
REMARK   15  A    between atoms: C_21  and  C_22
REMARK   16  A    between atoms: C_22  and  N_23
REMARK   17  A    between atoms: N_23  and  C_24
REMARK   18  A    between atoms: N_23  and  C_25
REMARK   19  A    between atoms: C_25  and  C_26
REMARK   20  A    between atoms: C_26  and  C_27
REMARK   21  A    between atoms: C_27  and  O_28
REMARK   22  A    between atoms: O_28  and  C_29
REMARK   23  A    between atoms: C_29  and  C_31
REMARK   24  A    between atoms: C_33  and  O_34
REMARK   25  A    between atoms: O_34  and  C_35
REMARK   26  A    between atoms: C_36  and  O_37
REMARK   27  A    between atoms: O_37  and  C_38
REMARK   28  A    between atoms: C_39  and  O_40
REMARK   29  A    between atoms: O_40  and  C_41
REMARK                            x       y       z     vdW  Elec       q    Type
REMARK                         _______ _______ _______ _____ _____    ______ ____
ROOT
ATOM      1  C   UNL     1      -6.737  -2.080 132.314  0.00  0.00    +0.000 C 
ENDROOT
BRANCH   1   2
ATOM      2  N   UNL     1      -6.567  -2.355 130.873  0.00  0.00    +0.000 NA
ATOM      3  C   UNL     1      -7.787  -2.955 130.331  0.00  0.00    +0.000 C 
BRANCH   2   4
ATOM      4  C   UNL     1      -5.398  -3.240 130.685  0.00  0.00    +0.000 C 
BRANCH   4   5
ATOM      5  C   UNL     1      -4.893  -3.221 129.236  0.00  0.00    +0.000 C 
BRANCH   5   6
ATOM      6  C   UNL     1      -4.590  -1.809 128.749  0.00  0.00    +0.000 C 
BRANCH   6   7
ATOM      7  O   UNL     1      -5.558  -1.431 127.741  0.00  0.00    +0.000 OA
BRANCH   7   8
ATOM      8  C   UNL     1      -6.275  -0.309 128.032  0.00  0.00    +0.000 C 
ATOM      9  O   UNL     1      -5.963   0.507 128.894  0.00  0.00    +0.000 OA
BRANCH   8  12
ATOM     10  C   UNL     1      -8.854   1.463 125.804  0.00  0.00    +0.000 A 
ATOM     11  C   UNL     1      -7.899   1.193 126.821  0.00  0.00    +0.000 A 
ATOM     12  C   UNL     1      -7.468  -0.120 127.135  0.00  0.00    +0.000 A 
ATOM     13  C   UNL     1      -8.087  -1.198 126.499  0.00  0.00    +0.000 A 
ATOM     14  C   UNL     1      -9.048  -0.967 125.502  0.00  0.00    +0.000 A 
ATOM     15  C   UNL     1      -9.432   0.361 125.148  0.00  0.00    +0.000 A 
BRANCH  10  17
ATOM     16  C   UNL     1      -8.140   3.265 124.265  0.00  0.00    +0.000 C 
ATOM     17  O   UNL     1      -8.860   2.784 125.399  0.00  0.00    +0.000 OA
ENDBRANCH  10  17
BRANCH  15  18
ATOM     18  O   UNL     1     -10.313   0.347 124.120  0.00  0.00    +0.000 OA
ATOM     19  C   UNL     1      -9.953   0.519 122.799  0.00  0.00    +0.000 C 
ENDBRANCH  15  18
BRANCH  14  20
ATOM     20  O   UNL     1      -9.497  -2.130 124.887  0.00  0.00    +0.000 OA
ATOM     21  C   UNL     1      -8.527  -3.103 124.478  0.00  0.00    +0.000 C 
ENDBRANCH  14  20
ENDBRANCH   8  12
ENDBRANCH   7   8
ENDBRANCH   6   7
ENDBRANCH   5   6
ENDBRANCH   4   5
ENDBRANCH   2   4
ENDBRANCH   1   2
BRANCH   1  22
ATOM     22  C   UNL     1      -7.786  -0.982 132.610  0.00  0.00    +0.000 C 
BRANCH  22  23
ATOM     23  N   UNL     1      -7.381   0.358 132.140  0.00  0.00    +0.000 NA
ATOM     24  C   UNL     1      -8.377   0.881 131.205  0.00  0.00    +0.000 C 
BRANCH  23  25
ATOM     25  C   UNL     1      -7.212   1.248 133.307  0.00  0.00    +0.000 C 
BRANCH  25  26
ATOM     26  C   UNL     1      -7.511   2.710 132.955  0.00  0.00    +0.000 C 
BRANCH  26  27
ATOM     27  C   UNL     1      -8.789   3.216 133.609  0.00  0.00    +0.000 C 
BRANCH  27  28
ATOM     28  O   UNL     1      -8.580   4.569 134.075  0.00  0.00    +0.000 OA
BRANCH  28  29
ATOM     29  C   UNL     1      -8.230   5.449 133.100  0.00  0.00    +0.000 C 
ATOM     30  O   UNL     1      -7.212   6.143 133.103  0.00  0.00    +0.000 OA
BRANCH  29  31
ATOM     31  C   UNL     1      -9.240   5.523 132.010  0.00  0.00    +0.000 A 
ATOM     32  C   UNL     1      -8.867   5.338 130.671  0.00  0.00    +0.000 A 
ATOM     33  C   UNL     1      -9.773   5.618 129.624  0.00  0.00    +0.000 A 
ATOM     34  C   UNL     1     -11.104   5.976 129.928  0.00  0.00    +0.000 A 
ATOM     35  C   UNL     1     -11.461   6.188 131.274  0.00  0.00    +0.000 A 
ATOM     36  C   UNL     1     -10.534   5.955 132.301  0.00  0.00    +0.000 A 
BRANCH  35  37
ATOM     37  O   UNL     1     -12.717   6.671 131.507  0.00  0.00    +0.000 OA
ATOM     38  C   UNL     1     -12.907   8.067 131.590  0.00  0.00    +0.000 C 
ENDBRANCH  35  37
BRANCH  34  39
ATOM     39  O   UNL     1     -11.963   6.073 128.865  0.00  0.00    +0.000 OA
ATOM     40  C   UNL     1     -12.062   7.257 128.095  0.00  0.00    +0.000 C 
ENDBRANCH  34  39
BRANCH  33  41
ATOM     41  O   UNL     1      -9.219   5.543 128.360  0.00  0.00    +0.000 OA
ATOM     42  C   UNL     1      -8.118   4.647 128.174  0.00  0.00    +0.000 C 
ENDBRANCH  33  41
ENDBRANCH  29  31
ENDBRANCH  28  29
ENDBRANCH  27  28
ENDBRANCH  26  27
ENDBRANCH  25  26
ENDBRANCH  23  25
ENDBRANCH  22  23
ENDBRANCH   1  22
TORSDOF 21
ENDMDL
MODEL 9
REMARK VINA RESULT:      -5.8      3.109      6.932
REMARK  Name = Hexobendine
REMARK  29 active torsions:
REMARK  status: ('A' for Active; 'I' for Inactive)
REMARK    1  A    between atoms: C_1  and  O_2
REMARK    2  A    between atoms: O_2  and  C_3
REMARK    3  A    between atoms: C_5  and  C_13
REMARK    4  A    between atoms: C_7  and  O_8
REMARK    5  A    between atoms: O_8  and  C_9
REMARK    6  A    between atoms: C_10  and  O_11
REMARK    7  A    between atoms: O_11  and  C_12
REMARK    8  A    between atoms: C_13  and  O_15
REMARK    9  A    between atoms: O_15  and  C_16
REMARK   10  A    between atoms: C_16  and  C_17
REMARK   11  A    between atoms: C_17  and  C_18
REMARK   12  A    between atoms: C_18  and  N_19
REMARK   13  A    between atoms: N_19  and  C_20
REMARK   14  A    between atoms: N_19  and  C_21
REMARK   15  A    between atoms: C_21  and  C_22
REMARK   16  A    between atoms: C_22  and  N_23
REMARK   17  A    between atoms: N_23  and  C_24
REMARK   18  A    between atoms: N_23  and  C_25
REMARK   19  A    between atoms: C_25  and  C_26
REMARK   20  A    between atoms: C_26  and  C_27
REMARK   21  A    between atoms: C_27  and  O_28
REMARK   22  A    between atoms: O_28  and  C_29
REMARK   23  A    between atoms: C_29  and  C_31
REMARK   24  A    between atoms: C_33  and  O_34
REMARK   25  A    between atoms: O_34  and  C_35
REMARK   26  A    between atoms: C_36  and  O_37
REMARK   27  A    between atoms: O_37  and  C_38
REMARK   28  A    between atoms: C_39  and  O_40
REMARK   29  A    between atoms: O_40  and  C_41
REMARK                            x       y       z     vdW  Elec       q    Type
REMARK                         _______ _______ _______ _____ _____    ______ ____
ROOT
ATOM      1  C   UNL     1      -6.374  -0.265 133.441  0.00  0.00    +0.000 C 
ENDROOT
BRANCH   1   2
ATOM      2  N   UNL     1      -7.592   0.542 133.234  0.00  0.00    +0.000 NA
ATOM      3  C   UNL     1      -8.339   0.034 132.081  0.00  0.00    +0.000 C 
BRANCH   2   4
ATOM      4  C   UNL     1      -7.209   1.958 133.048  0.00  0.00    +0.000 C 
BRANCH   4   5
ATOM      5  C   UNL     1      -8.364   2.912 133.376  0.00  0.00    +0.000 C 
BRANCH   5   6
ATOM      6  C   UNL     1      -9.115   3.361 132.129  0.00  0.00    +0.000 C 
BRANCH   6   7
ATOM      7  O   UNL     1      -8.192   4.009 131.221  0.00  0.00    +0.000 OA
BRANCH   7   8
ATOM      8  C   UNL     1      -8.258   3.571 129.932  0.00  0.00    +0.000 C 
ATOM      9  O   UNL     1      -9.305   3.383 129.317  0.00  0.00    +0.000 OA
BRANCH   8  12
ATOM     10  C   UNL     1      -4.976   4.496 128.163  0.00  0.00    +0.000 A 
ATOM     11  C   UNL     1      -6.333   4.488 128.585  0.00  0.00    +0.000 A 
ATOM     12  C   UNL     1      -6.906   3.402 129.293  0.00  0.00    +0.000 A 
ATOM     13  C   UNL     1      -6.142   2.250 129.485  0.00  0.00    +0.000 A 
ATOM     14  C   UNL     1      -4.803   2.217 129.064  0.00  0.00    +0.000 A 
ATOM     15  C   UNL     1      -4.215   3.339 128.406  0.00  0.00    +0.000 A 
BRANCH  10  17
ATOM     16  C   UNL     1      -3.769   6.581 128.732  0.00  0.00    +0.000 C 
ATOM     17  O   UNL     1      -4.514   5.757 127.837  0.00  0.00    +0.000 OA
ENDBRANCH  10  17
BRANCH  15  18
ATOM     18  O   UNL     1      -2.903   3.114 128.157  0.00  0.00    +0.000 OA
ATOM     19  C   UNL     1      -2.330   3.223 126.906  0.00  0.00    +0.000 C 
ENDBRANCH  15  18
BRANCH  14  20
ATOM     20  O   UNL     1      -4.141   1.047 129.416  0.00  0.00    +0.000 OA
ATOM     21  C   UNL     1      -4.167   0.636 130.789  0.00  0.00    +0.000 C 
ENDBRANCH  14  20
ENDBRANCH   8  12
ENDBRANCH   7   8
ENDBRANCH   6   7
ENDBRANCH   5   6
ENDBRANCH   4   5
ENDBRANCH   2   4
ENDBRANCH   1   2
BRANCH   1  22
ATOM     22  C   UNL     1      -6.606  -1.784 133.260  0.00  0.00    +0.000 C 
BRANCH  22  23
ATOM     23  N   UNL     1      -5.690  -2.406 132.283  0.00  0.00    +0.000 NA
ATOM     24  C   UNL     1      -4.432  -2.765 132.936  0.00  0.00    +0.000 C 
BRANCH  23  25
ATOM     25  C   UNL     1      -6.349  -3.587 131.688  0.00  0.00    +0.000 C 
BRANCH  25  26
ATOM     26  C   UNL     1      -6.355  -3.524 130.156  0.00  0.00    +0.000 C 
BRANCH  26  27
ATOM     27  C   UNL     1      -7.339  -2.494 129.620  0.00  0.00    +0.000 C 
BRANCH  27  28
ATOM     28  O   UNL     1      -6.605  -1.414 128.997  0.00  0.00    +0.000 OA
BRANCH  28  29
ATOM     29  C   UNL     1      -6.242  -1.653 127.710  0.00  0.00    +0.000 C 
ATOM     30  O   UNL     1      -5.228  -2.258 127.360  0.00  0.00    +0.000 OA
BRANCH  29  31
ATOM     31  C   UNL     1      -7.198  -1.069 126.731  0.00  0.00    +0.000 A 
ATOM     32  C   UNL     1      -7.540   0.290 126.783  0.00  0.00    +0.000 A 
ATOM     33  C   UNL     1      -8.600   0.798 126.001  0.00  0.00    +0.000 A 
ATOM     34  C   UNL     1      -9.247  -0.042 125.069  0.00  0.00    +0.000 A 
ATOM     35  C   UNL     1      -8.917  -1.411 125.044  0.00  0.00    +0.000 A 
ATOM     36  C   UNL     1      -7.895  -1.912 125.865  0.00  0.00    +0.000 A 
BRANCH  35  37
ATOM     37  O   UNL     1      -9.668  -2.209 124.229  0.00  0.00    +0.000 OA
ATOM     38  C   UNL     1      -9.150  -3.460 123.831  0.00  0.00    +0.000 C 
ENDBRANCH  35  37
BRANCH  34  39
ATOM     39  O   UNL     1     -10.151   0.561 124.235  0.00  0.00    +0.000 OA
ATOM     40  C   UNL     1      -9.758   1.129 122.998  0.00  0.00    +0.000 C 
ENDBRANCH  34  39
BRANCH  33  41
ATOM     41  O   UNL     1      -8.925   2.114 126.273  0.00  0.00    +0.000 OA
ATOM     42  C   UNL     1      -8.078   3.130 125.726  0.00  0.00    +0.000 C 
ENDBRANCH  33  41
ENDBRANCH  29  31
ENDBRANCH  28  29
ENDBRANCH  27  28
ENDBRANCH  26  27
ENDBRANCH  25  26
ENDBRANCH  23  25
ENDBRANCH  22  23
ENDBRANCH   1  22
TORSDOF 21
ENDMDL
