MODEL 1
REMARK VINA RESULT:      -7.8      0.000      0.000
REMARK  Name = Hexocyclium
REMARK  7 active torsions:
REMARK  status: ('A' for Active; 'I' for Inactive)
REMARK    1  A    between atoms: C_1  and  N_2
REMARK    2  A    between atoms: N_2  and  C_3
REMARK    3  A    between atoms: N_6  and  C_7
REMARK    4  A    between atoms: C_7  and  C_8
REMARK    5  A    between atoms: C_8  and  O_9
REMARK    6  A    between atoms: C_8  and  C_10
REMARK    7  A    between atoms: C_8  and  C_16
REMARK                            x       y       z     vdW  Elec       q    Type
REMARK                         _______ _______ _______ _____ _____    ______ ____
ROOT
ATOM      1  C   UNL     1      -8.649  -1.575 125.298  0.00  0.00    +0.000 C 
ENDROOT
BRANCH   1   2
ATOM      2  C   UNL     1      -7.357  -1.748 124.440  0.00  0.00    +0.000 C 
ATOM      3  C   UNL     1      -6.247  -2.488 125.224  0.00  0.00    +0.000 C 
ATOM      4  C   UNL     1      -4.931  -2.509 124.480  0.00  0.00    +0.000 C 
ATOM      5  C   UNL     1      -5.157  -2.974 123.051  0.00  0.00    +0.000 C 
ATOM      6  C   UNL     1      -6.094  -2.042 122.283  0.00  0.00    +0.000 C 
ATOM      7  C   UNL     1      -7.482  -1.950 122.912  0.00  0.00    +0.000 C 
ENDBRANCH   1   2
BRANCH   1   8
ATOM      8  C   UNL     1      -8.424  -2.283 126.644  0.00  0.00    +0.000 A 
ATOM      9  C   UNL     1      -8.901  -3.555 126.930  0.00  0.00    +0.000 A 
ATOM     10  C   UNL     1      -8.881  -4.038 128.250  0.00  0.00    +0.000 A 
ATOM     11  C   UNL     1      -8.287  -3.299 129.278  0.00  0.00    +0.000 A 
ATOM     12  C   UNL     1      -7.747  -2.076 129.012  0.00  0.00    +0.000 A 
ATOM     13  C   UNL     1      -7.833  -1.583 127.721  0.00  0.00    +0.000 A 
ENDBRANCH   1   8
BRANCH   1  14
ATOM     14  O   UNL     1      -9.749  -2.185 124.612  0.00  0.00    +0.000 OA
ATOM     15  H   UNL     1     -10.542  -1.670 124.846  0.00  0.00    +0.000 HD
ENDBRANCH   1  14
BRANCH   1  16
ATOM     16  C   UNL     1      -9.040  -0.030 125.493  0.00  0.00    +0.000 C 
BRANCH  16  22
ATOM     17  C   UNL     1      -7.423   4.640 125.505  0.00  0.00    +0.000 C 
ATOM     18  N   UNL     1      -6.858   3.657 124.496  0.00  0.00    +0.000 N 
ATOM     19  C   UNL     1      -5.768   4.305 123.671  0.00  0.00    +0.000 C 
ATOM     20  C   UNL     1      -7.962   3.086 123.560  0.00  0.00    +0.000 C 
ATOM     21  C   UNL     1      -8.915   2.098 124.284  0.00  0.00    +0.000 C 
ATOM     22  N   UNL     1      -8.135   0.998 124.896  0.00  0.00    +0.000 NA
ATOM     23  C   UNL     1      -7.211   1.620 125.844  0.00  0.00    +0.000 C 
ATOM     24  C   UNL     1      -6.191   2.536 125.222  0.00  0.00    +0.000 C 
ENDBRANCH  16  22
ENDBRANCH   1  16
TORSDOF 5
ENDMDL
MODEL 2
REMARK VINA RESULT:      -7.4      7.516      9.643
REMARK  Name = Hexocyclium
REMARK  7 active torsions:
REMARK  status: ('A' for Active; 'I' for Inactive)
REMARK    1  A    between atoms: C_1  and  N_2
REMARK    2  A    between atoms: N_2  and  C_3
REMARK    3  A    between atoms: N_6  and  C_7
REMARK    4  A    between atoms: C_7  and  C_8
REMARK    5  A    between atoms: C_8  and  O_9
REMARK    6  A    between atoms: C_8  and  C_10
REMARK    7  A    between atoms: C_8  and  C_16
REMARK                            x       y       z     vdW  Elec       q    Type
REMARK                         _______ _______ _______ _____ _____    ______ ____
ROOT
ATOM      1  C   UNL     1      -8.891   5.927 130.506  0.00  0.00    +0.000 C 
ENDROOT
BRANCH   1   2
ATOM      2  C   UNL     1      -9.234   4.740 131.460  0.00  0.00    +0.000 C 
ATOM      3  C   UNL     1      -9.447   3.423 130.677  0.00  0.00    +0.000 C 
ATOM      4  C   UNL     1      -9.954   2.304 131.556  0.00  0.00    +0.000 C 
ATOM      5  C   UNL     1      -9.094   2.202 132.806  0.00  0.00    +0.000 C 
ATOM      6  C   UNL     1      -9.134   3.484 133.638  0.00  0.00    +0.000 C 
ATOM      7  C   UNL     1      -8.614   4.700 132.876  0.00  0.00    +0.000 C 
ENDBRANCH   1   2
BRANCH   1   8
ATOM      8  C   UNL     1     -10.136   6.824 130.396  0.00  0.00    +0.000 A 
ATOM      9  C   UNL     1     -11.246   6.697 131.220  0.00  0.00    +0.000 A 
ATOM     10  C   UNL     1     -12.440   7.371 130.907  0.00  0.00    +0.000 A 
ATOM     11  C   UNL     1     -12.503   8.260 129.829  0.00  0.00    +0.000 A 
ATOM     12  C   UNL     1     -11.405   8.458 129.046  0.00  0.00    +0.000 A 
ATOM     13  C   UNL     1     -10.257   7.738 129.324  0.00  0.00    +0.000 A 
ENDBRANCH   1   8
BRANCH   1  14
ATOM     14  O   UNL     1      -8.560   5.405 129.214  0.00  0.00    +0.000 OA
ATOM     15  H   UNL     1      -8.414   4.449 129.331  0.00  0.00    +0.000 HD
ENDBRANCH   1  14
BRANCH   1  16
ATOM     16  C   UNL     1      -7.604   6.748 131.004  0.00  0.00    +0.000 C 
BRANCH  16  22
ATOM     17  C   UNL     1      -2.736   5.924 131.220  0.00  0.00    +0.000 C 
ATOM     18  N   UNL     1      -3.409   6.071 129.867  0.00  0.00    +0.000 N 
ATOM     19  C   UNL     1      -2.417   5.844 128.749  0.00  0.00    +0.000 C 
ATOM     20  C   UNL     1      -4.083   7.464 129.701  0.00  0.00    +0.000 C 
ATOM     21  C   UNL     1      -5.357   7.626 130.573  0.00  0.00    +0.000 C 
ATOM     22  N   UNL     1      -6.321   6.544 130.266  0.00  0.00    +0.000 NA
ATOM     23  C   UNL     1      -5.641   5.283 130.565  0.00  0.00    +0.000 C 
ATOM     24  C   UNL     1      -4.435   4.999 129.710  0.00  0.00    +0.000 C 
ENDBRANCH  16  22
ENDBRANCH   1  16
TORSDOF 5
ENDMDL
MODEL 3
REMARK VINA RESULT:      -7.3      7.594      9.885
REMARK  Name = Hexocyclium
REMARK  7 active torsions:
REMARK  status: ('A' for Active; 'I' for Inactive)
REMARK    1  A    between atoms: C_1  and  N_2
REMARK    2  A    between atoms: N_2  and  C_3
REMARK    3  A    between atoms: N_6  and  C_7
REMARK    4  A    between atoms: C_7  and  C_8
REMARK    5  A    between atoms: C_8  and  O_9
REMARK    6  A    between atoms: C_8  and  C_10
REMARK    7  A    between atoms: C_8  and  C_16
REMARK                            x       y       z     vdW  Elec       q    Type
REMARK                         _______ _______ _______ _____ _____    ______ ____
ROOT
ATOM      1  C   UNL     1      -9.319   6.068 131.844  0.00  0.00    +0.000 C 
ENDROOT
BRANCH   1   2
ATOM      2  C   UNL     1     -10.441   6.601 130.900  0.00  0.00    +0.000 C 
ATOM      3  C   UNL     1     -11.774   6.810 131.658  0.00  0.00    +0.000 C 
ATOM      4  C   UNL     1     -12.918   7.152 130.732  0.00  0.00    +0.000 C 
ATOM      5  C   UNL     1     -12.503   8.277 129.798  0.00  0.00    +0.000 C 
ATOM      6  C   UNL     1     -11.313   7.887 128.921  0.00  0.00    +0.000 C 
ATOM      7  C   UNL     1     -10.067   7.543 129.732  0.00  0.00    +0.000 C 
ENDBRANCH   1   2
BRANCH   1   8
ATOM      8  C   UNL     1      -9.303   4.533 131.744  0.00  0.00    +0.000 A 
ATOM      9  C   UNL     1      -9.501   3.841 130.557  0.00  0.00    +0.000 A 
ATOM     10  C   UNL     1      -9.724   2.454 130.575  0.00  0.00    +0.000 A 
ATOM     11  C   UNL     1      -9.647   1.728 131.769  0.00  0.00    +0.000 A 
ATOM     12  C   UNL     1      -9.383   2.373 132.940  0.00  0.00    +0.000 A 
ATOM     13  C   UNL     1      -9.232   3.749 132.917  0.00  0.00    +0.000 A 
ENDBRANCH   1   8
BRANCH   1  14
ATOM     14  O   UNL     1      -9.620   6.458 133.190  0.00  0.00    +0.000 OA
ATOM     15  H   UNL     1      -9.811   7.412 133.166  0.00  0.00    +0.000 HD
ENDBRANCH   1  14
BRANCH   1  16
ATOM     16  C   UNL     1      -7.887   6.706 131.500  0.00  0.00    +0.000 C 
BRANCH  16  22
ATOM     17  C   UNL     1      -3.110   6.362 132.721  0.00  0.00    +0.000 C 
ATOM     18  N   UNL     1      -3.859   5.118 132.278  0.00  0.00    +0.000 N 
ATOM     19  C   UNL     1      -2.971   3.897 132.373  0.00  0.00    +0.000 C 
ATOM     20  C   UNL     1      -4.414   5.257 130.831  0.00  0.00    +0.000 C 
ATOM     21  C   UNL     1      -5.604   6.248 130.734  0.00  0.00    +0.000 C 
ATOM     22  N   UNL     1      -6.681   5.838 131.664  0.00  0.00    +0.000 NA
ATOM     23  C   UNL     1      -6.100   5.852 133.007  0.00  0.00    +0.000 C 
ATOM     24  C   UNL     1      -4.987   4.862 133.221  0.00  0.00    +0.000 C 
ENDBRANCH  16  22
ENDBRANCH   1  16
TORSDOF 5
ENDMDL
MODEL 4
REMARK VINA RESULT:      -7.2      6.177      9.156
REMARK  Name = Hexocyclium
REMARK  7 active torsions:
REMARK  status: ('A' for Active; 'I' for Inactive)
REMARK    1  A    between atoms: C_1  and  N_2
REMARK    2  A    between atoms: N_2  and  C_3
REMARK    3  A    between atoms: N_6  and  C_7
REMARK    4  A    between atoms: C_7  and  C_8
REMARK    5  A    between atoms: C_8  and  O_9
REMARK    6  A    between atoms: C_8  and  C_10
REMARK    7  A    between atoms: C_8  and  C_16
REMARK                            x       y       z     vdW  Elec       q    Type
REMARK                         _______ _______ _______ _____ _____    ______ ____
ROOT
ATOM      1  C   UNL     1      -8.985   5.989 130.587  0.00  0.00    +0.000 C 
ENDROOT
BRANCH   1   2
ATOM      2  C   UNL     1     -10.303   6.822 130.497  0.00  0.00    +0.000 C 
ATOM      3  C   UNL     1     -10.461   7.490 129.110  0.00  0.00    +0.000 C 
ATOM      4  C   UNL     1     -11.633   8.442 129.059  0.00  0.00    +0.000 C 
ATOM      5  C   UNL     1     -12.873   7.761 129.613  0.00  0.00    +0.000 C 
ATOM      6  C   UNL     1     -12.696   7.341 131.073  0.00  0.00    +0.000 C 
ATOM      7  C   UNL     1     -11.556   6.346 131.268  0.00  0.00    +0.000 C 
ENDBRANCH   1   2
BRANCH   1   8
ATOM      8  C   UNL     1      -8.911   5.367 131.991  0.00  0.00    +0.000 A 
ATOM      9  C   UNL     1      -8.369   6.018 133.091  0.00  0.00    +0.000 A 
ATOM     10  C   UNL     1      -8.103   5.308 134.274  0.00  0.00    +0.000 A 
ATOM     11  C   UNL     1      -8.474   3.966 134.406  0.00  0.00    +0.000 A 
ATOM     12  C   UNL     1      -9.074   3.320 133.367  0.00  0.00    +0.000 A 
ATOM     13  C   UNL     1      -9.269   4.013 132.184  0.00  0.00    +0.000 A 
ENDBRANCH   1   8
BRANCH   1  14
ATOM     14  O   UNL     1      -7.868   6.865 130.390  0.00  0.00    +0.000 OA
ATOM     15  H   UNL     1      -7.771   7.380 131.212  0.00  0.00    +0.000 HD
ENDBRANCH   1  14
BRANCH   1  16
ATOM     16  C   UNL     1      -8.894   4.877 129.434  0.00  0.00    +0.000 C 
BRANCH  16  22
ATOM     17  C   UNL     1      -5.695   2.017 126.982  0.00  0.00    +0.000 C 
ATOM     18  N   UNL     1      -5.414   3.502 127.122  0.00  0.00    +0.000 N 
ATOM     19  C   UNL     1      -4.160   3.882 126.366  0.00  0.00    +0.000 C 
ATOM     20  C   UNL     1      -5.284   3.932 128.611  0.00  0.00    +0.000 C 
ATOM     21  C   UNL     1      -6.640   3.917 129.365  0.00  0.00    +0.000 C 
ATOM     22  N   UNL     1      -7.619   4.778 128.661  0.00  0.00    +0.000 NA
ATOM     23  C   UNL     1      -7.765   4.227 127.313  0.00  0.00    +0.000 C 
ATOM     24  C   UNL     1      -6.516   4.273 126.475  0.00  0.00    +0.000 C 
ENDBRANCH  16  22
ENDBRANCH   1  16
TORSDOF 5
ENDMDL
MODEL 5
REMARK VINA RESULT:      -7.2      2.329      3.243
REMARK  Name = Hexocyclium
REMARK  7 active torsions:
REMARK  status: ('A' for Active; 'I' for Inactive)
REMARK    1  A    between atoms: C_1  and  N_2
REMARK    2  A    between atoms: N_2  and  C_3
REMARK    3  A    between atoms: N_6  and  C_7
REMARK    4  A    between atoms: C_7  and  C_8
REMARK    5  A    between atoms: C_8  and  O_9
REMARK    6  A    between atoms: C_8  and  C_10
REMARK    7  A    between atoms: C_8  and  C_16
REMARK                            x       y       z     vdW  Elec       q    Type
REMARK                         _______ _______ _______ _____ _____    ______ ____
ROOT
ATOM      1  C   UNL     1      -6.968  -0.858 126.429  0.00  0.00    +0.000 C 
ENDROOT
BRANCH   1   2
ATOM      2  C   UNL     1      -6.694  -1.609 125.088  0.00  0.00    +0.000 C 
ATOM      3  C   UNL     1      -7.364  -0.896 123.889  0.00  0.00    +0.000 C 
ATOM      4  C   UNL     1      -7.265  -1.698 122.612  0.00  0.00    +0.000 C 
ATOM      5  C   UNL     1      -5.829  -2.148 122.399  0.00  0.00    +0.000 C 
ATOM      6  C   UNL     1      -5.331  -3.043 123.534  0.00  0.00    +0.000 C 
ATOM      7  C   UNL     1      -5.348  -2.343 124.891  0.00  0.00    +0.000 C 
ENDBRANCH   1   2
BRANCH   1   8
ATOM      8  C   UNL     1      -7.721  -1.818 127.366  0.00  0.00    +0.000 A 
ATOM      9  C   UNL     1      -7.572  -1.816 128.746  0.00  0.00    +0.000 A 
ATOM     10  C   UNL     1      -8.088  -2.873 129.515  0.00  0.00    +0.000 A 
ATOM     11  C   UNL     1      -8.850  -3.887 128.925  0.00  0.00    +0.000 A 
ATOM     12  C   UNL     1      -9.072  -3.876 127.580  0.00  0.00    +0.000 A 
ATOM     13  C   UNL     1      -8.502  -2.865 126.825  0.00  0.00    +0.000 A 
ENDBRANCH   1   8
BRANCH   1  14
ATOM     14  O   UNL     1      -7.783   0.290 126.162  0.00  0.00    +0.000 OA
ATOM     15  H   UNL     1      -7.637   0.521 125.227  0.00  0.00    +0.000 HD
ENDBRANCH   1  14
BRANCH   1  16
ATOM     16  C   UNL     1      -5.617  -0.306 127.099  0.00  0.00    +0.000 C 
BRANCH  16  22
ATOM     17  C   UNL     1      -2.533   3.530 127.541  0.00  0.00    +0.000 C 
ATOM     18  N   UNL     1      -4.028   3.779 127.462  0.00  0.00    +0.000 N 
ATOM     19  C   UNL     1      -4.323   5.263 127.452  0.00  0.00    +0.000 C 
ATOM     20  C   UNL     1      -4.794   3.097 128.632  0.00  0.00    +0.000 C 
ATOM     21  C   UNL     1      -4.846   1.551 128.499  0.00  0.00    +0.000 C 
ATOM     22  N   UNL     1      -5.445   1.175 127.198  0.00  0.00    +0.000 NA
ATOM     23  C   UNL     1      -4.593   1.759 126.162  0.00  0.00    +0.000 C 
ATOM     24  C   UNL     1      -4.545   3.264 126.160  0.00  0.00    +0.000 C 
ENDBRANCH  16  22
ENDBRANCH   1  16
TORSDOF 5
ENDMDL
MODEL 6
REMARK VINA RESULT:      -7.2      5.767      9.145
REMARK  Name = Hexocyclium
REMARK  7 active torsions:
REMARK  status: ('A' for Active; 'I' for Inactive)
REMARK    1  A    between atoms: C_1  and  N_2
REMARK    2  A    between atoms: N_2  and  C_3
REMARK    3  A    between atoms: N_6  and  C_7
REMARK    4  A    between atoms: C_7  and  C_8
REMARK    5  A    between atoms: C_8  and  O_9
REMARK    6  A    between atoms: C_8  and  C_10
REMARK    7  A    between atoms: C_8  and  C_16
REMARK                            x       y       z     vdW  Elec       q    Type
REMARK                         _______ _______ _______ _____ _____    ______ ____
ROOT
ATOM      1  C   UNL     1      -9.919   5.101 130.278  0.00  0.00    +0.000 C 
ENDROOT
BRANCH   1   2
ATOM      2  C   UNL     1      -9.510   5.008 131.781  0.00  0.00    +0.000 C 
ATOM      3  C   UNL     1      -9.439   3.540 132.264  0.00  0.00    +0.000 C 
ATOM      4  C   UNL     1      -9.222   3.432 133.755  0.00  0.00    +0.000 C 
ATOM      5  C   UNL     1      -8.064   4.324 134.172  0.00  0.00    +0.000 C 
ATOM      6  C   UNL     1      -8.331   5.796 133.860  0.00  0.00    +0.000 C 
ATOM      7  C   UNL     1      -8.539   6.058 132.370  0.00  0.00    +0.000 C 
ENDBRANCH   1   2
BRANCH   1   8
ATOM      8  C   UNL     1     -10.680   6.421 130.073  0.00  0.00    +0.000 A 
ATOM      9  C   UNL     1     -11.816   6.771 130.791  0.00  0.00    +0.000 A 
ATOM     10  C   UNL     1     -12.602   7.862 130.384  0.00  0.00    +0.000 A 
ATOM     11  C   UNL     1     -12.204   8.679 129.321  0.00  0.00    +0.000 A 
ATOM     12  C   UNL     1     -11.056   8.401 128.642  0.00  0.00    +0.000 A 
ATOM     13  C   UNL     1     -10.326   7.284 129.010  0.00  0.00    +0.000 A 
ENDBRANCH   1   8
BRANCH   1  14
ATOM     14  O   UNL     1     -10.776   3.997 129.960  0.00  0.00    +0.000 OA
ATOM     15  H   UNL     1     -11.345   3.856 130.739  0.00  0.00    +0.000 HD
ENDBRANCH   1  14
BRANCH   1  16
ATOM     16  C   UNL     1      -8.651   4.982 129.300  0.00  0.00    +0.000 C 
BRANCH  16  22
ATOM     17  C   UNL     1      -5.801   1.601 127.095  0.00  0.00    +0.000 C 
ATOM     18  N   UNL     1      -7.303   1.562 126.885  0.00  0.00    +0.000 N 
ATOM     19  C   UNL     1      -7.695   0.366 126.045  0.00  0.00    +0.000 C 
ATOM     20  C   UNL     1      -7.832   2.868 126.223  0.00  0.00    +0.000 C 
ATOM     21  C   UNL     1      -7.799   4.086 127.184  0.00  0.00    +0.000 C 
ATOM     22  N   UNL     1      -8.565   3.782 128.414  0.00  0.00    +0.000 NA
ATOM     23  C   UNL     1      -7.925   2.618 129.027  0.00  0.00    +0.000 C 
ATOM     24  C   UNL     1      -7.979   1.361 128.200  0.00  0.00    +0.000 C 
ENDBRANCH  16  22
ENDBRANCH   1  16
TORSDOF 5
ENDMDL
MODEL 7
REMARK VINA RESULT:      -7.2      2.463      6.908
REMARK  Name = Hexocyclium
REMARK  7 active torsions:
REMARK  status: ('A' for Active; 'I' for Inactive)
REMARK    1  A    between atoms: C_1  and  N_2
REMARK    2  A    between atoms: N_2  and  C_3
REMARK    3  A    between atoms: N_6  and  C_7
REMARK    4  A    between atoms: C_7  and  C_8
REMARK    5  A    between atoms: C_8  and  O_9
REMARK    6  A    between atoms: C_8  and  C_10
REMARK    7  A    between atoms: C_8  and  C_16
REMARK                            x       y       z     vdW  Elec       q    Type
REMARK                         _______ _______ _______ _____ _____    ______ ____
ROOT
ATOM      1  C   UNL     1      -7.733   3.053 124.051  0.00  0.00    +0.000 C 
ENDROOT
BRANCH   1   2
ATOM      2  C   UNL     1      -6.382   2.827 124.798  0.00  0.00    +0.000 C 
ATOM      3  C   UNL     1      -5.681   4.167 125.126  0.00  0.00    +0.000 C 
ATOM      4  C   UNL     1      -4.291   3.970 125.686  0.00  0.00    +0.000 C 
ATOM      5  C   UNL     1      -4.332   2.949 126.812  0.00  0.00    +0.000 C 
ATOM      6  C   UNL     1      -4.823   1.583 126.333  0.00  0.00    +0.000 C 
ATOM      7  C   UNL     1      -6.240   1.630 125.766  0.00  0.00    +0.000 C 
ENDBRANCH   1   2
BRANCH   1   8
ATOM      8  C   UNL     1      -7.424   3.247 122.557  0.00  0.00    +0.000 A 
ATOM      9  C   UNL     1      -6.136   3.314 122.044  0.00  0.00    +0.000 A 
ATOM     10  C   UNL     1      -5.922   3.742 120.722  0.00  0.00    +0.000 A 
ATOM     11  C   UNL     1      -6.998   4.005 119.868  0.00  0.00    +0.000 A 
ATOM     12  C   UNL     1      -8.275   3.879 120.325  0.00  0.00    +0.000 A 
ATOM     13  C   UNL     1      -8.471   3.522 121.648  0.00  0.00    +0.000 A 
ENDBRANCH   1   8
BRANCH   1  14
ATOM     14  O   UNL     1      -8.360   4.233 124.569  0.00  0.00    +0.000 OA
ATOM     15  H   UNL     1      -7.646   4.876 124.733  0.00  0.00    +0.000 HD
ENDBRANCH   1  14
BRANCH   1  16
ATOM     16  C   UNL     1      -8.767   1.850 124.296  0.00  0.00    +0.000 C 
BRANCH  16  22
ATOM     17  C   UNL     1      -9.382  -2.975 123.419  0.00  0.00    +0.000 C 
ATOM     18  N   UNL     1      -8.109  -2.495 124.093  0.00  0.00    +0.000 N 
ATOM     19  C   UNL     1      -7.156  -3.648 124.318  0.00  0.00    +0.000 C 
ATOM     20  C   UNL     1      -8.400  -1.778 125.443  0.00  0.00    +0.000 C 
ATOM     21  C   UNL     1      -9.061  -0.386 125.257  0.00  0.00    +0.000 C 
ATOM     22  N   UNL     1      -8.213   0.465 124.390  0.00  0.00    +0.000 NA
ATOM     23  C   UNL     1      -8.095  -0.232 123.109  0.00  0.00    +0.000 C 
ATOM     24  C   UNL     1      -7.391  -1.561 123.177  0.00  0.00    +0.000 C 
ENDBRANCH  16  22
ENDBRANCH   1  16
TORSDOF 5
ENDMDL
MODEL 8
REMARK VINA RESULT:      -7.1      2.829      5.040
REMARK  Name = Hexocyclium
REMARK  7 active torsions:
REMARK  status: ('A' for Active; 'I' for Inactive)
REMARK    1  A    between atoms: C_1  and  N_2
REMARK    2  A    between atoms: N_2  and  C_3
REMARK    3  A    between atoms: N_6  and  C_7
REMARK    4  A    between atoms: C_7  and  C_8
REMARK    5  A    between atoms: C_8  and  O_9
REMARK    6  A    between atoms: C_8  and  C_10
REMARK    7  A    between atoms: C_8  and  C_16
REMARK                            x       y       z     vdW  Elec       q    Type
REMARK                         _______ _______ _______ _____ _____    ______ ____
ROOT
ATOM      1  C   UNL     1      -6.296  -0.946 126.556  0.00  0.00    +0.000 C 
ENDROOT
BRANCH   1   2
ATOM      2  C   UNL     1      -7.023  -2.137 127.256  0.00  0.00    +0.000 C 
ATOM      3  C   UNL     1      -6.668  -2.218 128.760  0.00  0.00    +0.000 C 
ATOM      4  C   UNL     1      -7.214  -3.465 129.416  0.00  0.00    +0.000 C 
ATOM      5  C   UNL     1      -8.686  -3.623 129.072  0.00  0.00    +0.000 C 
ATOM      6  C   UNL     1      -8.913  -3.768 127.567  0.00  0.00    +0.000 C 
ATOM      7  C   UNL     1      -8.432  -2.555 126.776  0.00  0.00    +0.000 C 
ENDBRANCH   1   2
BRANCH   1   8
ATOM      8  C   UNL     1      -6.048  -1.335 125.090  0.00  0.00    +0.000 A 
ATOM      9  C   UNL     1      -6.647  -0.693 124.014  0.00  0.00    +0.000 A 
ATOM     10  C   UNL     1      -6.578  -1.253 122.727  0.00  0.00    +0.000 A 
ATOM     11  C   UNL     1      -5.820  -2.404 122.483  0.00  0.00    +0.000 A 
ATOM     12  C   UNL     1      -5.163  -3.015 123.508  0.00  0.00    +0.000 A 
ATOM     13  C   UNL     1      -5.294  -2.491 124.783  0.00  0.00    +0.000 A 
ENDBRANCH   1   8
BRANCH   1  14
ATOM     14  O   UNL     1      -5.042  -0.716 127.211  0.00  0.00    +0.000 OA
ATOM     15  H   UNL     1      -5.044  -1.268 128.014  0.00  0.00    +0.000 HD
ENDBRANCH   1  14
BRANCH   1  16
ATOM     16  C   UNL     1      -7.126   0.423 126.680  0.00  0.00    +0.000 C 
BRANCH  16  22
ATOM     17  C   UNL     1      -8.612   4.268 129.407  0.00  0.00    +0.000 C 
ATOM     18  N   UNL     1      -7.500   3.372 129.922  0.00  0.00    +0.000 N 
ATOM     19  C   UNL     1      -7.070   3.797 131.309  0.00  0.00    +0.000 C 
ATOM     20  C   UNL     1      -6.271   3.363 128.968  0.00  0.00    +0.000 C 
ATOM     21  C   UNL     1      -6.541   2.599 127.644  0.00  0.00    +0.000 C 
ATOM     22  N   UNL     1      -6.979   1.215 127.939  0.00  0.00    +0.000 NA
ATOM     23  C   UNL     1      -8.201   1.325 128.736  0.00  0.00    +0.000 C 
ATOM     24  C   UNL     1      -8.021   1.982 130.078  0.00  0.00    +0.000 C 
ENDBRANCH  16  22
ENDBRANCH   1  16
TORSDOF 5
ENDMDL
MODEL 9
REMARK VINA RESULT:      -7.1      2.569      4.818
REMARK  Name = Hexocyclium
REMARK  7 active torsions:
REMARK  status: ('A' for Active; 'I' for Inactive)
REMARK    1  A    between atoms: C_1  and  N_2
REMARK    2  A    between atoms: N_2  and  C_3
REMARK    3  A    between atoms: N_6  and  C_7
REMARK    4  A    between atoms: C_7  and  C_8
REMARK    5  A    between atoms: C_8  and  O_9
REMARK    6  A    between atoms: C_8  and  C_10
REMARK    7  A    between atoms: C_8  and  C_16
REMARK                            x       y       z     vdW  Elec       q    Type
REMARK                         _______ _______ _______ _____ _____    ______ ____
ROOT
ATOM      1  C   UNL     1      -5.978  -1.234 126.725  0.00  0.00    +0.000 C 
ENDROOT
BRANCH   1   2
ATOM      2  C   UNL     1      -6.909  -2.332 127.328  0.00  0.00    +0.000 C 
ATOM      3  C   UNL     1      -6.708  -2.473 128.856  0.00  0.00    +0.000 C 
ATOM      4  C   UNL     1      -7.465  -3.648 129.432  0.00  0.00    +0.000 C 
ATOM      5  C   UNL     1      -8.906  -3.615 128.952  0.00  0.00    +0.000 C 
ATOM      6  C   UNL     1      -9.008  -3.715 127.429  0.00  0.00    +0.000 C 
ATOM      7  C   UNL     1      -8.308  -2.563 126.713  0.00  0.00    +0.000 C 
ENDBRANCH   1   2
BRANCH   1   8
ATOM      8  C   UNL     1      -5.897  -1.461 125.206  0.00  0.00    +0.000 A 
ATOM      9  C   UNL     1      -6.566  -0.675 124.277  0.00  0.00    +0.000 A 
ATOM     10  C   UNL     1      -6.654  -1.085 122.936  0.00  0.00    +0.000 A 
ATOM     11  C   UNL     1      -5.986  -2.229 122.488  0.00  0.00    +0.000 A 
ATOM     12  C   UNL     1      -5.263  -2.982 123.364  0.00  0.00    +0.000 A 
ATOM     13  C   UNL     1      -5.240  -2.604 124.696  0.00  0.00    +0.000 A 
ENDBRANCH   1   8
BRANCH   1  14
ATOM     14  O   UNL     1      -4.671  -1.364 127.300  0.00  0.00    +0.000 OA
ATOM     15  H   UNL     1      -4.055  -0.919 126.691  0.00  0.00    +0.000 HD
ENDBRANCH   1  14
BRANCH   1  16
ATOM     16  C   UNL     1      -6.482   0.248 127.083  0.00  0.00    +0.000 C 
BRANCH  16  22
ATOM     17  C   UNL     1      -4.929   4.938 126.970  0.00  0.00    +0.000 C 
ATOM     18  N   UNL     1      -4.109   3.898 127.711  0.00  0.00    +0.000 N 
ATOM     19  C   UNL     1      -2.925   4.541 128.398  0.00  0.00    +0.000 C 
ATOM     20  C   UNL     1      -3.621   2.762 126.767  0.00  0.00    +0.000 C 
ATOM     21  C   UNL     1      -4.767   1.820 126.312  0.00  0.00    +0.000 C 
ATOM     22  N   UNL     1      -5.454   1.252 127.495  0.00  0.00    +0.000 NA
ATOM     23  C   UNL     1      -5.981   2.385 128.255  0.00  0.00    +0.000 C 
ATOM     24  C   UNL     1      -4.934   3.314 128.809  0.00  0.00    +0.000 C 
ENDBRANCH  16  22
ENDBRANCH   1  16
TORSDOF 5
ENDMDL
