MODEL 1
REMARK VINA RESULT:      -5.8      0.000      0.000
REMARK  Name = Hexylresorcinol
REMARK  8 active torsions:
REMARK  status: ('A' for Active; 'I' for Inactive)
REMARK    1  A    between atoms: C_1  and  C_2
REMARK    2  A    between atoms: C_2  and  C_3
REMARK    3  A    between atoms: C_3  and  C_4
REMARK    4  A    between atoms: C_4  and  C_5
REMARK    5  A    between atoms: C_5  and  C_6
REMARK    6  A    between atoms: C_6  and  C_7
REMARK    7  A    between atoms: C_8  and  O_9
REMARK    8  A    between atoms: C_11  and  O_12
REMARK                            x       y       z     vdW  Elec       q    Type
REMARK                         _______ _______ _______ _____ _____    ______ ____
ROOT
ATOM      1  C   UNL     1      -8.608  -0.304 123.318  0.00  0.00    +0.000 A 
ATOM      2  C   UNL     1      -9.647   0.575 122.984  0.00  0.00    +0.000 A 
ATOM      3  C   UNL     1      -9.498   1.953 123.122  0.00  0.00    +0.000 A 
ATOM      4  C   UNL     1      -8.295   2.460 123.595  0.00  0.00    +0.000 A 
ATOM      5  C   UNL     1      -7.245   1.615 123.926  0.00  0.00    +0.000 A 
ATOM      6  C   UNL     1      -7.397   0.235 123.786  0.00  0.00    +0.000 A 
ENDROOT
BRANCH   2   7
ATOM      7  O   UNL     1     -10.866   0.154 122.527  0.00  0.00    +0.000 OA
ATOM      8  H   UNL     1     -11.359   0.910 122.171  0.00  0.00    +0.000 HD
ENDBRANCH   2   7
BRANCH   4   9
ATOM      9  O   UNL     1      -8.108   3.802 123.757  0.00  0.00    +0.000 OA
ATOM     10  H   UNL     1      -8.455   4.054 124.627  0.00  0.00    +0.000 HD
ENDBRANCH   4   9
BRANCH   1  11
ATOM     11  C   UNL     1      -8.771  -1.801 123.272  0.00  0.00    +0.000 C 
BRANCH  11  12
ATOM     12  C   UNL     1      -8.242  -2.417 124.565  0.00  0.00    +0.000 C 
BRANCH  12  13
ATOM     13  C   UNL     1      -7.225  -3.509 124.273  0.00  0.00    +0.000 C 
BRANCH  13  14
ATOM     14  C   UNL     1      -5.819  -3.007 124.580  0.00  0.00    +0.000 C 
BRANCH  14  16
ATOM     15  C   UNL     1      -4.180  -4.591 123.553  0.00  0.00    +0.000 C 
ATOM     16  C   UNL     1      -4.889  -3.258 123.401  0.00  0.00    +0.000 C 
ENDBRANCH  14  16
ENDBRANCH  13  14
ENDBRANCH  12  13
ENDBRANCH  11  12
ENDBRANCH   1  11
TORSDOF 7
ENDMDL
MODEL 2
REMARK VINA RESULT:      -5.8     10.440     11.098
REMARK  Name = Hexylresorcinol
REMARK  8 active torsions:
REMARK  status: ('A' for Active; 'I' for Inactive)
REMARK    1  A    between atoms: C_1  and  C_2
REMARK    2  A    between atoms: C_2  and  C_3
REMARK    3  A    between atoms: C_3  and  C_4
REMARK    4  A    between atoms: C_4  and  C_5
REMARK    5  A    between atoms: C_5  and  C_6
REMARK    6  A    between atoms: C_6  and  C_7
REMARK    7  A    between atoms: C_8  and  O_9
REMARK    8  A    between atoms: C_11  and  O_12
REMARK                            x       y       z     vdW  Elec       q    Type
REMARK                         _______ _______ _______ _____ _____    ______ ____
ROOT
ATOM      1  C   UNL     1     -10.586   6.876 130.187  0.00  0.00    +0.000 A 
ATOM      2  C   UNL     1     -11.855   7.068 130.750  0.00  0.00    +0.000 A 
ATOM      3  C   UNL     1     -12.730   8.027 130.245  0.00  0.00    +0.000 A 
ATOM      4  C   UNL     1     -12.334   8.801 129.161  0.00  0.00    +0.000 A 
ATOM      5  C   UNL     1     -11.087   8.627 128.577  0.00  0.00    +0.000 A 
ATOM      6  C   UNL     1     -10.213   7.665 129.086  0.00  0.00    +0.000 A 
ENDROOT
BRANCH   2   7
ATOM      7  O   UNL     1     -12.312   6.359 131.826  0.00  0.00    +0.000 OA
ATOM      8  H   UNL     1     -12.733   5.540 131.523  0.00  0.00    +0.000 HD
ENDBRANCH   2   7
BRANCH   4   9
ATOM      9  O   UNL     1     -13.154   9.760 128.640  0.00  0.00    +0.000 OA
ATOM     10  H   UNL     1     -12.844  10.625 128.950  0.00  0.00    +0.000 HD
ENDBRANCH   4   9
BRANCH   1  11
ATOM     11  C   UNL     1      -9.582   5.916 130.770  0.00  0.00    +0.000 C 
BRANCH  11  12
ATOM     12  C   UNL     1      -8.283   6.656 131.082  0.00  0.00    +0.000 C 
BRANCH  12  13
ATOM     13  C   UNL     1      -7.621   6.092 132.330  0.00  0.00    +0.000 C 
BRANCH  13  14
ATOM     14  C   UNL     1      -8.672   5.821 133.400  0.00  0.00    +0.000 C 
BRANCH  14  16
ATOM     15  C   UNL     1      -9.178   3.381 133.601  0.00  0.00    +0.000 C 
ATOM     16  C   UNL     1      -8.357   4.533 134.148  0.00  0.00    +0.000 C 
ENDBRANCH  14  16
ENDBRANCH  13  14
ENDBRANCH  12  13
ENDBRANCH  11  12
ENDBRANCH   1  11
TORSDOF 7
ENDMDL
MODEL 3
REMARK VINA RESULT:      -5.6      3.736      5.012
REMARK  Name = Hexylresorcinol
REMARK  8 active torsions:
REMARK  status: ('A' for Active; 'I' for Inactive)
REMARK    1  A    between atoms: C_1  and  C_2
REMARK    2  A    between atoms: C_2  and  C_3
REMARK    3  A    between atoms: C_3  and  C_4
REMARK    4  A    between atoms: C_4  and  C_5
REMARK    5  A    between atoms: C_5  and  C_6
REMARK    6  A    between atoms: C_6  and  C_7
REMARK    7  A    between atoms: C_8  and  O_9
REMARK    8  A    between atoms: C_11  and  O_12
REMARK                            x       y       z     vdW  Elec       q    Type
REMARK                         _______ _______ _______ _____ _____    ______ ____
ROOT
ATOM      1  C   UNL     1      -8.607  -2.742 126.647  0.00  0.00    +0.000 A 
ATOM      2  C   UNL     1      -7.985  -1.591 127.152  0.00  0.00    +0.000 A 
ATOM      3  C   UNL     1      -7.676  -1.474 128.504  0.00  0.00    +0.000 A 
ATOM      4  C   UNL     1      -7.988  -2.520 129.364  0.00  0.00    +0.000 A 
ATOM      5  C   UNL     1      -8.595  -3.675 128.892  0.00  0.00    +0.000 A 
ATOM      6  C   UNL     1      -8.904  -3.790 127.535  0.00  0.00    +0.000 A 
ENDROOT
BRANCH   2   7
ATOM      7  O   UNL     1      -7.661  -0.513 126.374  0.00  0.00    +0.000 OA
ATOM      8  H   UNL     1      -7.538  -0.799 125.456  0.00  0.00    +0.000 HD
ENDBRANCH   2   7
BRANCH   4   9
ATOM      9  O   UNL     1      -7.713  -2.443 130.698  0.00  0.00    +0.000 OA
ATOM     10  H   UNL     1      -7.992  -3.274 131.113  0.00  0.00    +0.000 HD
ENDBRANCH   4   9
BRANCH   1  11
ATOM     11  C   UNL     1      -9.041  -2.859 125.209  0.00  0.00    +0.000 C 
BRANCH  11  12
ATOM     12  C   UNL     1      -8.009  -3.667 124.424  0.00  0.00    +0.000 C 
BRANCH  12  13
ATOM     13  C   UNL     1      -6.984  -2.754 123.770  0.00  0.00    +0.000 C 
BRANCH  13  14
ATOM     14  C   UNL     1      -5.625  -2.935 124.436  0.00  0.00    +0.000 C 
BRANCH  14  16
ATOM     15  C   UNL     1      -4.320  -4.857 123.513  0.00  0.00    +0.000 C 
ATOM     16  C   UNL     1      -4.581  -3.366 123.416  0.00  0.00    +0.000 C 
ENDBRANCH  14  16
ENDBRANCH  13  14
ENDBRANCH  12  13
ENDBRANCH  11  12
ENDBRANCH   1  11
TORSDOF 7
ENDMDL
MODEL 4
REMARK VINA RESULT:      -5.6      1.548      2.430
REMARK  Name = Hexylresorcinol
REMARK  8 active torsions:
REMARK  status: ('A' for Active; 'I' for Inactive)
REMARK    1  A    between atoms: C_1  and  C_2
REMARK    2  A    between atoms: C_2  and  C_3
REMARK    3  A    between atoms: C_3  and  C_4
REMARK    4  A    between atoms: C_4  and  C_5
REMARK    5  A    between atoms: C_5  and  C_6
REMARK    6  A    between atoms: C_6  and  C_7
REMARK    7  A    between atoms: C_8  and  O_9
REMARK    8  A    between atoms: C_11  and  O_12
REMARK                            x       y       z     vdW  Elec       q    Type
REMARK                         _______ _______ _______ _____ _____    ______ ____
ROOT
ATOM      1  C   UNL     1      -8.768  -0.307 123.170  0.00  0.00    +0.000 A 
ATOM      2  C   UNL     1      -9.790   0.628 122.957  0.00  0.00    +0.000 A 
ATOM      3  C   UNL     1      -9.564   1.992 123.125  0.00  0.00    +0.000 A 
ATOM      4  C   UNL     1      -8.301   2.428 123.505  0.00  0.00    +0.000 A 
ATOM      5  C   UNL     1      -7.267   1.526 123.713  0.00  0.00    +0.000 A 
ATOM      6  C   UNL     1      -7.496   0.160 123.544  0.00  0.00    +0.000 A 
ENDROOT
BRANCH   2   7
ATOM      7  O   UNL     1     -11.063   0.278 122.599  0.00  0.00    +0.000 OA
ATOM      8  H   UNL     1     -11.031  -0.410 121.917  0.00  0.00    +0.000 HD
ENDBRANCH   2   7
BRANCH   4   9
ATOM      9  O   UNL     1      -8.038   3.754 123.692  0.00  0.00    +0.000 OA
ATOM     10  H   UNL     1      -7.649   4.104 122.875  0.00  0.00    +0.000 HD
ENDBRANCH   4   9
BRANCH   1  11
ATOM     11  C   UNL     1      -9.005  -1.793 123.091  0.00  0.00    +0.000 C 
BRANCH  11  12
ATOM     12  C   UNL     1      -7.775  -2.539 123.604  0.00  0.00    +0.000 C 
BRANCH  12  13
ATOM     13  C   UNL     1      -8.170  -3.640 124.575  0.00  0.00    +0.000 C 
BRANCH  13  14
ATOM     14  C   UNL     1      -9.171  -3.102 125.591  0.00  0.00    +0.000 C 
BRANCH  14  16
ATOM     15  C   UNL     1      -8.926  -3.929 127.938  0.00  0.00    +0.000 C 
ATOM     16  C   UNL     1      -8.499  -2.872 126.937  0.00  0.00    +0.000 C 
ENDBRANCH  14  16
ENDBRANCH  13  14
ENDBRANCH  12  13
ENDBRANCH  11  12
ENDBRANCH   1  11
TORSDOF 7
ENDMDL
MODEL 5
REMARK VINA RESULT:      -5.5      8.651     10.773
REMARK  Name = Hexylresorcinol
REMARK  8 active torsions:
REMARK  status: ('A' for Active; 'I' for Inactive)
REMARK    1  A    between atoms: C_1  and  C_2
REMARK    2  A    between atoms: C_2  and  C_3
REMARK    3  A    between atoms: C_3  and  C_4
REMARK    4  A    between atoms: C_4  and  C_5
REMARK    5  A    between atoms: C_5  and  C_6
REMARK    6  A    between atoms: C_6  and  C_7
REMARK    7  A    between atoms: C_8  and  O_9
REMARK    8  A    between atoms: C_11  and  O_12
REMARK                            x       y       z     vdW  Elec       q    Type
REMARK                         _______ _______ _______ _____ _____    ______ ____
ROOT
ATOM      1  C   UNL     1     -10.681   5.998 130.998  0.00  0.00    +0.000 A 
ATOM      2  C   UNL     1     -10.449   4.794 130.319  0.00  0.00    +0.000 A 
ATOM      3  C   UNL     1      -9.186   4.474 129.829  0.00  0.00    +0.000 A 
ATOM      4  C   UNL     1      -8.138   5.366 130.023  0.00  0.00    +0.000 A 
ATOM      5  C   UNL     1      -8.335   6.562 130.700  0.00  0.00    +0.000 A 
ATOM      6  C   UNL     1      -9.603   6.879 131.190  0.00  0.00    +0.000 A 
ENDROOT
BRANCH   2   7
ATOM      7  O   UNL     1     -11.430   3.872 130.073  0.00  0.00    +0.000 OA
ATOM      8  H   UNL     1     -11.171   3.014 130.444  0.00  0.00    +0.000 HD
ENDBRANCH   2   7
BRANCH   4   9
ATOM      9  O   UNL     1      -6.886   5.099 129.551  0.00  0.00    +0.000 OA
ATOM     10  H   UNL     1      -6.707   4.155 129.683  0.00  0.00    +0.000 HD
ENDBRANCH   4   9
BRANCH   1  11
ATOM     11  C   UNL     1     -12.054   6.415 131.455  0.00  0.00    +0.000 C 
BRANCH  11  12
ATOM     12  C   UNL     1     -12.454   7.716 130.761  0.00  0.00    +0.000 C 
BRANCH  12  13
ATOM     13  C   UNL     1     -12.796   7.471 129.299  0.00  0.00    +0.000 C 
BRANCH  13  14
ATOM     14  C   UNL     1     -12.319   8.643 128.449  0.00  0.00    +0.000 C 
BRANCH  14  16
ATOM     15  C   UNL     1     -10.550   7.221 127.402  0.00  0.00    +0.000 C 
ATOM     16  C   UNL     1     -10.834   8.514 128.141  0.00  0.00    +0.000 C 
ENDBRANCH  14  16
ENDBRANCH  13  14
ENDBRANCH  12  13
ENDBRANCH  11  12
ENDBRANCH   1  11
TORSDOF 7
ENDMDL
MODEL 6
REMARK VINA RESULT:      -5.4      3.634      4.898
REMARK  Name = Hexylresorcinol
REMARK  8 active torsions:
REMARK  status: ('A' for Active; 'I' for Inactive)
REMARK    1  A    between atoms: C_1  and  C_2
REMARK    2  A    between atoms: C_2  and  C_3
REMARK    3  A    between atoms: C_3  and  C_4
REMARK    4  A    between atoms: C_4  and  C_5
REMARK    5  A    between atoms: C_5  and  C_6
REMARK    6  A    between atoms: C_6  and  C_7
REMARK    7  A    between atoms: C_8  and  O_9
REMARK    8  A    between atoms: C_11  and  O_12
REMARK                            x       y       z     vdW  Elec       q    Type
REMARK                         _______ _______ _______ _____ _____    ______ ____
ROOT
ATOM      1  C   UNL     1      -7.298   3.635 121.291  0.00  0.00    +0.000 A 
ATOM      2  C   UNL     1      -8.072   3.956 120.168  0.00  0.00    +0.000 A 
ATOM      3  C   UNL     1      -7.527   4.656 119.094  0.00  0.00    +0.000 A 
ATOM      4  C   UNL     1      -6.192   5.037 119.141  0.00  0.00    +0.000 A 
ATOM      5  C   UNL     1      -5.399   4.726 120.236  0.00  0.00    +0.000 A 
ATOM      6  C   UNL     1      -5.947   4.023 121.310  0.00  0.00    +0.000 A 
ENDROOT
BRANCH   2   7
ATOM      7  O   UNL     1      -9.396   3.631 120.052  0.00  0.00    +0.000 OA
ATOM      8  H   UNL     1      -9.940   4.352 120.406  0.00  0.00    +0.000 HD
ENDBRANCH   2   7
BRANCH   4   9
ATOM      9  O   UNL     1      -5.620   5.734 118.117  0.00  0.00    +0.000 OA
ATOM     10  H   UNL     1      -6.304   5.913 117.453  0.00  0.00    +0.000 HD
ENDBRANCH   4   9
BRANCH   1  11
ATOM     11  C   UNL     1      -7.881   2.964 122.508  0.00  0.00    +0.000 C 
BRANCH  11  12
ATOM     12  C   UNL     1      -6.868   2.998 123.650  0.00  0.00    +0.000 C 
BRANCH  12  13
ATOM     13  C   UNL     1      -6.795   1.652 124.354  0.00  0.00    +0.000 C 
BRANCH  13  14
ATOM     14  C   UNL     1      -7.262   0.547 123.414  0.00  0.00    +0.000 C 
BRANCH  14  16
ATOM     15  C   UNL     1      -6.458  -1.683 122.621  0.00  0.00    +0.000 C 
ATOM     16  C   UNL     1      -6.677  -0.795 123.831  0.00  0.00    +0.000 C 
ENDBRANCH  14  16
ENDBRANCH  13  14
ENDBRANCH  12  13
ENDBRANCH  11  12
ENDBRANCH   1  11
TORSDOF 7
ENDMDL
MODEL 7
REMARK VINA RESULT:      -5.4      9.619     10.806
REMARK  Name = Hexylresorcinol
REMARK  8 active torsions:
REMARK  status: ('A' for Active; 'I' for Inactive)
REMARK    1  A    between atoms: C_1  and  C_2
REMARK    2  A    between atoms: C_2  and  C_3
REMARK    3  A    between atoms: C_3  and  C_4
REMARK    4  A    between atoms: C_4  and  C_5
REMARK    5  A    between atoms: C_5  and  C_6
REMARK    6  A    between atoms: C_6  and  C_7
REMARK    7  A    between atoms: C_8  and  O_9
REMARK    8  A    between atoms: C_11  and  O_12
REMARK                            x       y       z     vdW  Elec       q    Type
REMARK                         _______ _______ _______ _____ _____    ______ ____
ROOT
ATOM      1  C   UNL     1     -11.785   6.600 129.911  0.00  0.00    +0.000 A 
ATOM      2  C   UNL     1     -11.420   7.180 128.688  0.00  0.00    +0.000 A 
ATOM      3  C   UNL     1     -11.826   8.469 128.352  0.00  0.00    +0.000 A 
ATOM      4  C   UNL     1     -12.603   9.190 129.250  0.00  0.00    +0.000 A 
ATOM      5  C   UNL     1     -12.972   8.645 130.472  0.00  0.00    +0.000 A 
ATOM      6  C   UNL     1     -12.564   7.353 130.806  0.00  0.00    +0.000 A 
ENDROOT
BRANCH   2   7
ATOM      7  O   UNL     1     -10.672   6.530 127.745  0.00  0.00    +0.000 OA
ATOM      8  H   UNL     1     -10.554   7.102 126.971  0.00  0.00    +0.000 HD
ENDBRANCH   2   7
BRANCH   4   9
ATOM      9  O   UNL     1     -13.033  10.452 128.958  0.00  0.00    +0.000 OA
ATOM     10  H   UNL     1     -12.309  10.924 128.519  0.00  0.00    +0.000 HD
ENDBRANCH   4   9
BRANCH   1  11
ATOM     11  C   UNL     1     -11.443   5.175 130.262  0.00  0.00    +0.000 C 
BRANCH  11  12
ATOM     12  C   UNL     1      -9.982   5.088 130.697  0.00  0.00    +0.000 C 
BRANCH  12  13
ATOM     13  C   UNL     1      -9.823   5.489 132.156  0.00  0.00    +0.000 C 
BRANCH  13  14
ATOM     14  C   UNL     1      -8.460   6.135 132.373  0.00  0.00    +0.000 C 
BRANCH  14  16
ATOM     15  C   UNL     1      -6.469   6.936 131.090  0.00  0.00    +0.000 C 
ATOM     16  C   UNL     1      -7.982   6.822 131.101  0.00  0.00    +0.000 C 
ENDBRANCH  14  16
ENDBRANCH  13  14
ENDBRANCH  12  13
ENDBRANCH  11  12
ENDBRANCH   1  11
TORSDOF 7
ENDMDL
MODEL 8
REMARK VINA RESULT:      -5.2      3.570      4.793
REMARK  Name = Hexylresorcinol
REMARK  8 active torsions:
REMARK  status: ('A' for Active; 'I' for Inactive)
REMARK    1  A    between atoms: C_1  and  C_2
REMARK    2  A    between atoms: C_2  and  C_3
REMARK    3  A    between atoms: C_3  and  C_4
REMARK    4  A    between atoms: C_4  and  C_5
REMARK    5  A    between atoms: C_5  and  C_6
REMARK    6  A    between atoms: C_6  and  C_7
REMARK    7  A    between atoms: C_8  and  O_9
REMARK    8  A    between atoms: C_11  and  O_12
REMARK                            x       y       z     vdW  Elec       q    Type
REMARK                         _______ _______ _______ _____ _____    ______ ____
ROOT
ATOM      1  C   UNL     1      -8.217  -2.994 125.326  0.00  0.00    +0.000 A 
ATOM      2  C   UNL     1      -8.781  -2.958 124.043  0.00  0.00    +0.000 A 
ATOM      3  C   UNL     1      -8.032  -2.562 122.938  0.00  0.00    +0.000 A 
ATOM      4  C   UNL     1      -6.702  -2.202 123.114  0.00  0.00    +0.000 A 
ATOM      5  C   UNL     1      -6.114  -2.237 124.370  0.00  0.00    +0.000 A 
ATOM      6  C   UNL     1      -6.867  -2.634 125.476  0.00  0.00    +0.000 A 
ENDROOT
BRANCH   2   7
ATOM      7  O   UNL     1     -10.086  -3.280 123.790  0.00  0.00    +0.000 OA
ATOM      8  H   UNL     1     -10.245  -4.207 124.028  0.00  0.00    +0.000 HD
ENDBRANCH   2   7
BRANCH   4   9
ATOM      9  O   UNL     1      -5.934  -1.798 122.061  0.00  0.00    +0.000 OA
ATOM     10  H   UNL     1      -5.093  -2.279 122.097  0.00  0.00    +0.000 HD
ENDBRANCH   4   9
BRANCH   1  11
ATOM     11  C   UNL     1      -9.025  -3.324 126.553  0.00  0.00    +0.000 C 
BRANCH  11  12
ATOM     12  C   UNL     1      -8.357  -2.720 127.787  0.00  0.00    +0.000 C 
BRANCH  12  13
ATOM     13  C   UNL     1      -8.483  -3.649 128.985  0.00  0.00    +0.000 C 
BRANCH  13  14
ATOM     14  C   UNL     1      -7.551  -3.190 130.100  0.00  0.00    +0.000 C 
BRANCH  14  16
ATOM     15  C   UNL     1      -5.112  -3.371 129.582  0.00  0.00    +0.000 C 
ATOM     16  C   UNL     1      -6.318  -4.079 130.170  0.00  0.00    +0.000 C 
ENDBRANCH  14  16
ENDBRANCH  13  14
ENDBRANCH  12  13
ENDBRANCH  11  12
ENDBRANCH   1  11
TORSDOF 7
ENDMDL
MODEL 9
REMARK VINA RESULT:      -5.2      5.046      6.934
REMARK  Name = Hexylresorcinol
REMARK  8 active torsions:
REMARK  status: ('A' for Active; 'I' for Inactive)
REMARK    1  A    between atoms: C_1  and  C_2
REMARK    2  A    between atoms: C_2  and  C_3
REMARK    3  A    between atoms: C_3  and  C_4
REMARK    4  A    between atoms: C_4  and  C_5
REMARK    5  A    between atoms: C_5  and  C_6
REMARK    6  A    between atoms: C_6  and  C_7
REMARK    7  A    between atoms: C_8  and  O_9
REMARK    8  A    between atoms: C_11  and  O_12
REMARK                            x       y       z     vdW  Elec       q    Type
REMARK                         _______ _______ _______ _____ _____    ______ ____
ROOT
ATOM      1  C   UNL     1      -6.913  -3.078 128.927  0.00  0.00    +0.000 A 
ATOM      2  C   UNL     1      -5.834  -2.458 128.283  0.00  0.00    +0.000 A 
ATOM      3  C   UNL     1      -4.527  -2.644 128.725  0.00  0.00    +0.000 A 
ATOM      4  C   UNL     1      -4.293  -3.463 129.822  0.00  0.00    +0.000 A 
ATOM      5  C   UNL     1      -5.340  -4.098 130.475  0.00  0.00    +0.000 A 
ATOM      6  C   UNL     1      -6.649  -3.909 130.030  0.00  0.00    +0.000 A 
ENDROOT
BRANCH   2   7
ATOM      7  O   UNL     1      -5.983  -1.625 127.207  0.00  0.00    +0.000 OA
ATOM      8  H   UNL     1      -6.064  -2.151 126.397  0.00  0.00    +0.000 HD
ENDBRANCH   2   7
BRANCH   4   9
ATOM      9  O   UNL     1      -3.030  -3.665 130.297  0.00  0.00    +0.000 OA
ATOM     10  H   UNL     1      -2.970  -4.576 130.623  0.00  0.00    +0.000 HD
ENDBRANCH   4   9
BRANCH   1  11
ATOM     11  C   UNL     1      -8.344  -2.821 128.534  0.00  0.00    +0.000 C 
BRANCH  11  12
ATOM     12  C   UNL     1      -8.772  -3.823 127.463  0.00  0.00    +0.000 C 
BRANCH  12  13
ATOM     13  C   UNL     1      -9.264  -3.109 126.214  0.00  0.00    +0.000 C 
BRANCH  13  14
ATOM     14  C   UNL     1      -8.610  -3.714 124.977  0.00  0.00    +0.000 C 
BRANCH  14  16
ATOM     15  C   UNL     1      -8.702  -2.127 123.048  0.00  0.00    +0.000 C 
ATOM     16  C   UNL     1      -9.367  -3.314 123.719  0.00  0.00    +0.000 C 
ENDBRANCH  14  16
ENDBRANCH  13  14
ENDBRANCH  12  13
ENDBRANCH  11  12
ENDBRANCH   1  11
TORSDOF 7
ENDMDL
