MODEL 1
REMARK VINA RESULT:      -7.0      0.000      0.000
REMARK  Name = Hexylcaine
REMARK  7 active torsions:
REMARK  status: ('A' for Active; 'I' for Inactive)
REMARK    1  A    between atoms: C_1  and  C_2
REMARK    2  A    between atoms: C_2  and  C_3
REMARK    3  A    between atoms: C_2  and  O_11
REMARK    4  A    between atoms: C_3  and  N_4
REMARK    5  A    between atoms: N_4  and  C_5
REMARK    6  A    between atoms: O_11  and  C_12
REMARK    7  A    between atoms: C_12  and  C_14
REMARK                            x       y       z     vdW  Elec       q    Type
REMARK                         _______ _______ _______ _____ _____    ______ ____
ROOT
ATOM      1  C   UNL     1      -9.287   1.819 122.961  0.00  0.00    +0.000 C 
ATOM      2  C   UNL     1      -7.871   1.929 123.546  0.00  0.00    +0.000 C 
ENDROOT
BRANCH   2   3
ATOM      3  C   UNL     1      -7.540   0.626 124.294  0.00  0.00    +0.000 C 
BRANCH   3   4
ATOM      4  N   UNL     1      -8.500   0.281 125.351  0.00  0.00    +0.000 NA
ATOM      5  H   UNL     1      -9.315   0.889 125.295  0.00  0.00    +0.000 HD
BRANCH   4   6
ATOM      6  C   UNL     1      -8.944  -1.112 125.233  0.00  0.00    +0.000 C 
ATOM      7  C   UNL     1      -8.361  -1.697 123.937  0.00  0.00    +0.000 C 
ATOM      8  C   UNL     1      -8.701  -3.179 123.795  0.00  0.00    +0.000 C 
ATOM      9  C   UNL     1      -8.256  -3.977 125.017  0.00  0.00    +0.000 C 
ATOM     10  C   UNL     1      -8.862  -3.410 126.289  0.00  0.00    +0.000 C 
ATOM     11  C   UNL     1      -8.506  -1.946 126.447  0.00  0.00    +0.000 C 
ENDBRANCH   4   6
ENDBRANCH   3   4
ENDBRANCH   2   3
BRANCH   2  12
ATOM     12  O   UNL     1      -6.938   2.144 122.444  0.00  0.00    +0.000 OA
BRANCH  12  13
ATOM     13  C   UNL     1      -6.353   3.371 122.383  0.00  0.00    +0.000 C 
ATOM     14  O   UNL     1      -5.873   3.999 123.321  0.00  0.00    +0.000 OA
BRANCH  13  15
ATOM     15  C   UNL     1      -6.327   3.927 121.015  0.00  0.00    +0.000 A 
ATOM     16  C   UNL     1      -5.262   4.762 120.636  0.00  0.00    +0.000 A 
ATOM     17  C   UNL     1      -5.329   5.487 119.443  0.00  0.00    +0.000 A 
ATOM     18  C   UNL     1      -6.426   5.332 118.597  0.00  0.00    +0.000 A 
ATOM     19  C   UNL     1      -7.475   4.485 118.962  0.00  0.00    +0.000 A 
ATOM     20  C   UNL     1      -7.432   3.788 120.173  0.00  0.00    +0.000 A 
ENDBRANCH  13  15
ENDBRANCH  12  13
ENDBRANCH   2  12
TORSDOF 6
ENDMDL
MODEL 2
REMARK VINA RESULT:      -7.0      2.406      7.028
REMARK  Name = Hexylcaine
REMARK  7 active torsions:
REMARK  status: ('A' for Active; 'I' for Inactive)
REMARK    1  A    between atoms: C_1  and  C_2
REMARK    2  A    between atoms: C_2  and  C_3
REMARK    3  A    between atoms: C_2  and  O_11
REMARK    4  A    between atoms: C_3  and  N_4
REMARK    5  A    between atoms: N_4  and  C_5
REMARK    6  A    between atoms: O_11  and  C_12
REMARK    7  A    between atoms: C_12  and  C_14
REMARK                            x       y       z     vdW  Elec       q    Type
REMARK                         _______ _______ _______ _____ _____    ______ ____
ROOT
ATOM      1  C   UNL     1     -10.305   0.877 122.496  0.00  0.00    +0.000 C 
ATOM      2  C   UNL     1      -8.968   0.670 123.225  0.00  0.00    +0.000 C 
ENDROOT
BRANCH   2   3
ATOM      3  C   UNL     1      -8.548   1.998 123.877  0.00  0.00    +0.000 C 
BRANCH   3   4
ATOM      4  N   UNL     1      -8.641   3.161 122.985  0.00  0.00    +0.000 NA
ATOM      5  H   UNL     1      -8.561   4.022 123.524  0.00  0.00    +0.000 HD
BRANCH   4   6
ATOM      6  C   UNL     1      -7.581   3.141 121.971  0.00  0.00    +0.000 C 
ATOM      7  C   UNL     1      -8.084   3.899 120.732  0.00  0.00    +0.000 C 
ATOM      8  C   UNL     1      -6.995   4.004 119.667  0.00  0.00    +0.000 C 
ATOM      9  C   UNL     1      -5.722   4.633 120.226  0.00  0.00    +0.000 C 
ATOM     10  C   UNL     1      -5.216   3.860 121.431  0.00  0.00    +0.000 C 
ATOM     11  C   UNL     1      -6.284   3.774 122.501  0.00  0.00    +0.000 C 
ENDBRANCH   4   6
ENDBRANCH   3   4
ENDBRANCH   2   3
BRANCH   2  12
ATOM     12  O   UNL     1      -9.155  -0.366 124.236  0.00  0.00    +0.000 OA
BRANCH  12  13
ATOM     13  C   UNL     1      -8.928  -1.645 123.833  0.00  0.00    +0.000 C 
ATOM     14  O   UNL     1      -9.776  -2.472 123.514  0.00  0.00    +0.000 OA
BRANCH  13  15
ATOM     15  C   UNL     1      -7.492  -1.990 123.797  0.00  0.00    +0.000 A 
ATOM     16  C   UNL     1      -6.790  -1.873 122.586  0.00  0.00    +0.000 A 
ATOM     17  C   UNL     1      -5.506  -2.410 122.464  0.00  0.00    +0.000 A 
ATOM     18  C   UNL     1      -4.895  -3.007 123.566  0.00  0.00    +0.000 A 
ATOM     19  C   UNL     1      -5.583  -3.104 124.778  0.00  0.00    +0.000 A 
ATOM     20  C   UNL     1      -6.883  -2.604 124.895  0.00  0.00    +0.000 A 
ENDBRANCH  13  15
ENDBRANCH  12  13
ENDBRANCH   2  12
TORSDOF 6
ENDMDL
MODEL 3
REMARK VINA RESULT:      -7.0      1.695      2.321
REMARK  Name = Hexylcaine
REMARK  7 active torsions:
REMARK  status: ('A' for Active; 'I' for Inactive)
REMARK    1  A    between atoms: C_1  and  C_2
REMARK    2  A    between atoms: C_2  and  C_3
REMARK    3  A    between atoms: C_2  and  O_11
REMARK    4  A    between atoms: C_3  and  N_4
REMARK    5  A    between atoms: N_4  and  C_5
REMARK    6  A    between atoms: O_11  and  C_12
REMARK    7  A    between atoms: C_12  and  C_14
REMARK                            x       y       z     vdW  Elec       q    Type
REMARK                         _______ _______ _______ _____ _____    ______ ____
ROOT
ATOM      1  C   UNL     1      -8.776   0.528 126.195  0.00  0.00    +0.000 C 
ATOM      2  C   UNL     1      -7.771   1.203 125.248  0.00  0.00    +0.000 C 
ENDROOT
BRANCH   2   3
ATOM      3  C   UNL     1      -6.743   0.155 124.788  0.00  0.00    +0.000 C 
BRANCH   3   4
ATOM      4  N   UNL     1      -6.885  -0.249 123.383  0.00  0.00    +0.000 NA
ATOM      5  H   UNL     1      -5.984  -0.194 122.911  0.00  0.00    +0.000 HD
BRANCH   4   6
ATOM      6  C   UNL     1      -7.391  -1.622 123.273  0.00  0.00    +0.000 C 
ATOM      7  C   UNL     1      -6.917  -2.412 124.503  0.00  0.00    +0.000 C 
ATOM      8  C   UNL     1      -7.489  -3.828 124.507  0.00  0.00    +0.000 C 
ATOM      9  C   UNL     1      -9.011  -3.819 124.401  0.00  0.00    +0.000 C 
ATOM     10  C   UNL     1      -9.468  -3.062 123.166  0.00  0.00    +0.000 C 
ATOM     11  C   UNL     1      -8.924  -1.649 123.170  0.00  0.00    +0.000 C 
ENDBRANCH   4   6
ENDBRANCH   3   4
ENDBRANCH   2   3
BRANCH   2  12
ATOM     12  O   UNL     1      -8.507   1.740 124.108  0.00  0.00    +0.000 OA
BRANCH  12  13
ATOM     13  C   UNL     1      -8.297   3.053 123.823  0.00  0.00    +0.000 C 
ATOM     14  O   UNL     1      -8.493   4.005 124.572  0.00  0.00    +0.000 OA
BRANCH  13  15
ATOM     15  C   UNL     1      -7.772   3.267 122.458  0.00  0.00    +0.000 A 
ATOM     16  C   UNL     1      -6.385   3.385 122.269  0.00  0.00    +0.000 A 
ATOM     17  C   UNL     1      -5.879   3.820 121.041  0.00  0.00    +0.000 A 
ATOM     18  C   UNL     1      -6.750   4.076 119.982  0.00  0.00    +0.000 A 
ATOM     19  C   UNL     1      -8.128   3.939 120.162  0.00  0.00    +0.000 A 
ATOM     20  C   UNL     1      -8.643   3.542 121.401  0.00  0.00    +0.000 A 
ENDBRANCH  13  15
ENDBRANCH  12  13
ENDBRANCH   2  12
TORSDOF 6
ENDMDL
MODEL 4
REMARK VINA RESULT:      -6.9      9.220     10.152
REMARK  Name = Hexylcaine
REMARK  7 active torsions:
REMARK  status: ('A' for Active; 'I' for Inactive)
REMARK    1  A    between atoms: C_1  and  C_2
REMARK    2  A    between atoms: C_2  and  C_3
REMARK    3  A    between atoms: C_2  and  O_11
REMARK    4  A    between atoms: C_3  and  N_4
REMARK    5  A    between atoms: N_4  and  C_5
REMARK    6  A    between atoms: O_11  and  C_12
REMARK    7  A    between atoms: C_12  and  C_14
REMARK                            x       y       z     vdW  Elec       q    Type
REMARK                         _______ _______ _______ _____ _____    ______ ____
ROOT
ATOM      1  C   UNL     1      -8.611   6.652 131.050  0.00  0.00    +0.000 C 
ATOM      2  C   UNL     1      -9.655   5.679 131.620  0.00  0.00    +0.000 C 
ENDROOT
BRANCH   2   3
ATOM      3  C   UNL     1      -9.391   5.495 133.124  0.00  0.00    +0.000 C 
BRANCH   3   4
ATOM      4  N   UNL     1      -9.617   4.127 133.610  0.00  0.00    +0.000 NA
ATOM      5  H   UNL     1     -10.613   3.917 133.613  0.00  0.00    +0.000 HD
BRANCH   4   6
ATOM      6  C   UNL     1      -8.932   3.142 132.765  0.00  0.00    +0.000 C 
ATOM      7  C   UNL     1      -7.754   2.558 133.562  0.00  0.00    +0.000 C 
ATOM      8  C   UNL     1      -7.051   1.451 132.780  0.00  0.00    +0.000 C 
ATOM      9  C   UNL     1      -8.027   0.361 132.348  0.00  0.00    +0.000 C 
ATOM     10  C   UNL     1      -9.171   0.943 131.536  0.00  0.00    +0.000 C 
ATOM     11  C   UNL     1      -9.888   2.025 132.317  0.00  0.00    +0.000 C 
ENDBRANCH   4   6
ENDBRANCH   3   4
ENDBRANCH   2   3
BRANCH   2  12
ATOM     12  O   UNL     1     -10.980   6.248 131.394  0.00  0.00    +0.000 OA
BRANCH  12  13
ATOM     13  C   UNL     1     -11.619   5.848 130.261  0.00  0.00    +0.000 C 
ATOM     14  O   UNL     1     -11.587   4.729 129.760  0.00  0.00    +0.000 OA
BRANCH  13  15
ATOM     15  C   UNL     1     -12.415   6.926 129.640  0.00  0.00    +0.000 A 
ATOM     16  C   UNL     1     -13.170   6.643 128.489  0.00  0.00    +0.000 A 
ATOM     17  C   UNL     1     -13.737   7.684 127.749  0.00  0.00    +0.000 A 
ATOM     18  C   UNL     1     -13.609   9.000 128.190  0.00  0.00    +0.000 A 
ATOM     19  C   UNL     1     -12.878   9.281 129.346  0.00  0.00    +0.000 A 
ATOM     20  C   UNL     1     -12.274   8.248 130.069  0.00  0.00    +0.000 A 
ENDBRANCH  13  15
ENDBRANCH  12  13
ENDBRANCH   2  12
TORSDOF 6
ENDMDL
MODEL 5
REMARK VINA RESULT:      -6.6      9.343     11.165
REMARK  Name = Hexylcaine
REMARK  7 active torsions:
REMARK  status: ('A' for Active; 'I' for Inactive)
REMARK    1  A    between atoms: C_1  and  C_2
REMARK    2  A    between atoms: C_2  and  C_3
REMARK    3  A    between atoms: C_2  and  O_11
REMARK    4  A    between atoms: C_3  and  N_4
REMARK    5  A    between atoms: N_4  and  C_5
REMARK    6  A    between atoms: O_11  and  C_12
REMARK    7  A    between atoms: C_12  and  C_14
REMARK                            x       y       z     vdW  Elec       q    Type
REMARK                         _______ _______ _______ _____ _____    ______ ____
ROOT
ATOM      1  C   UNL     1      -9.339   3.534 130.827  0.00  0.00    +0.000 C 
ATOM      2  C   UNL     1      -9.846   4.917 130.387  0.00  0.00    +0.000 C 
ENDROOT
BRANCH   2   3
ATOM      3  C   UNL     1     -11.384   4.897 130.366  0.00  0.00    +0.000 C 
BRANCH   3   4
ATOM      4  N   UNL     1     -12.009   5.915 131.221  0.00  0.00    +0.000 NA
ATOM      5  H   UNL     1     -11.293   6.442 131.717  0.00  0.00    +0.000 HD
BRANCH   4   6
ATOM      6  C   UNL     1     -12.819   6.850 130.432  0.00  0.00    +0.000 C 
ATOM      7  C   UNL     1     -12.190   8.248 130.545  0.00  0.00    +0.000 C 
ATOM      8  C   UNL     1     -12.925   9.259 129.668  0.00  0.00    +0.000 C 
ATOM      9  C   UNL     1     -12.995   8.795 128.216  0.00  0.00    +0.000 C 
ATOM     10  C   UNL     1     -13.645   7.426 128.111  0.00  0.00    +0.000 C 
ATOM     11  C   UNL     1     -12.905   6.414 128.960  0.00  0.00    +0.000 C 
ENDBRANCH   4   6
ENDBRANCH   3   4
ENDBRANCH   2   3
BRANCH   2  12
ATOM     12  O   UNL     1      -9.354   5.908 131.340  0.00  0.00    +0.000 OA
BRANCH  12  13
ATOM     13  C   UNL     1      -8.449   6.803 130.861  0.00  0.00    +0.000 C 
ATOM     14  O   UNL     1      -8.643   7.642 129.987  0.00  0.00    +0.000 OA
BRANCH  13  15
ATOM     15  C   UNL     1      -7.130   6.692 131.516  0.00  0.00    +0.000 A 
ATOM     16  C   UNL     1      -5.996   7.203 130.862  0.00  0.00    +0.000 A 
ATOM     17  C   UNL     1      -4.717   6.906 131.340  0.00  0.00    +0.000 A 
ATOM     18  C   UNL     1      -4.568   6.155 132.506  0.00  0.00    +0.000 A 
ATOM     19  C   UNL     1      -5.695   5.666 133.169  0.00  0.00    +0.000 A 
ATOM     20  C   UNL     1      -6.977   5.926 132.673  0.00  0.00    +0.000 A 
ENDBRANCH  13  15
ENDBRANCH  12  13
ENDBRANCH   2  12
TORSDOF 6
ENDMDL
MODEL 6
REMARK VINA RESULT:      -6.5      9.492     10.904
REMARK  Name = Hexylcaine
REMARK  7 active torsions:
REMARK  status: ('A' for Active; 'I' for Inactive)
REMARK    1  A    between atoms: C_1  and  C_2
REMARK    2  A    between atoms: C_2  and  C_3
REMARK    3  A    between atoms: C_2  and  O_11
REMARK    4  A    between atoms: C_3  and  N_4
REMARK    5  A    between atoms: N_4  and  C_5
REMARK    6  A    between atoms: O_11  and  C_12
REMARK    7  A    between atoms: C_12  and  C_14
REMARK                            x       y       z     vdW  Elec       q    Type
REMARK                         _______ _______ _______ _____ _____    ______ ____
ROOT
ATOM      1  C   UNL     1      -9.555   3.163 130.032  0.00  0.00    +0.000 C 
ATOM      2  C   UNL     1      -9.979   3.945 131.285  0.00  0.00    +0.000 C 
ENDROOT
BRANCH   2   3
ATOM      3  C   UNL     1      -9.374   3.263 132.523  0.00  0.00    +0.000 C 
BRANCH   3   4
ATOM      4  N   UNL     1      -9.646   3.962 133.786  0.00  0.00    +0.000 NA
ATOM      5  H   UNL     1     -10.332   3.443 134.332  0.00  0.00    +0.000 HD
BRANCH   4   6
ATOM      6  C   UNL     1      -8.425   4.110 134.587  0.00  0.00    +0.000 C 
ATOM      7  C   UNL     1      -7.344   3.193 133.993  0.00  0.00    +0.000 C 
ATOM      8  C   UNL     1      -6.011   3.368 134.717  0.00  0.00    +0.000 C 
ATOM      9  C   UNL     1      -5.563   4.826 134.724  0.00  0.00    +0.000 C 
ATOM     10  C   UNL     1      -6.625   5.720 135.340  0.00  0.00    +0.000 C 
ATOM     11  C   UNL     1      -7.943   5.570 134.610  0.00  0.00    +0.000 C 
ENDBRANCH   4   6
ENDBRANCH   3   4
ENDBRANCH   2   3
BRANCH   2  12
ATOM     12  O   UNL     1      -9.489   5.314 131.156  0.00  0.00    +0.000 OA
BRANCH  12  13
ATOM     13  C   UNL     1     -10.347   6.297 131.538  0.00  0.00    +0.000 C 
ATOM     14  O   UNL     1     -10.639   6.607 132.688  0.00  0.00    +0.000 OA
BRANCH  13  15
ATOM     15  C   UNL     1     -10.937   7.021 130.393  0.00  0.00    +0.000 A 
ATOM     16  C   UNL     1     -10.097   7.468 129.359  0.00  0.00    +0.000 A 
ATOM     17  C   UNL     1     -10.584   8.351 128.392  0.00  0.00    +0.000 A 
ATOM     18  C   UNL     1     -11.923   8.738 128.416  0.00  0.00    +0.000 A 
ATOM     19  C   UNL     1     -12.765   8.277 129.429  0.00  0.00    +0.000 A 
ATOM     20  C   UNL     1     -12.274   7.424 130.423  0.00  0.00    +0.000 A 
ENDBRANCH  13  15
ENDBRANCH  12  13
ENDBRANCH   2  12
TORSDOF 6
ENDMDL
MODEL 7
REMARK VINA RESULT:      -6.4      4.890      6.181
REMARK  Name = Hexylcaine
REMARK  7 active torsions:
REMARK  status: ('A' for Active; 'I' for Inactive)
REMARK    1  A    between atoms: C_1  and  C_2
REMARK    2  A    between atoms: C_2  and  C_3
REMARK    3  A    between atoms: C_2  and  O_11
REMARK    4  A    between atoms: C_3  and  N_4
REMARK    5  A    between atoms: N_4  and  C_5
REMARK    6  A    between atoms: O_11  and  C_12
REMARK    7  A    between atoms: C_12  and  C_14
REMARK                            x       y       z     vdW  Elec       q    Type
REMARK                         _______ _______ _______ _____ _____    ______ ____
ROOT
ATOM      1  C   UNL     1      -9.671   0.816 125.430  0.00  0.00    +0.000 C 
ATOM      2  C   UNL     1      -8.660  -0.335 125.553  0.00  0.00    +0.000 C 
ENDROOT
BRANCH   2   3
ATOM      3  C   UNL     1      -8.055  -0.315 126.967  0.00  0.00    +0.000 C 
BRANCH   3   4
ATOM      4  N   UNL     1      -6.661  -0.772 127.030  0.00  0.00    +0.000 NA
ATOM      5  H   UNL     1      -6.091  -0.089 127.525  0.00  0.00    +0.000 HD
BRANCH   4   6
ATOM      6  C   UNL     1      -6.554  -2.062 127.721  0.00  0.00    +0.000 C 
ATOM      7  C   UNL     1      -5.349  -2.001 128.674  0.00  0.00    +0.000 C 
ATOM      8  C   UNL     1      -5.233  -3.278 129.503  0.00  0.00    +0.000 C 
ATOM      9  C   UNL     1      -6.525  -3.578 130.257  0.00  0.00    +0.000 C 
ATOM     10  C   UNL     1      -7.705  -3.666 129.304  0.00  0.00    +0.000 C 
ATOM     11  C   UNL     1      -7.839  -2.392 128.497  0.00  0.00    +0.000 C 
ENDBRANCH   4   6
ENDBRANCH   3   4
ENDBRANCH   2   3
BRANCH   2  12
ATOM     12  O   UNL     1      -9.365  -1.589 125.309  0.00  0.00    +0.000 OA
BRANCH  12  13
ATOM     13  C   UNL     1      -9.109  -2.201 124.121  0.00  0.00    +0.000 C 
ATOM     14  O   UNL     1      -9.937  -2.558 123.290  0.00  0.00    +0.000 OA
BRANCH  13  15
ATOM     15  C   UNL     1      -7.666  -2.411 123.883  0.00  0.00    +0.000 A 
ATOM     16  C   UNL     1      -7.040  -1.726 122.827  0.00  0.00    +0.000 A 
ATOM     17  C   UNL     1      -5.747  -2.079 122.431  0.00  0.00    +0.000 A 
ATOM     18  C   UNL     1      -5.054  -3.069 123.126  0.00  0.00    +0.000 A 
ATOM     19  C   UNL     1      -5.666  -3.735 124.189  0.00  0.00    +0.000 A 
ATOM     20  C   UNL     1      -6.974  -3.414 124.565  0.00  0.00    +0.000 A 
ENDBRANCH  13  15
ENDBRANCH  12  13
ENDBRANCH   2  12
TORSDOF 6
ENDMDL
MODEL 8
REMARK VINA RESULT:      -6.4      1.678      2.441
REMARK  Name = Hexylcaine
REMARK  7 active torsions:
REMARK  status: ('A' for Active; 'I' for Inactive)
REMARK    1  A    between atoms: C_1  and  C_2
REMARK    2  A    between atoms: C_2  and  C_3
REMARK    3  A    between atoms: C_2  and  O_11
REMARK    4  A    between atoms: C_3  and  N_4
REMARK    5  A    between atoms: N_4  and  C_5
REMARK    6  A    between atoms: O_11  and  C_12
REMARK    7  A    between atoms: C_12  and  C_14
REMARK                            x       y       z     vdW  Elec       q    Type
REMARK                         _______ _______ _______ _____ _____    ______ ____
ROOT
ATOM      1  C   UNL     1      -8.643   1.811 125.937  0.00  0.00    +0.000 C 
ATOM      2  C   UNL     1      -7.658   2.144 124.806  0.00  0.00    +0.000 C 
ENDROOT
BRANCH   2   3
ATOM      3  C   UNL     1      -7.375   0.864 124.001  0.00  0.00    +0.000 C 
BRANCH   3   4
ATOM      4  N   UNL     1      -8.311  -0.235 124.272  0.00  0.00    +0.000 NA
ATOM      5  H   UNL     1      -9.199  -0.060 123.806  0.00  0.00    +0.000 HD
BRANCH   4   6
ATOM      6  C   UNL     1      -7.778  -1.518 123.801  0.00  0.00    +0.000 C 
ATOM      7  C   UNL     1      -6.314  -1.308 123.382  0.00  0.00    +0.000 C 
ATOM      8  C   UNL     1      -5.661  -2.625 122.970  0.00  0.00    +0.000 C 
ATOM      9  C   UNL     1      -5.781  -3.678 124.067  0.00  0.00    +0.000 C 
ATOM     10  C   UNL     1      -7.233  -3.901 124.454  0.00  0.00    +0.000 C 
ATOM     11  C   UNL     1      -7.879  -2.601 124.886  0.00  0.00    +0.000 C 
ENDBRANCH   4   6
ENDBRANCH   3   4
ENDBRANCH   2   3
BRANCH   2  12
ATOM     12  O   UNL     1      -8.266   3.164 123.957  0.00  0.00    +0.000 OA
BRANCH  12  13
ATOM     13  C   UNL     1      -8.717   2.745 122.744  0.00  0.00    +0.000 C 
ATOM     14  O   UNL     1      -9.567   1.886 122.537  0.00  0.00    +0.000 OA
BRANCH  13  15
ATOM     15  C   UNL     1      -8.073   3.451 121.617  0.00  0.00    +0.000 A 
ATOM     16  C   UNL     1      -8.851   3.819 120.506  0.00  0.00    +0.000 A 
ATOM     17  C   UNL     1      -8.234   4.269 119.336  0.00  0.00    +0.000 A 
ATOM     18  C   UNL     1      -6.848   4.415 119.293  0.00  0.00    +0.000 A 
ATOM     19  C   UNL     1      -6.075   4.071 120.404  0.00  0.00    +0.000 A 
ATOM     20  C   UNL     1      -6.683   3.582 121.565  0.00  0.00    +0.000 A 
ENDBRANCH  13  15
ENDBRANCH  12  13
ENDBRANCH   2  12
TORSDOF 6
ENDMDL
MODEL 9
REMARK VINA RESULT:      -6.4      2.112      8.181
REMARK  Name = Hexylcaine
REMARK  7 active torsions:
REMARK  status: ('A' for Active; 'I' for Inactive)
REMARK    1  A    between atoms: C_1  and  C_2
REMARK    2  A    between atoms: C_2  and  C_3
REMARK    3  A    between atoms: C_2  and  O_11
REMARK    4  A    between atoms: C_3  and  N_4
REMARK    5  A    between atoms: N_4  and  C_5
REMARK    6  A    between atoms: O_11  and  C_12
REMARK    7  A    between atoms: C_12  and  C_14
REMARK                            x       y       z     vdW  Elec       q    Type
REMARK                         _______ _______ _______ _____ _____    ______ ____
ROOT
ATOM      1  C   UNL     1      -7.718   2.615 126.841  0.00  0.00    +0.000 C 
ATOM      2  C   UNL     1      -7.915   1.905 125.493  0.00  0.00    +0.000 C 
ENDROOT
BRANCH   2   3
ATOM      3  C   UNL     1      -7.018   2.580 124.441  0.00  0.00    +0.000 C 
BRANCH   3   4
ATOM      4  N   UNL     1      -7.756   3.215 123.341  0.00  0.00    +0.000 NA
ATOM      5  H   UNL     1      -8.009   4.168 123.595  0.00  0.00    +0.000 HD
BRANCH   4   6
ATOM      6  C   UNL     1      -6.955   3.253 122.113  0.00  0.00    +0.000 C 
ATOM      7  C   UNL     1      -7.818   3.851 120.991  0.00  0.00    +0.000 C 
ATOM      8  C   UNL     1      -7.016   4.012 119.701  0.00  0.00    +0.000 C 
ATOM      9  C   UNL     1      -5.749   4.832 119.927  0.00  0.00    +0.000 C 
ATOM     10  C   UNL     1      -4.888   4.217 121.017  0.00  0.00    +0.000 C 
ATOM     11  C   UNL     1      -5.671   4.077 122.305  0.00  0.00    +0.000 C 
ENDBRANCH   4   6
ENDBRANCH   3   4
ENDBRANCH   2   3
BRANCH   2  12
ATOM     12  O   UNL     1      -7.551   0.501 125.659  0.00  0.00    +0.000 OA
BRANCH  12  13
ATOM     13  C   UNL     1      -8.580  -0.389 125.663  0.00  0.00    +0.000 C 
ATOM     14  O   UNL     1      -9.594  -0.336 124.975  0.00  0.00    +0.000 OA
BRANCH  13  15
ATOM     15  C   UNL     1      -8.372  -1.503 126.611  0.00  0.00    +0.000 A 
ATOM     16  C   UNL     1      -8.959  -2.750 126.341  0.00  0.00    +0.000 A 
ATOM     17  C   UNL     1      -8.979  -3.743 127.323  0.00  0.00    +0.000 A 
ATOM     18  C   UNL     1      -8.359  -3.519 128.551  0.00  0.00    +0.000 A 
ATOM     19  C   UNL     1      -7.755  -2.287 128.814  0.00  0.00    +0.000 A 
ATOM     20  C   UNL     1      -7.766  -1.274 127.849  0.00  0.00    +0.000 A 
ENDBRANCH  13  15
ENDBRANCH  12  13
ENDBRANCH   2  12
TORSDOF 6
ENDMDL
