MODEL 1
REMARK VINA RESULT:      -4.2      0.000      0.000
REMARK  Name = Histamine
REMARK  3 active torsions:
REMARK  status: ('A' for Active; 'I' for Inactive)
REMARK    1  A    between atoms: N_1  and  C_2
REMARK    2  A    between atoms: C_2  and  C_3
REMARK    3  A    between atoms: C_3  and  C_4
REMARK                            x       y       z     vdW  Elec       q    Type
REMARK                         _______ _______ _______ _____ _____    ______ ____
ROOT
ATOM      1  C   UNL     1     -12.341   6.792 129.562  0.00  0.00    +0.000 A 
ATOM      2  C   UNL     1     -12.509   7.031 130.909  0.00  0.00    +0.000 A 
ATOM      3  N   UNL     1     -11.822   6.034 131.541  0.00  0.00    +0.000 N 
ATOM      4  C   UNL     1     -11.262   5.245 130.576  0.00  0.00    +0.000 A 
ATOM      5  N   UNL     1     -11.559   5.676 129.371  0.00  0.00    +0.000 NA
ATOM      6  H   UNL     1     -11.739   5.901 132.539  0.00  0.00    +0.000 HD
ENDROOT
BRANCH   1   7
ATOM      7  C   UNL     1     -12.892   7.563 128.417  0.00  0.00    +0.000 C 
BRANCH   7   8
ATOM      8  C   UNL     1     -11.844   7.789 127.325  0.00  0.00    +0.000 C 
BRANCH   8   9
ATOM      9  N   UNL     1     -11.890   6.725 126.317  0.00  0.00    +0.000 NA
ATOM     10  H   UNL     1     -11.221   6.001 126.571  0.00  0.00    +0.000 HD
ATOM     11  H   UNL     1     -11.574   7.102 125.423  0.00  0.00    +0.000 HD
ENDBRANCH   8   9
ENDBRANCH   7   8
ENDBRANCH   1   7
TORSDOF 3
ENDMDL
MODEL 2
REMARK VINA RESULT:      -3.9      1.395      3.603
REMARK  Name = Histamine
REMARK  3 active torsions:
REMARK  status: ('A' for Active; 'I' for Inactive)
REMARK    1  A    between atoms: N_1  and  C_2
REMARK    2  A    between atoms: C_2  and  C_3
REMARK    3  A    between atoms: C_3  and  C_4
REMARK                            x       y       z     vdW  Elec       q    Type
REMARK                         _______ _______ _______ _____ _____    ______ ____
ROOT
ATOM      1  C   UNL     1     -12.189   7.450 128.735  0.00  0.00    +0.000 A 
ATOM      2  C   UNL     1     -11.439   8.606 128.766  0.00  0.00    +0.000 A 
ATOM      3  N   UNL     1     -10.699   8.587 127.619  0.00  0.00    +0.000 N 
ATOM      4  C   UNL     1     -11.026   7.449 126.938  0.00  0.00    +0.000 A 
ATOM      5  N   UNL     1     -11.922   6.740 127.587  0.00  0.00    +0.000 NA
ATOM      6  H   UNL     1     -10.032   9.285 127.323  0.00  0.00    +0.000 HD
ENDROOT
BRANCH   1   7
ATOM      7  C   UNL     1     -13.159   6.957 129.749  0.00  0.00    +0.000 C 
BRANCH   7   8
ATOM      8  C   UNL     1     -12.736   7.329 131.171  0.00  0.00    +0.000 C 
BRANCH   8   9
ATOM      9  N   UNL     1     -12.053   6.212 131.831  0.00  0.00    +0.000 NA
ATOM     10  H   UNL     1     -12.741   5.500 132.070  0.00  0.00    +0.000 HD
ATOM     11  H   UNL     1     -11.663   6.538 132.715  0.00  0.00    +0.000 HD
ENDBRANCH   8   9
ENDBRANCH   7   8
ENDBRANCH   1   7
TORSDOF 3
ENDMDL
MODEL 3
REMARK VINA RESULT:      -3.8      1.596      1.913
REMARK  Name = Histamine
REMARK  3 active torsions:
REMARK  status: ('A' for Active; 'I' for Inactive)
REMARK    1  A    between atoms: N_1  and  C_2
REMARK    2  A    between atoms: C_2  and  C_3
REMARK    3  A    between atoms: C_3  and  C_4
REMARK                            x       y       z     vdW  Elec       q    Type
REMARK                         _______ _______ _______ _____ _____    ______ ____
ROOT
ATOM      1  C   UNL     1     -12.633   6.638 129.774  0.00  0.00    +0.000 A 
ATOM      2  C   UNL     1     -11.762   5.578 129.903  0.00  0.00    +0.000 A 
ATOM      3  N   UNL     1     -11.328   5.623 131.198  0.00  0.00    +0.000 N 
ATOM      4  C   UNL     1     -11.947   6.681 131.802  0.00  0.00    +0.000 A 
ATOM      5  N   UNL     1     -12.740   7.315 130.968  0.00  0.00    +0.000 NA
ATOM      6  H   UNL     1     -10.672   4.991 131.633  0.00  0.00    +0.000 HD
ENDROOT
BRANCH   1   7
ATOM      7  C   UNL     1     -13.383   7.069 128.565  0.00  0.00    +0.000 C 
BRANCH   7   8
ATOM      8  C   UNL     1     -13.270   8.577 128.331  0.00  0.00    +0.000 C 
BRANCH   8   9
ATOM      9  N   UNL     1     -11.887   9.037 128.495  0.00  0.00    +0.000 NA
ATOM     10  H   UNL     1     -11.897   9.970 128.901  0.00  0.00    +0.000 HD
ATOM     11  H   UNL     1     -11.458   9.132 127.575  0.00  0.00    +0.000 HD
ENDBRANCH   8   9
ENDBRANCH   7   8
ENDBRANCH   1   7
TORSDOF 3
ENDMDL
MODEL 4
REMARK VINA RESULT:      -3.8      1.846      3.962
REMARK  Name = Histamine
REMARK  3 active torsions:
REMARK  status: ('A' for Active; 'I' for Inactive)
REMARK    1  A    between atoms: N_1  and  C_2
REMARK    2  A    between atoms: C_2  and  C_3
REMARK    3  A    between atoms: C_3  and  C_4
REMARK                            x       y       z     vdW  Elec       q    Type
REMARK                         _______ _______ _______ _____ _____    ______ ____
ROOT
ATOM      1  C   UNL     1     -10.849   7.706 129.592  0.00  0.00    +0.000 A 
ATOM      2  C   UNL     1     -10.505   8.087 128.313  0.00  0.00    +0.000 A 
ATOM      3  N   UNL     1     -11.559   8.828 127.861  0.00  0.00    +0.000 N 
ATOM      4  C   UNL     1     -12.484   8.880 128.865  0.00  0.00    +0.000 A 
ATOM      5  N   UNL     1     -12.086   8.211 129.922  0.00  0.00    +0.000 NA
ATOM      6  H   UNL     1     -11.643   9.260 126.952  0.00  0.00    +0.000 HD
ENDROOT
BRANCH   1   7
ATOM      7  C   UNL     1     -10.069   6.869 130.542  0.00  0.00    +0.000 C 
BRANCH   7   8
ATOM      8  C   UNL     1     -10.867   5.652 131.016  0.00  0.00    +0.000 C 
BRANCH   8   9
ATOM      9  N   UNL     1     -11.905   6.039 131.976  0.00  0.00    +0.000 NA
ATOM     10  H   UNL     1     -11.947   5.341 132.715  0.00  0.00    +0.000 HD
ATOM     11  H   UNL     1     -12.813   6.013 131.510  0.00  0.00    +0.000 HD
ENDBRANCH   8   9
ENDBRANCH   7   8
ENDBRANCH   1   7
TORSDOF 3
ENDMDL
MODEL 5
REMARK VINA RESULT:      -3.6      1.931      2.968
REMARK  Name = Histamine
REMARK  3 active torsions:
REMARK  status: ('A' for Active; 'I' for Inactive)
REMARK    1  A    between atoms: N_1  and  C_2
REMARK    2  A    between atoms: C_2  and  C_3
REMARK    3  A    between atoms: C_3  and  C_4
REMARK                            x       y       z     vdW  Elec       q    Type
REMARK                         _______ _______ _______ _____ _____    ______ ____
ROOT
ATOM      1  C   UNL     1     -11.851   7.405 129.276  0.00  0.00    +0.000 A 
ATOM      2  C   UNL     1     -12.390   8.631 128.951  0.00  0.00    +0.000 A 
ATOM      3  N   UNL     1     -13.497   8.351 128.201  0.00  0.00    +0.000 N 
ATOM      4  C   UNL     1     -13.596   6.992 128.107  0.00  0.00    +0.000 A 
ATOM      5  N   UNL     1     -12.616   6.392 128.744  0.00  0.00    +0.000 NA
ATOM      6  H   UNL     1     -14.129   9.023 127.790  0.00  0.00    +0.000 HD
ENDROOT
BRANCH   1   7
ATOM      7  C   UNL     1     -10.625   7.122 130.069  0.00  0.00    +0.000 C 
BRANCH   7   8
ATOM      8  C   UNL     1      -9.742   6.068 129.397  0.00  0.00    +0.000 C 
BRANCH   8   9
ATOM      9  N   UNL     1      -9.694   6.265 127.944  0.00  0.00    +0.000 NA
ATOM     10  H   UNL     1     -10.310   7.037 127.696  0.00  0.00    +0.000 HD
ATOM     11  H   UNL     1     -10.078   5.438 127.486  0.00  0.00    +0.000 HD
ENDBRANCH   8   9
ENDBRANCH   7   8
ENDBRANCH   1   7
TORSDOF 3
ENDMDL
MODEL 6
REMARK VINA RESULT:      -3.5      9.463     10.604
REMARK  Name = Histamine
REMARK  3 active torsions:
REMARK  status: ('A' for Active; 'I' for Inactive)
REMARK    1  A    between atoms: N_1  and  C_2
REMARK    2  A    between atoms: C_2  and  C_3
REMARK    3  A    between atoms: C_3  and  C_4
REMARK                            x       y       z     vdW  Elec       q    Type
REMARK                         _______ _______ _______ _____ _____    ______ ____
ROOT
ATOM      1  C   UNL     1      -9.170  -1.232 123.123  0.00  0.00    +0.000 A 
ATOM      2  C   UNL     1      -8.212  -0.333 123.542  0.00  0.00    +0.000 A 
ATOM      3  N   UNL     1      -8.728   0.900 123.265  0.00  0.00    +0.000 N 
ATOM      4  C   UNL     1      -9.962   0.713 122.709  0.00  0.00    +0.000 A 
ATOM      5  N   UNL     1     -10.256  -0.563 122.608  0.00  0.00    +0.000 NA
ATOM      6  H   UNL     1      -8.283   1.790 123.438  0.00  0.00    +0.000 HD
ENDROOT
BRANCH   1   7
ATOM      7  C   UNL     1      -9.120  -2.717 123.172  0.00  0.00    +0.000 C 
BRANCH   7   8
ATOM      8  C   UNL     1      -8.867  -3.232 124.590  0.00  0.00    +0.000 C 
BRANCH   8   9
ATOM      9  N   UNL     1      -9.968  -2.873 125.489  0.00  0.00    +0.000 NA
ATOM     10  H   UNL     1     -10.852  -3.071 125.023  0.00  0.00    +0.000 HD
ATOM     11  H   UNL     1      -9.951  -1.865 125.648  0.00  0.00    +0.000 HD
ENDBRANCH   8   9
ENDBRANCH   7   8
ENDBRANCH   1   7
TORSDOF 3
ENDMDL
MODEL 7
REMARK VINA RESULT:      -3.3      2.145      4.030
REMARK  Name = Histamine
REMARK  3 active torsions:
REMARK  status: ('A' for Active; 'I' for Inactive)
REMARK    1  A    between atoms: N_1  and  C_2
REMARK    2  A    between atoms: C_2  and  C_3
REMARK    3  A    between atoms: C_3  and  C_4
REMARK                            x       y       z     vdW  Elec       q    Type
REMARK                         _______ _______ _______ _____ _____    ______ ____
ROOT
ATOM      1  C   UNL     1     -10.335   7.363 129.876  0.00  0.00    +0.000 A 
ATOM      2  C   UNL     1     -11.709   7.344 129.781  0.00  0.00    +0.000 A 
ATOM      3  N   UNL     1     -12.005   8.079 128.668  0.00  0.00    +0.000 N 
ATOM      4  C   UNL     1     -10.823   8.502 128.130  0.00  0.00    +0.000 A 
ATOM      5  N   UNL     1      -9.796   8.087 128.837  0.00  0.00    +0.000 NA
ATOM      6  H   UNL     1     -12.927   8.275 128.307  0.00  0.00    +0.000 HD
ENDROOT
BRANCH   1   7
ATOM      7  C   UNL     1      -9.476   6.733 130.914  0.00  0.00    +0.000 C 
BRANCH   7   8
ATOM      8  C   UNL     1     -10.305   6.141 132.056  0.00  0.00    +0.000 C 
BRANCH   8   9
ATOM      9  N   UNL     1     -10.315   4.676 132.000  0.00  0.00    +0.000 NA
ATOM     10  H   UNL     1      -9.764   4.374 131.199  0.00  0.00    +0.000 HD
ATOM     11  H   UNL     1     -11.268   4.358 131.825  0.00  0.00    +0.000 HD
ENDBRANCH   8   9
ENDBRANCH   7   8
ENDBRANCH   1   7
TORSDOF 3
ENDMDL
MODEL 8
REMARK VINA RESULT:      -3.2      2.297      2.880
REMARK  Name = Histamine
REMARK  3 active torsions:
REMARK  status: ('A' for Active; 'I' for Inactive)
REMARK    1  A    between atoms: N_1  and  C_2
REMARK    2  A    between atoms: C_2  and  C_3
REMARK    3  A    between atoms: C_3  and  C_4
REMARK                            x       y       z     vdW  Elec       q    Type
REMARK                         _______ _______ _______ _____ _____    ______ ____
ROOT
ATOM      1  C   UNL     1      -9.729   6.959 130.600  0.00  0.00    +0.000 A 
ATOM      2  C   UNL     1      -8.429   6.792 131.028  0.00  0.00    +0.000 A 
ATOM      3  N   UNL     1      -8.524   6.135 132.222  0.00  0.00    +0.000 N 
ATOM      4  C   UNL     1      -9.851   5.921 132.468  0.00  0.00    +0.000 A 
ATOM      5  N   UNL     1     -10.604   6.408 131.508  0.00  0.00    +0.000 NA
ATOM      6  H   UNL     1      -7.757   5.857 132.816  0.00  0.00    +0.000 HD
ENDROOT
BRANCH   1   7
ATOM      7  C   UNL     1     -10.209   7.630 129.362  0.00  0.00    +0.000 C 
BRANCH   7   8
ATOM      8  C   UNL     1     -11.731   7.553 129.227  0.00  0.00    +0.000 C 
BRANCH   8   9
ATOM      9  N   UNL     1     -12.160   6.213 128.814  0.00  0.00    +0.000 NA
ATOM     10  H   UNL     1     -12.671   5.780 129.581  0.00  0.00    +0.000 HD
ATOM     11  H   UNL     1     -11.334   5.633 128.661  0.00  0.00    +0.000 HD
ENDBRANCH   8   9
ENDBRANCH   7   8
ENDBRANCH   1   7
TORSDOF 3
ENDMDL
MODEL 9
REMARK VINA RESULT:      -3.1      9.347     10.144
REMARK  Name = Histamine
REMARK  3 active torsions:
REMARK  status: ('A' for Active; 'I' for Inactive)
REMARK    1  A    between atoms: N_1  and  C_2
REMARK    2  A    between atoms: C_2  and  C_3
REMARK    3  A    between atoms: C_3  and  C_4
REMARK                            x       y       z     vdW  Elec       q    Type
REMARK                         _______ _______ _______ _____ _____    ______ ____
ROOT
ATOM      1  C   UNL     1      -8.631  -1.010 123.592  0.00  0.00    +0.000 A 
ATOM      2  C   UNL     1      -7.597  -1.836 123.976  0.00  0.00    +0.000 A 
ATOM      3  N   UNL     1      -8.083  -3.107 123.849  0.00  0.00    +0.000 N 
ATOM      4  C   UNL     1      -9.366  -3.011 123.391  0.00  0.00    +0.000 A 
ATOM      5  N   UNL     1      -9.727  -1.758 123.227  0.00  0.00    +0.000 NA
ATOM      6  H   UNL     1      -7.587  -3.962 124.054  0.00  0.00    +0.000 HD
ENDROOT
BRANCH   1   7
ATOM      7  C   UNL     1      -8.654   0.476 123.555  0.00  0.00    +0.000 C 
BRANCH   7   8
ATOM      8  C   UNL     1      -9.630   1.057 124.580  0.00  0.00    +0.000 C 
BRANCH   8   9
ATOM      9  N   UNL     1     -10.955   1.269 123.989  0.00  0.00    +0.000 NA
ATOM     10  H   UNL     1     -10.842   1.529 123.012  0.00  0.00    +0.000 HD
ATOM     11  H   UNL     1     -11.397   2.068 124.445  0.00  0.00    +0.000 HD
ENDBRANCH   8   9
ENDBRANCH   7   8
ENDBRANCH   1   7
TORSDOF 3
ENDMDL
