MODEL 1
REMARK VINA RESULT:      -7.3      0.000      0.000
REMARK  Name = Homatropine
REMARK  6 active torsions:
REMARK  status: ('A' for Active; 'I' for Inactive)
REMARK    1  A    between atoms: C_8  and  O_10
REMARK    2  A    between atoms: O_10  and  C_11
REMARK    3  A    between atoms: C_11  and  C_13
REMARK    4  A    between atoms: C_13  and  O_14
REMARK    5  A    between atoms: C_13  and  C_15
REMARK    6  A    between atoms: N_21  and  C_22
REMARK                            x       y       z     vdW  Elec       q    Type
REMARK                         _______ _______ _______ _____ _____    ______ ____
ROOT
ATOM      1  C   UNL     1      -9.980   0.714 123.285  0.00  0.00    +0.000 C 
ATOM      2  O   UNL     1     -10.790   0.398 122.413  0.00  0.00    +0.000 OA
ENDROOT
BRANCH   1   3
ATOM      3  O   UNL     1      -9.356  -0.209 124.064  0.00  0.00    +0.000 OA
BRANCH   3   9
ATOM      4  C   UNL     1      -8.410  -3.270 124.210  0.00  0.00    +0.000 C 
ATOM      5  C   UNL     1      -9.334  -2.832 125.354  0.00  0.00    +0.000 C 
ATOM      6  C   UNL     1      -8.445  -1.945 126.242  0.00  0.00    +0.000 C 
ATOM      7  C   UNL     1      -7.092  -1.907 125.515  0.00  0.00    +0.000 C 
ATOM      8  C   UNL     1      -7.036  -0.760 124.481  0.00  0.00    +0.000 C 
ATOM      9  C   UNL     1      -8.187  -0.825 123.460  0.00  0.00    +0.000 C 
ATOM     10  C   UNL     1      -8.436  -2.290 123.030  0.00  0.00    +0.000 C 
ATOM     11  N   UNL     1      -7.120  -3.237 124.896  0.00  0.00    +0.000 NA
ATOM     12  C   UNL     1      -5.979  -3.605 124.081  0.00  0.00    +0.000 C 
ENDBRANCH   3   9
ENDBRANCH   1   3
BRANCH   1  13
ATOM     13  C   UNL     1      -9.555   2.172 123.603  0.00  0.00    +0.000 C 
BRANCH  13  14
ATOM     14  C   UNL     1      -8.476   2.640 122.632  0.00  0.00    +0.000 A 
ATOM     15  C   UNL     1      -7.115   2.617 122.966  0.00  0.00    +0.000 A 
ATOM     16  C   UNL     1      -6.185   3.259 122.139  0.00  0.00    +0.000 A 
ATOM     17  C   UNL     1      -6.592   3.867 120.950  0.00  0.00    +0.000 A 
ATOM     18  C   UNL     1      -7.928   3.846 120.582  0.00  0.00    +0.000 A 
ATOM     19  C   UNL     1      -8.851   3.208 121.399  0.00  0.00    +0.000 A 
ENDBRANCH  13  14
BRANCH  13  20
ATOM     20  O   UNL     1      -9.076   2.316 124.934  0.00  0.00    +0.000 OA
ATOM     21  H   UNL     1      -9.150   1.439 125.345  0.00  0.00    +0.000 HD
ENDBRANCH  13  20
ENDBRANCH   1  13
TORSDOF 5
ENDMDL
MODEL 2
REMARK VINA RESULT:      -7.3      1.604      2.673
REMARK  Name = Homatropine
REMARK  6 active torsions:
REMARK  status: ('A' for Active; 'I' for Inactive)
REMARK    1  A    between atoms: C_8  and  O_10
REMARK    2  A    between atoms: O_10  and  C_11
REMARK    3  A    between atoms: C_11  and  C_13
REMARK    4  A    between atoms: C_13  and  O_14
REMARK    5  A    between atoms: C_13  and  C_15
REMARK    6  A    between atoms: N_21  and  C_22
REMARK                            x       y       z     vdW  Elec       q    Type
REMARK                         _______ _______ _______ _____ _____    ______ ____
ROOT
ATOM      1  C   UNL     1      -6.842   2.067 124.318  0.00  0.00    +0.000 C 
ATOM      2  O   UNL     1      -6.007   2.442 125.142  0.00  0.00    +0.000 OA
ENDROOT
BRANCH   1   3
ATOM      3  O   UNL     1      -6.892   0.786 123.867  0.00  0.00    +0.000 OA
BRANCH   3   9
ATOM      4  C   UNL     1      -7.024  -2.263 124.854  0.00  0.00    +0.000 C 
ATOM      5  C   UNL     1      -5.820  -1.932 123.962  0.00  0.00    +0.000 C 
ATOM      6  C   UNL     1      -6.419  -1.790 122.553  0.00  0.00    +0.000 C 
ATOM      7  C   UNL     1      -7.927  -2.007 122.752  0.00  0.00    +0.000 C 
ATOM      8  C   UNL     1      -8.650  -0.683 123.087  0.00  0.00    +0.000 C 
ATOM      9  C   UNL     1      -8.049   0.028 124.313  0.00  0.00    +0.000 C 
ATOM     10  C   UNL     1      -7.702  -1.004 125.412  0.00  0.00    +0.000 C 
ATOM     11  N   UNL     1      -7.883  -2.939 123.884  0.00  0.00    +0.000 NA
ATOM     12  C   UNL     1      -9.156  -3.401 124.404  0.00  0.00    +0.000 C 
ENDBRANCH   3   9
ENDBRANCH   1   3
BRANCH   1  13
ATOM     13  C   UNL     1      -7.939   2.977 123.703  0.00  0.00    +0.000 C 
BRANCH  13  14
ATOM     14  C   UNL     1      -7.620   3.291 122.245  0.00  0.00    +0.000 A 
ATOM     15  C   UNL     1      -6.311   3.527 121.805  0.00  0.00    +0.000 A 
ATOM     16  C   UNL     1      -6.090   4.029 120.517  0.00  0.00    +0.000 A 
ATOM     17  C   UNL     1      -7.158   4.234 119.641  0.00  0.00    +0.000 A 
ATOM     18  C   UNL     1      -8.452   3.948 120.047  0.00  0.00    +0.000 A 
ATOM     19  C   UNL     1      -8.673   3.449 121.323  0.00  0.00    +0.000 A 
ENDBRANCH  13  14
BRANCH  13  20
ATOM     20  O   UNL     1      -8.091   4.196 124.417  0.00  0.00    +0.000 OA
ATOM     21  H   UNL     1      -7.925   3.986 125.352  0.00  0.00    +0.000 HD
ENDBRANCH  13  20
ENDBRANCH   1  13
TORSDOF 5
ENDMDL
MODEL 3
REMARK VINA RESULT:      -7.0      2.358      6.051
REMARK  Name = Homatropine
REMARK  6 active torsions:
REMARK  status: ('A' for Active; 'I' for Inactive)
REMARK    1  A    between atoms: C_8  and  O_10
REMARK    2  A    between atoms: O_10  and  C_11
REMARK    3  A    between atoms: C_11  and  C_13
REMARK    4  A    between atoms: C_13  and  O_14
REMARK    5  A    between atoms: C_13  and  C_15
REMARK    6  A    between atoms: N_21  and  C_22
REMARK                            x       y       z     vdW  Elec       q    Type
REMARK                         _______ _______ _______ _____ _____    ______ ____
ROOT
ATOM      1  C   UNL     1      -9.247  -2.937 123.973  0.00  0.00    +0.000 C 
ATOM      2  O   UNL     1     -10.056  -3.477 123.216  0.00  0.00    +0.000 OA
ENDROOT
BRANCH   1   3
ATOM      3  O   UNL     1      -9.290  -1.608 124.250  0.00  0.00    +0.000 OA
BRANCH   3   9
ATOM      4  C   UNL     1      -7.728   1.184 124.481  0.00  0.00    +0.000 C 
ATOM      5  C   UNL     1      -8.550   0.808 125.721  0.00  0.00    +0.000 C 
ATOM      6  C   UNL     1     -10.009   1.035 125.293  0.00  0.00    +0.000 C 
ATOM      7  C   UNL     1      -9.915   1.482 123.826  0.00  0.00    +0.000 C 
ATOM      8  C   UNL     1      -9.923   0.272 122.864  0.00  0.00    +0.000 C 
ATOM      9  C   UNL     1      -8.814  -0.746 123.182  0.00  0.00    +0.000 C 
ATOM     10  C   UNL     1      -7.501  -0.011 123.545  0.00  0.00    +0.000 C 
ATOM     11  N   UNL     1      -8.619   2.169 123.872  0.00  0.00    +0.000 NA
ATOM     12  C   UNL     1      -8.141   2.752 122.633  0.00  0.00    +0.000 C 
ENDBRANCH   3   9
ENDBRANCH   1   3
BRANCH   1  13
ATOM     13  C   UNL     1      -8.101  -3.680 124.710  0.00  0.00    +0.000 C 
BRANCH  13  14
ATOM     14  C   UNL     1      -8.011  -3.222 126.161  0.00  0.00    +0.000 A 
ATOM     15  C   UNL     1      -6.992  -2.371 126.610  0.00  0.00    +0.000 A 
ATOM     16  C   UNL     1      -6.818  -2.158 127.983  0.00  0.00    +0.000 A 
ATOM     17  C   UNL     1      -7.692  -2.733 128.908  0.00  0.00    +0.000 A 
ATOM     18  C   UNL     1      -8.739  -3.531 128.470  0.00  0.00    +0.000 A 
ATOM     19  C   UNL     1      -8.914  -3.741 127.110  0.00  0.00    +0.000 A 
ENDBRANCH  13  14
BRANCH  13  20
ATOM     20  O   UNL     1      -6.841  -3.485 124.082  0.00  0.00    +0.000 OA
ATOM     21  H   UNL     1      -7.011  -2.944 123.293  0.00  0.00    +0.000 HD
ENDBRANCH  13  20
ENDBRANCH   1  13
TORSDOF 5
ENDMDL
MODEL 4
REMARK VINA RESULT:      -7.0      8.574      9.612
REMARK  Name = Homatropine
REMARK  6 active torsions:
REMARK  status: ('A' for Active; 'I' for Inactive)
REMARK    1  A    between atoms: C_8  and  O_10
REMARK    2  A    between atoms: O_10  and  C_11
REMARK    3  A    between atoms: C_11  and  C_13
REMARK    4  A    between atoms: C_13  and  O_14
REMARK    5  A    between atoms: C_13  and  C_15
REMARK    6  A    between atoms: N_21  and  C_22
REMARK                            x       y       z     vdW  Elec       q    Type
REMARK                         _______ _______ _______ _____ _____    ______ ____
ROOT
ATOM      1  C   UNL     1     -10.445   5.559 130.060  0.00  0.00    +0.000 C 
ATOM      2  O   UNL     1     -10.040   5.854 128.934  0.00  0.00    +0.000 OA
ENDROOT
BRANCH   1   3
ATOM      3  O   UNL     1      -9.622   5.057 131.018  0.00  0.00    +0.000 OA
BRANCH   3   9
ATOM      4  C   UNL     1      -9.311   2.568 133.017  0.00  0.00    +0.000 C 
ATOM      5  C   UNL     1      -9.371   3.937 133.707  0.00  0.00    +0.000 C 
ATOM      6  C   UNL     1      -8.002   4.572 133.412  0.00  0.00    +0.000 C 
ATOM      7  C   UNL     1      -7.278   3.536 132.537  0.00  0.00    +0.000 C 
ATOM      8  C   UNL     1      -7.589   3.744 131.038  0.00  0.00    +0.000 C 
ATOM      9  C   UNL     1      -9.099   3.731 130.738  0.00  0.00    +0.000 C 
ATOM     10  C   UNL     1      -9.798   2.624 131.562  0.00  0.00    +0.000 C 
ATOM     11  N   UNL     1      -7.874   2.311 133.082  0.00  0.00    +0.000 NA
ATOM     12  C   UNL     1      -7.444   1.056 132.497  0.00  0.00    +0.000 C 
ENDBRANCH   3   9
ENDBRANCH   1   3
BRANCH   1  13
ATOM     13  C   UNL     1     -11.912   5.728 130.539  0.00  0.00    +0.000 C 
BRANCH  13  14
ATOM     14  C   UNL     1     -12.588   6.879 129.800  0.00  0.00    +0.000 A 
ATOM     15  C   UNL     1     -13.303   6.681 128.612  0.00  0.00    +0.000 A 
ATOM     16  C   UNL     1     -13.713   7.785 127.855  0.00  0.00    +0.000 A 
ATOM     17  C   UNL     1     -13.473   9.084 128.306  0.00  0.00    +0.000 A 
ATOM     18  C   UNL     1     -12.817   9.291 129.509  0.00  0.00    +0.000 A 
ATOM     19  C   UNL     1     -12.411   8.198 130.262  0.00  0.00    +0.000 A 
ENDBRANCH  13  14
BRANCH  13  20
ATOM     20  O   UNL     1     -11.999   5.960 131.938  0.00  0.00    +0.000 OA
ATOM     21  H   UNL     1     -11.230   6.508 132.171  0.00  0.00    +0.000 HD
ENDBRANCH  13  20
ENDBRANCH   1  13
TORSDOF 5
ENDMDL
MODEL 5
REMARK VINA RESULT:      -6.9      8.499     10.910
REMARK  Name = Homatropine
REMARK  6 active torsions:
REMARK  status: ('A' for Active; 'I' for Inactive)
REMARK    1  A    between atoms: C_8  and  O_10
REMARK    2  A    between atoms: O_10  and  C_11
REMARK    3  A    between atoms: C_11  and  C_13
REMARK    4  A    between atoms: C_13  and  O_14
REMARK    5  A    between atoms: C_13  and  C_15
REMARK    6  A    between atoms: N_21  and  C_22
REMARK                            x       y       z     vdW  Elec       q    Type
REMARK                         _______ _______ _______ _____ _____    ______ ____
ROOT
ATOM      1  C   UNL     1     -10.514   4.472 129.823  0.00  0.00    +0.000 C 
ATOM      2  O   UNL     1     -11.344   3.664 130.244  0.00  0.00    +0.000 OA
ENDROOT
BRANCH   1   3
ATOM      3  O   UNL     1     -10.871   5.575 129.114  0.00  0.00    +0.000 OA
BRANCH   3   9
ATOM      4  C   UNL     1     -13.262   7.597 128.420  0.00  0.00    +0.000 C 
ATOM      5  C   UNL     1     -12.610   6.935 127.198  0.00  0.00    +0.000 C 
ATOM      6  C   UNL     1     -11.248   7.638 127.067  0.00  0.00    +0.000 C 
ATOM      7  C   UNL     1     -11.206   8.618 128.251  0.00  0.00    +0.000 C 
ATOM      8  C   UNL     1     -10.629   7.949 129.519  0.00  0.00    +0.000 C 
ATOM      9  C   UNL     1     -11.391   6.671 129.914  0.00  0.00    +0.000 C 
ATOM     10  C   UNL     1     -12.913   6.878 129.730  0.00  0.00    +0.000 C 
ATOM     11  N   UNL     1     -12.638   8.917 128.360  0.00  0.00    +0.000 NA
ATOM     12  C   UNL     1     -13.039   9.836 129.408  0.00  0.00    +0.000 C 
ENDBRANCH   3   9
ENDBRANCH   1   3
BRANCH   1  13
ATOM     13  C   UNL     1      -8.982   4.356 130.047  0.00  0.00    +0.000 C 
BRANCH  13  14
ATOM     14  C   UNL     1      -8.652   4.412 131.535  0.00  0.00    +0.000 A 
ATOM     15  C   UNL     1      -8.548   3.254 132.317  0.00  0.00    +0.000 A 
ATOM     16  C   UNL     1      -8.467   3.360 133.710  0.00  0.00    +0.000 A 
ATOM     17  C   UNL     1      -8.423   4.613 134.326  0.00  0.00    +0.000 A 
ATOM     18  C   UNL     1      -8.467   5.765 133.557  0.00  0.00    +0.000 A 
ATOM     19  C   UNL     1      -8.545   5.662 132.175  0.00  0.00    +0.000 A 
ENDBRANCH  13  14
BRANCH  13  20
ATOM     20  O   UNL     1      -8.260   5.378 129.373  0.00  0.00    +0.000 OA
ATOM     21  H   UNL     1      -8.356   5.197 128.423  0.00  0.00    +0.000 HD
ENDBRANCH  13  20
ENDBRANCH   1  13
TORSDOF 5
ENDMDL
MODEL 6
REMARK VINA RESULT:      -6.7      9.003     10.132
REMARK  Name = Homatropine
REMARK  6 active torsions:
REMARK  status: ('A' for Active; 'I' for Inactive)
REMARK    1  A    between atoms: C_8  and  O_10
REMARK    2  A    between atoms: O_10  and  C_11
REMARK    3  A    between atoms: C_11  and  C_13
REMARK    4  A    between atoms: C_13  and  O_14
REMARK    5  A    between atoms: C_13  and  C_15
REMARK    6  A    between atoms: N_21  and  C_22
REMARK                            x       y       z     vdW  Elec       q    Type
REMARK                         _______ _______ _______ _____ _____    ______ ____
ROOT
ATOM      1  C   UNL     1     -10.292   5.398 130.368  0.00  0.00    +0.000 C 
ATOM      2  O   UNL     1      -9.802   5.294 129.242  0.00  0.00    +0.000 OA
ENDROOT
BRANCH   1   3
ATOM      3  O   UNL     1      -9.549   5.261 131.498  0.00  0.00    +0.000 OA
BRANCH   3   9
ATOM      4  C   UNL     1      -8.335   4.079 134.221  0.00  0.00    +0.000 C 
ATOM      5  C   UNL     1      -8.179   5.597 134.058  0.00  0.00    +0.000 C 
ATOM      6  C   UNL     1      -7.079   5.754 132.996  0.00  0.00    +0.000 C 
ATOM      7  C   UNL     1      -6.720   4.314 132.598  0.00  0.00    +0.000 C 
ATOM      8  C   UNL     1      -7.619   3.802 131.451  0.00  0.00    +0.000 C 
ATOM      9  C   UNL     1      -9.119   3.903 131.783  0.00  0.00    +0.000 C 
ATOM     10  C   UNL     1      -9.370   3.490 133.253  0.00  0.00    +0.000 C 
ATOM     11  N   UNL     1      -6.983   3.645 133.877  0.00  0.00    +0.000 NA
ATOM     12  C   UNL     1      -6.765   2.211 133.925  0.00  0.00    +0.000 C 
ENDBRANCH   3   9
ENDBRANCH   1   3
BRANCH   1  13
ATOM     13  C   UNL     1     -11.786   5.708 130.650  0.00  0.00    +0.000 C 
BRANCH  13  14
ATOM     14  C   UNL     1     -12.280   6.835 129.749  0.00  0.00    +0.000 A 
ATOM     15  C   UNL     1     -12.064   8.184 130.059  0.00  0.00    +0.000 A 
ATOM     16  C   UNL     1     -12.722   9.180 129.329  0.00  0.00    +0.000 A 
ATOM     17  C   UNL     1     -13.543   8.846 128.250  0.00  0.00    +0.000 A 
ATOM     18  C   UNL     1     -13.718   7.516 127.898  0.00  0.00    +0.000 A 
ATOM     19  C   UNL     1     -13.064   6.527 128.620  0.00  0.00    +0.000 A 
ENDBRANCH  13  14
BRANCH  13  20
ATOM     20  O   UNL     1     -12.016   6.065 132.007  0.00  0.00    +0.000 OA
ATOM     21  H   UNL     1     -11.472   5.462 132.542  0.00  0.00    +0.000 HD
ENDBRANCH  13  20
ENDBRANCH   1  13
TORSDOF 5
ENDMDL
MODEL 7
REMARK VINA RESULT:      -6.6      7.830      9.151
REMARK  Name = Homatropine
REMARK  6 active torsions:
REMARK  status: ('A' for Active; 'I' for Inactive)
REMARK    1  A    between atoms: C_8  and  O_10
REMARK    2  A    between atoms: O_10  and  C_11
REMARK    3  A    between atoms: C_11  and  C_13
REMARK    4  A    between atoms: C_13  and  O_14
REMARK    5  A    between atoms: C_13  and  C_15
REMARK    6  A    between atoms: N_21  and  C_22
REMARK                            x       y       z     vdW  Elec       q    Type
REMARK                         _______ _______ _______ _____ _____    ______ ____
ROOT
ATOM      1  C   UNL     1      -8.894   5.156 129.736  0.00  0.00    +0.000 C 
ATOM      2  O   UNL     1      -8.642   5.066 128.534  0.00  0.00    +0.000 OA
ENDROOT
BRANCH   1   3
ATOM      3  O   UNL     1      -8.982   4.066 130.542  0.00  0.00    +0.000 OA
BRANCH   3   9
ATOM      4  C   UNL     1      -8.487   1.185 131.864  0.00  0.00    +0.000 C 
ATOM      5  C   UNL     1      -9.828   1.835 132.232  0.00  0.00    +0.000 C 
ATOM      6  C   UNL     1      -9.450   2.956 133.214  0.00  0.00    +0.000 C 
ATOM      7  C   UNL     1      -7.917   2.892 133.300  0.00  0.00    +0.000 C 
ATOM      8  C   UNL     1      -7.252   3.758 132.207  0.00  0.00    +0.000 C 
ATOM      9  C   UNL     1      -7.721   3.387 130.789  0.00  0.00    +0.000 C 
ATOM     10  C   UNL     1      -7.830   1.850 130.647  0.00  0.00    +0.000 C 
ATOM     11  N   UNL     1      -7.730   1.452 133.085  0.00  0.00    +0.000 NA
ATOM     12  C   UNL     1      -6.365   0.961 133.084  0.00  0.00    +0.000 C 
ENDBRANCH   3   9
ENDBRANCH   1   3
BRANCH   1  13
ATOM     13  C   UNL     1      -9.127   6.494 130.487  0.00  0.00    +0.000 C 
BRANCH  13  14
ATOM     14  C   UNL     1     -10.441   7.133 130.049  0.00  0.00    +0.000 A 
ATOM     15  C   UNL     1     -10.521   7.981 128.937  0.00  0.00    +0.000 A 
ATOM     16  C   UNL     1     -11.689   8.718 128.706  0.00  0.00    +0.000 A 
ATOM     17  C   UNL     1     -12.801   8.566 129.536  0.00  0.00    +0.000 A 
ATOM     18  C   UNL     1     -12.752   7.685 130.606  0.00  0.00    +0.000 A 
ATOM     19  C   UNL     1     -11.596   6.952 130.836  0.00  0.00    +0.000 A 
ENDBRANCH  13  14
BRANCH  13  20
ATOM     20  O   UNL     1      -8.069   7.420 130.280  0.00  0.00    +0.000 OA
ATOM     21  H   UNL     1      -8.134   8.072 130.998  0.00  0.00    +0.000 HD
ENDBRANCH  13  20
ENDBRANCH   1  13
TORSDOF 5
ENDMDL
MODEL 8
REMARK VINA RESULT:      -6.5      2.433      5.120
REMARK  Name = Homatropine
REMARK  6 active torsions:
REMARK  status: ('A' for Active; 'I' for Inactive)
REMARK    1  A    between atoms: C_8  and  O_10
REMARK    2  A    between atoms: O_10  and  C_11
REMARK    3  A    between atoms: C_11  and  C_13
REMARK    4  A    between atoms: C_13  and  O_14
REMARK    5  A    between atoms: C_13  and  C_15
REMARK    6  A    between atoms: N_21  and  C_22
REMARK                            x       y       z     vdW  Elec       q    Type
REMARK                         _______ _______ _______ _____ _____    ______ ____
ROOT
ATOM      1  C   UNL     1      -9.550  -0.843 123.461  0.00  0.00    +0.000 C 
ATOM      2  O   UNL     1     -10.164  -0.563 122.430  0.00  0.00    +0.000 OA
ENDROOT
BRANCH   1   3
ATOM      3  O   UNL     1      -9.094   0.112 124.314  0.00  0.00    +0.000 OA
BRANCH   3   9
ATOM      4  C   UNL     1      -6.333   1.636 124.898  0.00  0.00    +0.000 C 
ATOM      5  C   UNL     1      -6.849   0.781 126.063  0.00  0.00    +0.000 C 
ATOM      6  C   UNL     1      -8.039   1.579 126.621  0.00  0.00    +0.000 C 
ATOM      7  C   UNL     1      -8.142   2.808 125.705  0.00  0.00    +0.000 C 
ATOM      8  C   UNL     1      -9.034   2.526 124.475  0.00  0.00    +0.000 C 
ATOM      9  C   UNL     1      -8.562   1.301 123.671  0.00  0.00    +0.000 C 
ATOM     10  C   UNL     1      -7.018   1.289 123.570  0.00  0.00    +0.000 C 
ATOM     11  N   UNL     1      -6.724   2.965 125.363  0.00  0.00    +0.000 NA
ATOM     12  C   UNL     1      -6.381   4.056 124.471  0.00  0.00    +0.000 C 
ENDBRANCH   3   9
ENDBRANCH   1   3
BRANCH   1  13
ATOM     13  C   UNL     1      -9.229  -2.287 123.928  0.00  0.00    +0.000 C 
BRANCH  13  14
ATOM     14  C   UNL     1      -7.767  -2.626 123.659  0.00  0.00    +0.000 A 
ATOM     15  C   UNL     1      -6.993  -3.356 124.571  0.00  0.00    +0.000 A 
ATOM     16  C   UNL     1      -5.608  -3.450 124.389  0.00  0.00    +0.000 A 
ATOM     17  C   UNL     1      -4.997  -2.879 123.270  0.00  0.00    +0.000 A 
ATOM     18  C   UNL     1      -5.763  -2.204 122.332  0.00  0.00    +0.000 A 
ATOM     19  C   UNL     1      -7.136  -2.111 122.509  0.00  0.00    +0.000 A 
ENDBRANCH  13  14
BRANCH  13  20
ATOM     20  O   UNL     1     -10.054  -3.255 123.294  0.00  0.00    +0.000 OA
ATOM     21  H   UNL     1      -9.461  -3.810 122.761  0.00  0.00    +0.000 HD
ENDBRANCH  13  20
ENDBRANCH   1  13
TORSDOF 5
ENDMDL
MODEL 9
REMARK VINA RESULT:      -6.5      8.716      9.940
REMARK  Name = Homatropine
REMARK  6 active torsions:
REMARK  status: ('A' for Active; 'I' for Inactive)
REMARK    1  A    between atoms: C_8  and  O_10
REMARK    2  A    between atoms: O_10  and  C_11
REMARK    3  A    between atoms: C_11  and  C_13
REMARK    4  A    between atoms: C_13  and  O_14
REMARK    5  A    between atoms: C_13  and  C_15
REMARK    6  A    between atoms: N_21  and  C_22
REMARK                            x       y       z     vdW  Elec       q    Type
REMARK                         _______ _______ _______ _____ _____    ______ ____
ROOT
ATOM      1  C   UNL     1     -10.090   4.673 130.297  0.00  0.00    +0.000 C 
ATOM      2  O   UNL     1     -10.993   3.928 129.914  0.00  0.00    +0.000 OA
ENDROOT
BRANCH   1   3
ATOM      3  O   UNL     1      -9.423   4.465 131.462  0.00  0.00    +0.000 OA
BRANCH   3   9
ATOM      4  C   UNL     1      -6.782   3.385 132.926  0.00  0.00    +0.000 C 
ATOM      5  C   UNL     1      -8.095   2.812 133.475  0.00  0.00    +0.000 C 
ATOM      6  C   UNL     1      -8.717   3.975 134.264  0.00  0.00    +0.000 C 
ATOM      7  C   UNL     1      -7.734   5.140 134.071  0.00  0.00    +0.000 C 
ATOM      8  C   UNL     1      -8.063   5.955 132.800  0.00  0.00    +0.000 C 
ATOM      9  C   UNL     1      -8.110   5.083 131.532  0.00  0.00    +0.000 C 
ATOM     10  C   UNL     1      -6.961   4.047 131.554  0.00  0.00    +0.000 C 
ATOM     11  N   UNL     1      -6.486   4.378 133.957  0.00  0.00    +0.000 NA
ATOM     12  C   UNL     1      -5.268   5.138 133.749  0.00  0.00    +0.000 C 
ENDBRANCH   3   9
ENDBRANCH   1   3
BRANCH   1  13
ATOM     13  C   UNL     1      -9.586   5.917 129.516  0.00  0.00    +0.000 C 
BRANCH  13  14
ATOM     14  C   UNL     1     -10.637   7.022 129.531  0.00  0.00    +0.000 A 
ATOM     15  C   UNL     1     -11.569   7.147 130.570  0.00  0.00    +0.000 A 
ATOM     16  C   UNL     1     -12.648   8.029 130.434  0.00  0.00    +0.000 A 
ATOM     17  C   UNL     1     -12.770   8.834 129.300  0.00  0.00    +0.000 A 
ATOM     18  C   UNL     1     -11.821   8.759 128.291  0.00  0.00    +0.000 A 
ATOM     19  C   UNL     1     -10.750   7.887 128.425  0.00  0.00    +0.000 A 
ENDBRANCH  13  14
BRANCH  13  20
ATOM     20  O   UNL     1      -9.256   5.609 128.168  0.00  0.00    +0.000 OA
ATOM     21  H   UNL     1      -8.464   5.046 128.204  0.00  0.00    +0.000 HD
ENDBRANCH  13  20
ENDBRANCH   1  13
TORSDOF 5
ENDMDL
