MODEL 1
REMARK VINA RESULT:      -7.4      0.000      0.000
REMARK  Name = Homosalate
REMARK  7 active torsions:
REMARK  status: ('A' for Active; 'I' for Inactive)
REMARK    1  A    between atoms: C_1  and  C_2
REMARK    2  A    between atoms: C_4  and  O_10
REMARK    3  A    between atoms: C_6  and  C_7
REMARK    4  A    between atoms: C_6  and  C_8
REMARK    5  A    between atoms: O_10  and  C_11
REMARK    6  A    between atoms: C_11  and  C_13
REMARK    7  A    between atoms: C_14  and  O_15
REMARK                            x       y       z     vdW  Elec       q    Type
REMARK                         _______ _______ _______ _____ _____    ______ ____
ROOT
ATOM      1  O   UNL     1      -9.118  -0.995 122.382  0.00  0.00    +0.000 OA
ENDROOT
BRANCH   1   5
ATOM      2  C   UNL     1      -8.510  -3.164 126.222  0.00  0.00    +0.000 C 
ATOM      3  C   UNL     1      -8.387  -3.834 124.849  0.00  0.00    +0.000 C 
ATOM      4  C   UNL     1      -9.127  -3.024 123.762  0.00  0.00    +0.000 C 
ATOM      5  C   UNL     1      -8.390  -1.716 123.405  0.00  0.00    +0.000 C 
ATOM      6  C   UNL     1      -6.964  -2.059 122.951  0.00  0.00    +0.000 C 
ATOM      7  C   UNL     1      -6.156  -2.800 124.029  0.00  0.00    +0.000 C 
ATOM      8  C   UNL     1      -5.861  -1.877 125.227  0.00  0.00    +0.000 C 
ATOM      9  C   UNL     1      -4.780  -3.152 123.443  0.00  0.00    +0.000 C 
ATOM     10  C   UNL     1      -6.924  -4.084 124.419  0.00  0.00    +0.000 C 
ENDBRANCH   1   5
BRANCH   1  11
ATOM     11  C   UNL     1      -9.811   0.101 122.818  0.00  0.00    +0.000 C 
ATOM     12  O   UNL     1     -10.940   0.430 122.512  0.00  0.00    +0.000 OA
BRANCH  11  13
ATOM     13  C   UNL     1      -8.993   0.904 123.745  0.00  0.00    +0.000 A 
ATOM     14  C   UNL     1      -9.267   0.956 125.112  0.00  0.00    +0.000 A 
ATOM     15  C   UNL     1      -8.408   1.644 125.967  0.00  0.00    +0.000 A 
ATOM     16  C   UNL     1      -7.267   2.271 125.464  0.00  0.00    +0.000 A 
ATOM     17  C   UNL     1      -6.979   2.212 124.101  0.00  0.00    +0.000 A 
ATOM     18  C   UNL     1      -7.839   1.527 123.240  0.00  0.00    +0.000 A 
BRANCH  14  19
ATOM     19  O   UNL     1     -10.325   0.322 125.703  0.00  0.00    +0.000 OA
ATOM     20  H   UNL     1     -10.517  -0.500 125.217  0.00  0.00    +0.000 HD
ENDBRANCH  14  19
ENDBRANCH  11  13
ENDBRANCH   1  11
TORSDOF 4
ENDMDL
MODEL 2
REMARK VINA RESULT:      -7.3      2.580      4.012
REMARK  Name = Homosalate
REMARK  7 active torsions:
REMARK  status: ('A' for Active; 'I' for Inactive)
REMARK    1  A    between atoms: C_1  and  C_2
REMARK    2  A    between atoms: C_4  and  O_10
REMARK    3  A    between atoms: C_6  and  C_7
REMARK    4  A    between atoms: C_6  and  C_8
REMARK    5  A    between atoms: O_10  and  C_11
REMARK    6  A    between atoms: C_11  and  C_13
REMARK    7  A    between atoms: C_14  and  O_15
REMARK                            x       y       z     vdW  Elec       q    Type
REMARK                         _______ _______ _______ _____ _____    ______ ____
ROOT
ATOM      1  O   UNL     1      -9.019   1.694 122.844  0.00  0.00    +0.000 OA
ENDROOT
BRANCH   1   5
ATOM      2  C   UNL     1      -7.054  -0.422 126.233  0.00  0.00    +0.000 C 
ATOM      3  C   UNL     1      -8.569  -0.432 126.000  0.00  0.00    +0.000 C 
ATOM      4  C   UNL     1      -9.007   0.752 125.110  0.00  0.00    +0.000 C 
ATOM      5  C   UNL     1      -8.584   0.564 123.638  0.00  0.00    +0.000 C 
ATOM      6  C   UNL     1      -9.174  -0.755 123.118  0.00  0.00    +0.000 C 
ATOM      7  C   UNL     1      -8.707  -1.978 123.924  0.00  0.00    +0.000 C 
ATOM      8  C   UNL     1      -7.201  -2.233 123.712  0.00  0.00    +0.000 C 
ATOM      9  C   UNL     1      -9.410  -3.223 123.363  0.00  0.00    +0.000 C 
ATOM     10  C   UNL     1      -9.088  -1.761 125.406  0.00  0.00    +0.000 C 
ENDBRANCH   1   5
BRANCH   1  11
ATOM     11  C   UNL     1      -8.447   2.894 123.171  0.00  0.00    +0.000 C 
ATOM     12  O   UNL     1      -8.663   3.567 124.159  0.00  0.00    +0.000 OA
BRANCH  11  13
ATOM     13  C   UNL     1      -7.496   3.323 122.131  0.00  0.00    +0.000 A 
ATOM     14  C   UNL     1      -7.917   3.673 120.847  0.00  0.00    +0.000 A 
ATOM     15  C   UNL     1      -6.997   4.173 119.927  0.00  0.00    +0.000 A 
ATOM     16  C   UNL     1      -5.659   4.337 120.287  0.00  0.00    +0.000 A 
ATOM     17  C   UNL     1      -5.233   4.003 121.572  0.00  0.00    +0.000 A 
ATOM     18  C   UNL     1      -6.150   3.498 122.497  0.00  0.00    +0.000 A 
BRANCH  14  19
ATOM     19  O   UNL     1      -9.215   3.605 120.425  0.00  0.00    +0.000 OA
ATOM     20  H   UNL     1      -9.355   4.254 119.714  0.00  0.00    +0.000 HD
ENDBRANCH  14  19
ENDBRANCH  11  13
ENDBRANCH   1  11
TORSDOF 4
ENDMDL
MODEL 3
REMARK VINA RESULT:      -7.1      8.353     10.245
REMARK  Name = Homosalate
REMARK  7 active torsions:
REMARK  status: ('A' for Active; 'I' for Inactive)
REMARK    1  A    between atoms: C_1  and  C_2
REMARK    2  A    between atoms: C_4  and  O_10
REMARK    3  A    between atoms: C_6  and  C_7
REMARK    4  A    between atoms: C_6  and  C_8
REMARK    5  A    between atoms: O_10  and  C_11
REMARK    6  A    between atoms: C_11  and  C_13
REMARK    7  A    between atoms: C_14  and  O_15
REMARK                            x       y       z     vdW  Elec       q    Type
REMARK                         _______ _______ _______ _____ _____    ______ ____
ROOT
ATOM      1  O   UNL     1     -10.064   6.748 131.461  0.00  0.00    +0.000 OA
ENDROOT
BRANCH   1   5
ATOM      2  C   UNL     1      -6.687   4.785 133.597  0.00  0.00    +0.000 C 
ATOM      3  C   UNL     1      -8.147   4.666 134.045  0.00  0.00    +0.000 C 
ATOM      4  C   UNL     1      -9.005   5.814 133.469  0.00  0.00    +0.000 C 
ATOM      5  C   UNL     1      -9.254   5.654 131.954  0.00  0.00    +0.000 C 
ATOM      6  C   UNL     1      -9.924   4.295 131.704  0.00  0.00    +0.000 C 
ATOM      7  C   UNL     1      -9.074   3.110 132.191  0.00  0.00    +0.000 C 
ATOM      8  C   UNL     1      -7.798   2.962 131.339  0.00  0.00    +0.000 C 
ATOM      9  C   UNL     1      -9.869   1.817 131.955  0.00  0.00    +0.000 C 
ATOM     10  C   UNL     1      -8.786   3.303 133.697  0.00  0.00    +0.000 C 
ENDBRANCH   1   5
BRANCH   1  11
ATOM     11  C   UNL     1      -9.647   7.300 130.281  0.00  0.00    +0.000 C 
ATOM     12  O   UNL     1      -8.512   7.604 129.970  0.00  0.00    +0.000 OA
BRANCH  11  13
ATOM     13  C   UNL     1     -10.785   7.517 129.371  0.00  0.00    +0.000 A 
ATOM     14  C   UNL     1     -10.756   7.090 128.042  0.00  0.00    +0.000 A 
ATOM     15  C   UNL     1     -11.893   7.222 127.245  0.00  0.00    +0.000 A 
ATOM     16  C   UNL     1     -13.064   7.767 127.774  0.00  0.00    +0.000 A 
ATOM     17  C   UNL     1     -13.104   8.183 129.104  0.00  0.00    +0.000 A 
ATOM     18  C   UNL     1     -11.967   8.056 129.906  0.00  0.00    +0.000 A 
BRANCH  14  19
ATOM     19  O   UNL     1      -9.677   6.490 127.456  0.00  0.00    +0.000 OA
ATOM     20  H   UNL     1      -9.978   5.716 126.947  0.00  0.00    +0.000 HD
ENDBRANCH  14  19
ENDBRANCH  11  13
ENDBRANCH   1  11
TORSDOF 4
ENDMDL
MODEL 4
REMARK VINA RESULT:      -7.0      6.556      8.641
REMARK  Name = Homosalate
REMARK  7 active torsions:
REMARK  status: ('A' for Active; 'I' for Inactive)
REMARK    1  A    between atoms: C_1  and  C_2
REMARK    2  A    between atoms: C_4  and  O_10
REMARK    3  A    between atoms: C_6  and  C_7
REMARK    4  A    between atoms: C_6  and  C_8
REMARK    5  A    between atoms: O_10  and  C_11
REMARK    6  A    between atoms: C_11  and  C_13
REMARK    7  A    between atoms: C_14  and  O_15
REMARK                            x       y       z     vdW  Elec       q    Type
REMARK                         _______ _______ _______ _____ _____    ______ ____
ROOT
ATOM      1  O   UNL     1     -10.209   4.447 129.701  0.00  0.00    +0.000 OA
ENDROOT
BRANCH   1   5
ATOM      2  C   UNL     1      -8.265   2.264 133.060  0.00  0.00    +0.000 C 
ATOM      3  C   UNL     1      -9.344   1.643 132.166  0.00  0.00    +0.000 C 
ATOM      4  C   UNL     1     -10.179   2.732 131.456  0.00  0.00    +0.000 C 
ATOM      5  C   UNL     1      -9.386   3.440 130.338  0.00  0.00    +0.000 C 
ATOM      6  C   UNL     1      -8.900   2.386 129.333  0.00  0.00    +0.000 C 
ATOM      7  C   UNL     1      -7.998   1.319 129.974  0.00  0.00    +0.000 C 
ATOM      8  C   UNL     1      -6.656   1.930 130.422  0.00  0.00    +0.000 C 
ATOM      9  C   UNL     1      -7.633   0.286 128.898  0.00  0.00    +0.000 C 
ATOM     10  C   UNL     1      -8.780   0.648 131.127  0.00  0.00    +0.000 C 
ENDBRANCH   1   5
BRANCH   1  11
ATOM     11  C   UNL     1      -9.731   5.727 129.776  0.00  0.00    +0.000 C 
ATOM     12  O   UNL     1      -8.570   6.076 129.852  0.00  0.00    +0.000 OA
BRANCH  11  13
ATOM     13  C   UNL     1     -10.836   6.701 129.769  0.00  0.00    +0.000 A 
ATOM     14  C   UNL     1     -11.804   6.724 130.775  0.00  0.00    +0.000 A 
ATOM     15  C   UNL     1     -12.771   7.727 130.785  0.00  0.00    +0.000 A 
ATOM     16  C   UNL     1     -12.769   8.718 129.802  0.00  0.00    +0.000 A 
ATOM     17  C   UNL     1     -11.797   8.710 128.802  0.00  0.00    +0.000 A 
ATOM     18  C   UNL     1     -10.828   7.705 128.785  0.00  0.00    +0.000 A 
BRANCH  14  19
ATOM     19  O   UNL     1     -11.848   5.833 131.811  0.00  0.00    +0.000 OA
ATOM     20  H   UNL     1     -12.528   6.117 132.448  0.00  0.00    +0.000 HD
ENDBRANCH  14  19
ENDBRANCH  11  13
ENDBRANCH   1  11
TORSDOF 4
ENDMDL
MODEL 5
REMARK VINA RESULT:      -6.9      1.289      1.881
REMARK  Name = Homosalate
REMARK  7 active torsions:
REMARK  status: ('A' for Active; 'I' for Inactive)
REMARK    1  A    between atoms: C_1  and  C_2
REMARK    2  A    between atoms: C_4  and  O_10
REMARK    3  A    between atoms: C_6  and  C_7
REMARK    4  A    between atoms: C_6  and  C_8
REMARK    5  A    between atoms: O_10  and  C_11
REMARK    6  A    between atoms: C_11  and  C_13
REMARK    7  A    between atoms: C_14  and  O_15
REMARK                            x       y       z     vdW  Elec       q    Type
REMARK                         _______ _______ _______ _____ _____    ______ ____
ROOT
ATOM      1  O   UNL     1      -8.719  -0.240 123.069  0.00  0.00    +0.000 OA
ENDROOT
BRANCH   1   5
ATOM      2  C   UNL     1      -8.560  -3.319 126.281  0.00  0.00    +0.000 C 
ATOM      3  C   UNL     1      -8.502  -3.658 124.788  0.00  0.00    +0.000 C 
ATOM      4  C   UNL     1      -9.078  -2.511 123.930  0.00  0.00    +0.000 C 
ATOM      5  C   UNL     1      -8.140  -1.286 123.886  0.00  0.00    +0.000 C 
ATOM      6  C   UNL     1      -6.771  -1.731 123.352  0.00  0.00    +0.000 C 
ATOM      7  C   UNL     1      -6.117  -2.821 124.216  0.00  0.00    +0.000 C 
ATOM      8  C   UNL     1      -5.719  -2.263 125.597  0.00  0.00    +0.000 C 
ATOM      9  C   UNL     1      -4.795  -3.235 123.553  0.00  0.00    +0.000 C 
ATOM     10  C   UNL     1      -7.084  -4.025 124.298  0.00  0.00    +0.000 C 
ENDBRANCH   1   5
BRANCH   1  11
ATOM     11  C   UNL     1      -9.097   0.888 123.744  0.00  0.00    +0.000 C 
ATOM     12  O   UNL     1     -10.216   1.188 124.111  0.00  0.00    +0.000 OA
BRANCH  11  13
ATOM     13  C   UNL     1      -7.940   1.769 123.984  0.00  0.00    +0.000 A 
ATOM     14  C   UNL     1      -7.782   2.978 123.303  0.00  0.00    +0.000 A 
ATOM     15  C   UNL     1      -6.730   3.829 123.635  0.00  0.00    +0.000 A 
ATOM     16  C   UNL     1      -5.840   3.485 124.654  0.00  0.00    +0.000 A 
ATOM     17  C   UNL     1      -5.999   2.285 125.348  0.00  0.00    +0.000 A 
ATOM     18  C   UNL     1      -7.051   1.428 125.017  0.00  0.00    +0.000 A 
BRANCH  14  19
ATOM     19  O   UNL     1      -8.638   3.426 122.336  0.00  0.00    +0.000 OA
ATOM     20  H   UNL     1      -9.003   2.663 121.854  0.00  0.00    +0.000 HD
ENDBRANCH  14  19
ENDBRANCH  11  13
ENDBRANCH   1  11
TORSDOF 4
ENDMDL
MODEL 6
REMARK VINA RESULT:      -6.9      9.061     10.799
REMARK  Name = Homosalate
REMARK  7 active torsions:
REMARK  status: ('A' for Active; 'I' for Inactive)
REMARK    1  A    between atoms: C_1  and  C_2
REMARK    2  A    between atoms: C_4  and  O_10
REMARK    3  A    between atoms: C_6  and  C_7
REMARK    4  A    between atoms: C_6  and  C_8
REMARK    5  A    between atoms: O_10  and  C_11
REMARK    6  A    between atoms: C_11  and  C_13
REMARK    7  A    between atoms: C_14  and  O_15
REMARK                            x       y       z     vdW  Elec       q    Type
REMARK                         _______ _______ _______ _____ _____    ______ ____
ROOT
ATOM      1  O   UNL     1     -10.281   6.158 131.771  0.00  0.00    +0.000 OA
ENDROOT
BRANCH   1   5
ATOM      2  C   UNL     1      -6.186   4.529 131.139  0.00  0.00    +0.000 C 
ATOM      3  C   UNL     1      -6.458   5.891 131.786  0.00  0.00    +0.000 C 
ATOM      4  C   UNL     1      -7.865   6.414 131.421  0.00  0.00    +0.000 C 
ATOM      5  C   UNL     1      -8.984   5.631 132.141  0.00  0.00    +0.000 C 
ATOM      6  C   UNL     1      -8.749   5.714 133.656  0.00  0.00    +0.000 C 
ATOM      7  C   UNL     1      -7.390   5.135 134.083  0.00  0.00    +0.000 C 
ATOM      8  C   UNL     1      -7.352   3.608 133.869  0.00  0.00    +0.000 C 
ATOM      9  C   UNL     1      -7.236   5.333 135.598  0.00  0.00    +0.000 C 
ATOM     10  C   UNL     1      -6.276   5.888 133.320  0.00  0.00    +0.000 C 
ENDBRANCH   1   5
BRANCH   1  11
ATOM     11  C   UNL     1     -10.721   5.809 130.523  0.00  0.00    +0.000 C 
ATOM     12  O   UNL     1     -10.686   4.708 130.011  0.00  0.00    +0.000 OA
BRANCH  11  13
ATOM     13  C   UNL     1     -11.261   6.980 129.810  0.00  0.00    +0.000 A 
ATOM     14  C   UNL     1     -10.884   7.282 128.500  0.00  0.00    +0.000 A 
ATOM     15  C   UNL     1     -11.497   8.337 127.828  0.00  0.00    +0.000 A 
ATOM     16  C   UNL     1     -12.496   9.086 128.453  0.00  0.00    +0.000 A 
ATOM     17  C   UNL     1     -12.887   8.782 129.756  0.00  0.00    +0.000 A 
ATOM     18  C   UNL     1     -12.273   7.727 130.436  0.00  0.00    +0.000 A 
BRANCH  14  19
ATOM     19  O   UNL     1      -9.962   6.567 127.788  0.00  0.00    +0.000 OA
ATOM     20  H   UNL     1      -9.128   6.531 128.290  0.00  0.00    +0.000 HD
ENDBRANCH  14  19
ENDBRANCH  11  13
ENDBRANCH   1  11
TORSDOF 4
ENDMDL
MODEL 7
REMARK VINA RESULT:      -6.8      2.432      3.692
REMARK  Name = Homosalate
REMARK  7 active torsions:
REMARK  status: ('A' for Active; 'I' for Inactive)
REMARK    1  A    between atoms: C_1  and  C_2
REMARK    2  A    between atoms: C_4  and  O_10
REMARK    3  A    between atoms: C_6  and  C_7
REMARK    4  A    between atoms: C_6  and  C_8
REMARK    5  A    between atoms: O_10  and  C_11
REMARK    6  A    between atoms: C_11  and  C_13
REMARK    7  A    between atoms: C_14  and  O_15
REMARK                            x       y       z     vdW  Elec       q    Type
REMARK                         _______ _______ _______ _____ _____    ______ ____
ROOT
ATOM      1  O   UNL     1      -7.418   1.301 124.496  0.00  0.00    +0.000 OA
ENDROOT
BRANCH   1   5
ATOM      2  C   UNL     1      -5.603  -2.588 123.312  0.00  0.00    +0.000 C 
ATOM      3  C   UNL     1      -5.837  -2.179 124.770  0.00  0.00    +0.000 C 
ATOM      4  C   UNL     1      -5.983  -0.647 124.906  0.00  0.00    +0.000 C 
ATOM      5  C   UNL     1      -7.326  -0.136 124.343  0.00  0.00    +0.000 C 
ATOM      6  C   UNL     1      -8.473  -0.858 125.066  0.00  0.00    +0.000 C 
ATOM      7  C   UNL     1      -8.418  -2.384 124.898  0.00  0.00    +0.000 C 
ATOM      8  C   UNL     1      -8.701  -2.787 123.437  0.00  0.00    +0.000 C 
ATOM      9  C   UNL     1      -9.563  -3.001 125.715  0.00  0.00    +0.000 C 
ATOM     10  C   UNL     1      -7.050  -2.885 125.416  0.00  0.00    +0.000 C 
ENDBRANCH   1   5
BRANCH   1  11
ATOM     11  C   UNL     1      -7.898   1.976 123.406  0.00  0.00    +0.000 C 
ATOM     12  O   UNL     1      -8.991   1.857 122.888  0.00  0.00    +0.000 OA
BRANCH  11  13
ATOM     13  C   UNL     1      -6.887   2.910 122.880  0.00  0.00    +0.000 A 
ATOM     14  C   UNL     1      -6.158   3.755 123.719  0.00  0.00    +0.000 A 
ATOM     15  C   UNL     1      -5.140   4.547 123.191  0.00  0.00    +0.000 A 
ATOM     16  C   UNL     1      -4.836   4.491 121.830  0.00  0.00    +0.000 A 
ATOM     17  C   UNL     1      -5.551   3.639 120.988  0.00  0.00    +0.000 A 
ATOM     18  C   UNL     1      -6.574   2.845 121.511  0.00  0.00    +0.000 A 
BRANCH  14  19
ATOM     19  O   UNL     1      -6.342   3.831 125.071  0.00  0.00    +0.000 OA
ATOM     20  H   UNL     1      -7.056   3.222 125.332  0.00  0.00    +0.000 HD
ENDBRANCH  14  19
ENDBRANCH  11  13
ENDBRANCH   1  11
TORSDOF 4
ENDMDL
MODEL 8
REMARK VINA RESULT:      -6.8      8.803     10.230
REMARK  Name = Homosalate
REMARK  7 active torsions:
REMARK  status: ('A' for Active; 'I' for Inactive)
REMARK    1  A    between atoms: C_1  and  C_2
REMARK    2  A    between atoms: C_4  and  O_10
REMARK    3  A    between atoms: C_6  and  C_7
REMARK    4  A    between atoms: C_6  and  C_8
REMARK    5  A    between atoms: O_10  and  C_11
REMARK    6  A    between atoms: C_11  and  C_13
REMARK    7  A    between atoms: C_14  and  O_15
REMARK                            x       y       z     vdW  Elec       q    Type
REMARK                         _______ _______ _______ _____ _____    ______ ____
ROOT
ATOM      1  O   UNL     1      -9.426   5.315 130.883  0.00  0.00    +0.000 OA
ENDROOT
BRANCH   1   5
ATOM      2  C   UNL     1      -7.706   5.060 134.982  0.00  0.00    +0.000 C 
ATOM      3  C   UNL     1      -8.431   3.895 134.301  0.00  0.00    +0.000 C 
ATOM      4  C   UNL     1      -9.341   4.393 133.156  0.00  0.00    +0.000 C 
ATOM      5  C   UNL     1      -8.532   4.862 131.929  0.00  0.00    +0.000 C 
ATOM      6  C   UNL     1      -7.642   3.704 131.452  0.00  0.00    +0.000 C 
ATOM      7  C   UNL     1      -6.661   3.220 132.531  0.00  0.00    +0.000 C 
ATOM      8  C   UNL     1      -5.598   4.295 132.831  0.00  0.00    +0.000 C 
ATOM      9  C   UNL     1      -5.879   2.024 131.971  0.00  0.00    +0.000 C 
ATOM     10  C   UNL     1      -7.475   2.800 133.777  0.00  0.00    +0.000 C 
ENDBRANCH   1   5
BRANCH   1  11
ATOM     11  C   UNL     1      -9.299   6.633 130.536  0.00  0.00    +0.000 C 
ATOM     12  O   UNL     1      -8.301   7.322 130.610  0.00  0.00    +0.000 OA
BRANCH  11  13
ATOM     13  C   UNL     1     -10.580   7.172 130.047  0.00  0.00    +0.000 A 
ATOM     14  C   UNL     1     -11.778   6.959 130.731  0.00  0.00    +0.000 A 
ATOM     15  C   UNL     1     -12.949   7.573 130.290  0.00  0.00    +0.000 A 
ATOM     16  C   UNL     1     -12.927   8.412 129.175  0.00  0.00    +0.000 A 
ATOM     17  C   UNL     1     -11.731   8.641 128.495  0.00  0.00    +0.000 A 
ATOM     18  C   UNL     1     -10.556   8.025 128.930  0.00  0.00    +0.000 A 
BRANCH  14  19
ATOM     19  O   UNL     1     -11.884   6.204 131.866  0.00  0.00    +0.000 OA
ATOM     20  H   UNL     1     -10.993   6.024 132.215  0.00  0.00    +0.000 HD
ENDBRANCH  14  19
ENDBRANCH  11  13
ENDBRANCH   1  11
TORSDOF 4
ENDMDL
MODEL 9
REMARK VINA RESULT:      -6.8      3.041      5.109
REMARK  Name = Homosalate
REMARK  7 active torsions:
REMARK  status: ('A' for Active; 'I' for Inactive)
REMARK    1  A    between atoms: C_1  and  C_2
REMARK    2  A    between atoms: C_4  and  O_10
REMARK    3  A    between atoms: C_6  and  C_7
REMARK    4  A    between atoms: C_6  and  C_8
REMARK    5  A    between atoms: O_10  and  C_11
REMARK    6  A    between atoms: C_11  and  C_13
REMARK    7  A    between atoms: C_14  and  O_15
REMARK                            x       y       z     vdW  Elec       q    Type
REMARK                         _______ _______ _______ _____ _____    ______ ____
ROOT
ATOM      1  O   UNL     1      -6.263  -0.166 126.659  0.00  0.00    +0.000 OA
ENDROOT
BRANCH   1   5
ATOM      2  C   UNL     1      -8.679  -1.409 123.131  0.00  0.00    +0.000 C 
ATOM      3  C   UNL     1      -7.242  -0.887 123.025  0.00  0.00    +0.000 C 
ATOM      4  C   UNL     1      -6.847  -0.074 124.277  0.00  0.00    +0.000 C 
ATOM      5  C   UNL     1      -6.635  -0.971 125.514  0.00  0.00    +0.000 C 
ATOM      6  C   UNL     1      -5.563  -2.021 125.186  0.00  0.00    +0.000 C 
ATOM      7  C   UNL     1      -5.943  -2.911 123.991  0.00  0.00    +0.000 C 
ATOM      8  C   UNL     1      -7.137  -3.820 124.342  0.00  0.00    +0.000 C 
ATOM      9  C   UNL     1      -4.775  -3.868 123.712  0.00  0.00    +0.000 C 
ATOM     10  C   UNL     1      -6.203  -2.002 122.768  0.00  0.00    +0.000 C 
ENDBRANCH   1   5
BRANCH   1  11
ATOM     11  C   UNL     1      -7.086  -0.279 127.746  0.00  0.00    +0.000 C 
ATOM     12  O   UNL     1      -7.905   0.529 128.137  0.00  0.00    +0.000 OA
BRANCH  11  13
ATOM     13  C   UNL     1      -6.855  -1.553 128.450  0.00  0.00    +0.000 A 
ATOM     14  C   UNL     1      -5.593  -1.911 128.927  0.00  0.00    +0.000 A 
ATOM     15  C   UNL     1      -5.440  -3.076 129.677  0.00  0.00    +0.000 A 
ATOM     16  C   UNL     1      -6.545  -3.879 129.966  0.00  0.00    +0.000 A 
ATOM     17  C   UNL     1      -7.811  -3.520 129.504  0.00  0.00    +0.000 A 
ATOM     18  C   UNL     1      -7.969  -2.356 128.749  0.00  0.00    +0.000 A 
BRANCH  14  19
ATOM     19  O   UNL     1      -4.467  -1.158 128.747  0.00  0.00    +0.000 OA
ATOM     20  H   UNL     1      -4.720  -0.222 128.653  0.00  0.00    +0.000 HD
ENDBRANCH  14  19
ENDBRANCH  11  13
ENDBRANCH   1  11
TORSDOF 4
ENDMDL
