MODEL 1
REMARK VINA RESULT:      -7.7      0.000      0.000
REMARK  Name = Huperzine A
REMARK  3 active torsions:
REMARK  status: ('A' for Active; 'I' for Inactive)
REMARK    1  A    between atoms: C_11  and  N_12
REMARK    2  A    between atoms: C_14  and  C_15
REMARK    3  A    between atoms: C_18  and  C_19
REMARK                            x       y       z     vdW  Elec       q    Type
REMARK                         _______ _______ _______ _____ _____    ______ ____
ROOT
ATOM      1  C   UNL     1     -10.430   5.619 132.142  0.00  0.00    +0.000 C 
ATOM      2  C   UNL     1     -11.788   6.377 131.698  0.00  0.00    +0.000 C 
ATOM      3  C   UNL     1     -11.691   7.171 130.410  0.00  0.00    +0.000 A 
ATOM      4  C   UNL     1     -10.638   6.989 129.589  0.00  0.00    +0.000 A 
ATOM      5  C   UNL     1     -10.456   7.895 128.469  0.00  0.00    +0.000 A 
ATOM      6  C   UNL     1     -11.362   8.825 128.162  0.00  0.00    +0.000 A 
ATOM      7  C   UNL     1     -12.593   8.954 128.984  0.00  0.00    +0.000 A 
ATOM      8  O   UNL     1     -13.437   9.771 128.711  0.00  0.00    +0.000 OA
ATOM      9  N   UNL     1     -12.662   8.101 130.079  0.00  0.00    +0.000 N 
ATOM     10  C   UNL     1      -9.522   5.993 129.910  0.00  0.00    +0.000 C 
ATOM     11  C   UNL     1      -8.426   6.939 130.571  0.00  0.00    +0.000 C 
ATOM     12  C   UNL     1      -7.849   6.296 131.806  0.00  0.00    +0.000 C 
ATOM     13  C   UNL     1      -6.622   5.358 131.295  0.00  0.00    +0.000 C 
ATOM     14  C   UNL     1      -8.950   6.187 132.671  0.00  0.00    +0.000 C 
ATOM     15  C   UNL     1     -10.006   4.882 130.902  0.00  0.00    +0.000 C 
ATOM     16  C   UNL     1      -9.394   3.727 131.246  0.00  0.00    +0.000 C 
ATOM     17  C   UNL     1      -8.773   2.564 130.604  0.00  0.00    +0.000 C 
ATOM     18  H   UNL     1     -13.505   8.207 130.633  0.00  0.00    +0.000 HD
ENDROOT
BRANCH  10  19
ATOM     19  N   UNL     1      -9.037   5.309 128.719  0.00  0.00    +0.000 NA
ATOM     20  H   UNL     1      -8.615   5.977 128.088  0.00  0.00    +0.000 HD
ATOM     21  H   UNL     1      -9.853   4.917 128.255  0.00  0.00    +0.000 HD
ENDBRANCH  10  19
TORSDOF 1
ENDMDL
MODEL 2
REMARK VINA RESULT:      -7.0      9.567     11.219
REMARK  Name = Huperzine A
REMARK  3 active torsions:
REMARK  status: ('A' for Active; 'I' for Inactive)
REMARK    1  A    between atoms: C_11  and  N_12
REMARK    2  A    between atoms: C_14  and  C_15
REMARK    3  A    between atoms: C_18  and  C_19
REMARK                            x       y       z     vdW  Elec       q    Type
REMARK                         _______ _______ _______ _____ _____    ______ ____
ROOT
ATOM      1  C   UNL     1      -8.894  -2.985 125.643  0.00  0.00    +0.000 C 
ATOM      2  C   UNL     1      -8.949  -3.380 127.210  0.00  0.00    +0.000 C 
ATOM      3  C   UNL     1      -7.684  -3.089 127.993  0.00  0.00    +0.000 A 
ATOM      4  C   UNL     1      -6.732  -2.299 127.457  0.00  0.00    +0.000 A 
ATOM      5  C   UNL     1      -5.448  -2.195 128.126  0.00  0.00    +0.000 A 
ATOM      6  C   UNL     1      -5.224  -2.762 129.312  0.00  0.00    +0.000 A 
ATOM      7  C   UNL     1      -6.307  -3.532 129.976  0.00  0.00    +0.000 A 
ATOM      8  O   UNL     1      -6.136  -4.033 131.061  0.00  0.00    +0.000 OA
ATOM      9  N   UNL     1      -7.482  -3.647 129.244  0.00  0.00    +0.000 N 
ATOM     10  C   UNL     1      -6.886  -1.671 126.071  0.00  0.00    +0.000 C 
ATOM     11  C   UNL     1      -6.081  -2.699 125.161  0.00  0.00    +0.000 C 
ATOM     12  C   UNL     1      -6.848  -2.998 123.897  0.00  0.00    +0.000 C 
ATOM     13  C   UNL     1      -6.429  -1.844 122.831  0.00  0.00    +0.000 C 
ATOM     14  C   UNL     1      -8.026  -3.610 124.359  0.00  0.00    +0.000 C 
ATOM     15  C   UNL     1      -8.389  -1.570 125.644  0.00  0.00    +0.000 C 
ATOM     16  C   UNL     1      -8.933  -0.890 124.610  0.00  0.00    +0.000 C 
ATOM     17  C   UNL     1      -8.915   0.457 124.032  0.00  0.00    +0.000 C 
ATOM     18  H   UNL     1      -8.209  -4.181 129.708  0.00  0.00    +0.000 HD
ENDROOT
BRANCH  10  19
ATOM     19  N   UNL     1      -6.342  -0.320 126.016  0.00  0.00    +0.000 NA
ATOM     20  H   UNL     1      -7.088   0.344 125.863  0.00  0.00    +0.000 HD
ATOM     21  H   UNL     1      -5.726  -0.287 125.205  0.00  0.00    +0.000 HD
ENDBRANCH  10  19
TORSDOF 1
ENDMDL
MODEL 3
REMARK VINA RESULT:      -7.0      7.772      9.637
REMARK  Name = Huperzine A
REMARK  3 active torsions:
REMARK  status: ('A' for Active; 'I' for Inactive)
REMARK    1  A    between atoms: C_11  and  N_12
REMARK    2  A    between atoms: C_14  and  C_15
REMARK    3  A    between atoms: C_18  and  C_19
REMARK                            x       y       z     vdW  Elec       q    Type
REMARK                         _______ _______ _______ _____ _____    ______ ____
ROOT
ATOM      1  C   UNL     1      -6.404  -1.632 125.007  0.00  0.00    +0.000 C 
ATOM      2  C   UNL     1      -5.750  -0.179 125.286  0.00  0.00    +0.000 C 
ATOM      3  C   UNL     1      -6.664   1.001 125.022  0.00  0.00    +0.000 A 
ATOM      4  C   UNL     1      -7.987   0.799 124.857  0.00  0.00    +0.000 A 
ATOM      5  C   UNL     1      -8.814   1.904 124.406  0.00  0.00    +0.000 A 
ATOM      6  C   UNL     1      -8.327   3.136 124.265  0.00  0.00    +0.000 A 
ATOM      7  C   UNL     1      -6.896   3.402 124.566  0.00  0.00    +0.000 A 
ATOM      8  O   UNL     1      -6.438   4.514 124.469  0.00  0.00    +0.000 OA
ATOM      9  N   UNL     1      -6.152   2.283 124.923  0.00  0.00    +0.000 N 
ATOM     10  C   UNL     1      -8.610  -0.596 124.932  0.00  0.00    +0.000 C 
ATOM     11  C   UNL     1      -8.689  -0.997 123.394  0.00  0.00    +0.000 C 
ATOM     12  C   UNL     1      -8.229  -2.419 123.195  0.00  0.00    +0.000 C 
ATOM     13  C   UNL     1      -9.538  -3.355 123.428  0.00  0.00    +0.000 C 
ATOM     14  C   UNL     1      -6.883  -2.393 123.598  0.00  0.00    +0.000 C 
ATOM     15  C   UNL     1      -7.712  -1.588 125.746  0.00  0.00    +0.000 C 
ATOM     16  C   UNL     1      -8.014  -2.821 126.210  0.00  0.00    +0.000 C 
ATOM     17  C   UNL     1      -9.062  -3.490 126.987  0.00  0.00    +0.000 C 
ATOM     18  H   UNL     1      -5.177   2.481 125.119  0.00  0.00    +0.000 HD
ENDROOT
BRANCH  10  19
ATOM     19  N   UNL     1      -9.914  -0.581 125.582  0.00  0.00    +0.000 NA
ATOM     20  H   UNL     1      -9.805  -0.754 126.572  0.00  0.00    +0.000 HD
ATOM     21  H   UNL     1     -10.444  -1.356 125.189  0.00  0.00    +0.000 HD
ENDBRANCH  10  19
TORSDOF 1
ENDMDL
MODEL 4
REMARK VINA RESULT:      -7.0      7.417      9.986
REMARK  Name = Huperzine A
REMARK  3 active torsions:
REMARK  status: ('A' for Active; 'I' for Inactive)
REMARK    1  A    between atoms: C_11  and  N_12
REMARK    2  A    between atoms: C_14  and  C_15
REMARK    3  A    between atoms: C_18  and  C_19
REMARK                            x       y       z     vdW  Elec       q    Type
REMARK                         _______ _______ _______ _____ _____    ______ ____
ROOT
ATOM      1  C   UNL     1      -7.187  -0.972 123.055  0.00  0.00    +0.000 C 
ATOM      2  C   UNL     1      -7.134   0.611 123.381  0.00  0.00    +0.000 C 
ATOM      3  C   UNL     1      -7.331   0.975 124.840  0.00  0.00    +0.000 A 
ATOM      4  C   UNL     1      -7.257   0.017 125.785  0.00  0.00    +0.000 A 
ATOM      5  C   UNL     1      -7.647   0.341 127.146  0.00  0.00    +0.000 A 
ATOM      6  C   UNL     1      -7.961   1.584 127.510  0.00  0.00    +0.000 A 
ATOM      7  C   UNL     1      -7.925   2.678 126.505  0.00  0.00    +0.000 A 
ATOM      8  O   UNL     1      -8.182   3.815 126.817  0.00  0.00    +0.000 OA
ATOM      9  N   UNL     1      -7.612   2.279 125.211  0.00  0.00    +0.000 N 
ATOM     10  C   UNL     1      -6.971  -1.445 125.436  0.00  0.00    +0.000 C 
ATOM     11  C   UNL     1      -8.439  -2.059 125.395  0.00  0.00    +0.000 C 
ATOM     12  C   UNL     1      -8.603  -2.955 124.194  0.00  0.00    +0.000 C 
ATOM     13  C   UNL     1      -8.083  -4.426 124.653  0.00  0.00    +0.000 C 
ATOM     14  C   UNL     1      -8.433  -2.085 123.104  0.00  0.00    +0.000 C 
ATOM     15  C   UNL     1      -6.246  -1.580 124.056  0.00  0.00    +0.000 C 
ATOM     16  C   UNL     1      -5.644  -2.663 123.516  0.00  0.00    +0.000 C 
ATOM     17  C   UNL     1      -4.654  -3.682 123.878  0.00  0.00    +0.000 C 
ATOM     18  H   UNL     1      -7.598   3.036 124.537  0.00  0.00    +0.000 HD
ENDROOT
BRANCH  10  19
ATOM     19  N   UNL     1      -6.116  -2.089 126.425  0.00  0.00    +0.000 NA
ATOM     20  H   UNL     1      -5.178  -2.180 126.059  0.00  0.00    +0.000 HD
ATOM     21  H   UNL     1      -6.487  -3.027 126.565  0.00  0.00    +0.000 HD
ENDBRANCH  10  19
TORSDOF 1
ENDMDL
MODEL 5
REMARK VINA RESULT:      -6.9      1.852      3.164
REMARK  Name = Huperzine A
REMARK  3 active torsions:
REMARK  status: ('A' for Active; 'I' for Inactive)
REMARK    1  A    between atoms: C_11  and  N_12
REMARK    2  A    between atoms: C_14  and  C_15
REMARK    3  A    between atoms: C_18  and  C_19
REMARK                            x       y       z     vdW  Elec       q    Type
REMARK                         _______ _______ _______ _____ _____    ______ ____
ROOT
ATOM      1  C   UNL     1      -7.360   6.069 131.402  0.00  0.00    +0.000 C 
ATOM      2  C   UNL     1      -7.960   7.274 130.507  0.00  0.00    +0.000 C 
ATOM      3  C   UNL     1      -9.450   7.199 130.240  0.00  0.00    +0.000 A 
ATOM      4  C   UNL     1     -10.216   6.348 130.953  0.00  0.00    +0.000 A 
ATOM      5  C   UNL     1     -11.596   6.141 130.550  0.00  0.00    +0.000 A 
ATOM      6  C   UNL     1     -12.158   6.852 129.573  0.00  0.00    +0.000 A 
ATOM      7  C   UNL     1     -11.362   7.885 128.861  0.00  0.00    +0.000 A 
ATOM      8  O   UNL     1     -11.857   8.558 127.990  0.00  0.00    +0.000 OA
ATOM      9  N   UNL     1     -10.032   7.976 129.253  0.00  0.00    +0.000 N 
ATOM     10  C   UNL     1      -9.630   5.447 132.041  0.00  0.00    +0.000 C 
ATOM     11  C   UNL     1      -9.423   4.081 131.251  0.00  0.00    +0.000 C 
ATOM     12  C   UNL     1      -8.078   3.482 131.575  0.00  0.00    +0.000 C 
ATOM     13  C   UNL     1      -8.294   2.586 132.915  0.00  0.00    +0.000 C 
ATOM     14  C   UNL     1      -7.164   4.437 131.098  0.00  0.00    +0.000 C 
ATOM     15  C   UNL     1      -8.277   6.010 132.592  0.00  0.00    +0.000 C 
ATOM     16  C   UNL     1      -7.581   5.627 133.685  0.00  0.00    +0.000 C 
ATOM     17  C   UNL     1      -7.799   5.385 135.115  0.00  0.00    +0.000 C 
ATOM     18  H   UNL     1      -9.501   8.681 128.753  0.00  0.00    +0.000 HD
ENDROOT
BRANCH  10  19
ATOM     19  N   UNL     1     -10.524   5.311 133.183  0.00  0.00    +0.000 NA
ATOM     20  H   UNL     1     -10.531   4.352 133.500  0.00  0.00    +0.000 HD
ATOM     21  H   UNL     1     -11.459   5.535 132.849  0.00  0.00    +0.000 HD
ENDBRANCH  10  19
TORSDOF 1
ENDMDL
MODEL 6
REMARK VINA RESULT:      -6.8      8.842     10.065
REMARK  Name = Huperzine A
REMARK  3 active torsions:
REMARK  status: ('A' for Active; 'I' for Inactive)
REMARK    1  A    between atoms: C_11  and  N_12
REMARK    2  A    between atoms: C_14  and  C_15
REMARK    3  A    between atoms: C_18  and  C_19
REMARK                            x       y       z     vdW  Elec       q    Type
REMARK                         _______ _______ _______ _____ _____    ______ ____
ROOT
ATOM      1  C   UNL     1      -8.206  -3.279 129.466  0.00  0.00    +0.000 C 
ATOM      2  C   UNL     1      -9.000  -3.796 128.156  0.00  0.00    +0.000 C 
ATOM      3  C   UNL     1      -8.557  -3.174 126.846  0.00  0.00    +0.000 A 
ATOM      4  C   UNL     1      -7.402  -2.479 126.792  0.00  0.00    +0.000 A 
ATOM      5  C   UNL     1      -7.094  -1.723 125.591  0.00  0.00    +0.000 A 
ATOM      6  C   UNL     1      -7.860  -1.789 124.502  0.00  0.00    +0.000 A 
ATOM      7  C   UNL     1      -9.070  -2.652 124.503  0.00  0.00    +0.000 A 
ATOM      8  O   UNL     1      -9.764  -2.747 123.521  0.00  0.00    +0.000 OA
ATOM      9  N   UNL     1      -9.338  -3.288 125.709  0.00  0.00    +0.000 N 
ATOM     10  C   UNL     1      -6.506  -2.298 128.018  0.00  0.00    +0.000 C 
ATOM     11  C   UNL     1      -6.962  -0.865 128.540  0.00  0.00    +0.000 C 
ATOM     12  C   UNL     1      -7.133  -0.879 130.038  0.00  0.00    +0.000 C 
ATOM     13  C   UNL     1      -5.667  -0.557 130.664  0.00  0.00    +0.000 C 
ATOM     14  C   UNL     1      -8.173  -1.801 130.246  0.00  0.00    +0.000 C 
ATOM     15  C   UNL     1      -6.757  -3.413 129.088  0.00  0.00    +0.000 C 
ATOM     16  C   UNL     1      -6.027  -3.718 130.184  0.00  0.00    +0.000 C 
ATOM     17  C   UNL     1      -4.635  -3.998 130.550  0.00  0.00    +0.000 C 
ATOM     18  H   UNL     1     -10.170  -3.867 125.695  0.00  0.00    +0.000 HD
ENDROOT
BRANCH  10  19
ATOM     19  N   UNL     1      -5.091  -2.353 127.678  0.00  0.00    +0.000 NA
ATOM     20  H   UNL     1      -4.854  -1.581 127.072  0.00  0.00    +0.000 HD
ATOM     21  H   UNL     1      -4.951  -3.214 127.153  0.00  0.00    +0.000 HD
ENDBRANCH  10  19
TORSDOF 1
ENDMDL
MODEL 7
REMARK VINA RESULT:      -6.8      1.864      2.604
REMARK  Name = Huperzine A
REMARK  3 active torsions:
REMARK  status: ('A' for Active; 'I' for Inactive)
REMARK    1  A    between atoms: C_11  and  N_12
REMARK    2  A    between atoms: C_14  and  C_15
REMARK    3  A    between atoms: C_18  and  C_19
REMARK                            x       y       z     vdW  Elec       q    Type
REMARK                         _______ _______ _______ _____ _____    ______ ____
ROOT
ATOM      1  C   UNL     1      -7.730   4.687 132.824  0.00  0.00    +0.000 C 
ATOM      2  C   UNL     1      -9.332   4.757 133.028  0.00  0.00    +0.000 C 
ATOM      3  C   UNL     1     -10.077   5.590 132.004  0.00  0.00    +0.000 A 
ATOM      4  C   UNL     1      -9.453   5.973 130.872  0.00  0.00    +0.000 A 
ATOM      5  C   UNL     1     -10.107   6.934 130.001  0.00  0.00    +0.000 A 
ATOM      6  C   UNL     1     -11.351   7.355 130.227  0.00  0.00    +0.000 A 
ATOM      7  C   UNL     1     -12.100   6.843 131.403  0.00  0.00    +0.000 A 
ATOM      8  O   UNL     1     -13.236   7.192 131.614  0.00  0.00    +0.000 OA
ATOM      9  N   UNL     1     -11.385   5.984 132.228  0.00  0.00    +0.000 N 
ATOM     10  C   UNL     1      -8.002   5.589 130.576  0.00  0.00    +0.000 C 
ATOM     11  C   UNL     1      -7.220   6.888 131.058  0.00  0.00    +0.000 C 
ATOM     12  C   UNL     1      -6.000   6.505 131.856  0.00  0.00    +0.000 C 
ATOM     13  C   UNL     1      -4.805   6.279 130.775  0.00  0.00    +0.000 C 
ATOM     14  C   UNL     1      -6.529   5.840 132.975  0.00  0.00    +0.000 C 
ATOM     15  C   UNL     1      -7.565   4.317 131.377  0.00  0.00    +0.000 C 
ATOM     16  C   UNL     1      -6.458   3.556 131.224  0.00  0.00    +0.000 C 
ATOM     17  C   UNL     1      -5.725   2.860 130.163  0.00  0.00    +0.000 C 
ATOM     18  H   UNL     1     -11.908   5.649 133.030  0.00  0.00    +0.000 HD
ENDROOT
BRANCH  10  19
ATOM     19  N   UNL     1      -7.789   5.290 129.166  0.00  0.00    +0.000 NA
ATOM     20  H   UNL     1      -6.899   4.827 129.044  0.00  0.00    +0.000 HD
ATOM     21  H   UNL     1      -7.742   6.185 128.682  0.00  0.00    +0.000 HD
ENDBRANCH  10  19
TORSDOF 1
ENDMDL
MODEL 8
REMARK VINA RESULT:      -6.6      6.765      9.396
REMARK  Name = Huperzine A
REMARK  3 active torsions:
REMARK  status: ('A' for Active; 'I' for Inactive)
REMARK    1  A    between atoms: C_11  and  N_12
REMARK    2  A    between atoms: C_14  and  C_15
REMARK    3  A    between atoms: C_18  and  C_19
REMARK                            x       y       z     vdW  Elec       q    Type
REMARK                         _______ _______ _______ _____ _____    ______ ____
ROOT
ATOM      1  C   UNL     1      -7.134  -2.740 126.336  0.00  0.00    +0.000 C 
ATOM      2  C   UNL     1      -7.433  -2.190 127.826  0.00  0.00    +0.000 C 
ATOM      3  C   UNL     1      -7.831  -0.729 127.907  0.00  0.00    +0.000 A 
ATOM      4  C   UNL     1      -8.180  -0.067 126.785  0.00  0.00    +0.000 A 
ATOM      5  C   UNL     1      -8.360   1.372 126.847  0.00  0.00    +0.000 A 
ATOM      6  C   UNL     1      -8.306   2.039 128.000  0.00  0.00    +0.000 A 
ATOM      7  C   UNL     1      -8.047   1.304 129.265  0.00  0.00    +0.000 A 
ATOM      8  O   UNL     1      -8.018   1.883 130.323  0.00  0.00    +0.000 OA
ATOM      9  N   UNL     1      -7.815  -0.058 129.118  0.00  0.00    +0.000 N 
ATOM     10  C   UNL     1      -8.195  -0.747 125.415  0.00  0.00    +0.000 C 
ATOM     11  C   UNL     1      -6.777  -0.324 124.830  0.00  0.00    +0.000 C 
ATOM     12  C   UNL     1      -6.100  -1.505 124.181  0.00  0.00    +0.000 C 
ATOM     13  C   UNL     1      -6.636  -1.545 122.646  0.00  0.00    +0.000 C 
ATOM     14  C   UNL     1      -5.915  -2.407 125.242  0.00  0.00    +0.000 C 
ATOM     15  C   UNL     1      -8.332  -2.302 125.541  0.00  0.00    +0.000 C 
ATOM     16  C   UNL     1      -8.597  -3.211 124.577  0.00  0.00    +0.000 C 
ATOM     17  C   UNL     1      -9.567  -3.441 123.501  0.00  0.00    +0.000 C 
ATOM     18  H   UNL     1      -7.634  -0.543 129.990  0.00  0.00    +0.000 HD
ENDROOT
BRANCH  10  19
ATOM     19  N   UNL     1      -9.306  -0.294 124.589  0.00  0.00    +0.000 NA
ATOM     20  H   UNL     1      -9.451  -0.939 123.825  0.00  0.00    +0.000 HD
ATOM     21  H   UNL     1      -9.027   0.601 124.190  0.00  0.00    +0.000 HD
ENDBRANCH  10  19
TORSDOF 1
ENDMDL
MODEL 9
REMARK VINA RESULT:      -6.6      9.577     10.729
REMARK  Name = Huperzine A
REMARK  3 active torsions:
REMARK  status: ('A' for Active; 'I' for Inactive)
REMARK    1  A    between atoms: C_11  and  N_12
REMARK    2  A    between atoms: C_14  and  C_15
REMARK    3  A    between atoms: C_18  and  C_19
REMARK                            x       y       z     vdW  Elec       q    Type
REMARK                         _______ _______ _______ _____ _____    ______ ____
ROOT
ATOM      1  C   UNL     1      -4.551  -2.234 128.999  0.00  0.00    +0.000 C 
ATOM      2  C   UNL     1      -5.355  -1.932 127.629  0.00  0.00    +0.000 C 
ATOM      3  C   UNL     1      -6.768  -2.478 127.578  0.00  0.00    +0.000 A 
ATOM      4  C   UNL     1      -7.361  -2.910 128.709  0.00  0.00    +0.000 A 
ATOM      5  C   UNL     1      -8.628  -3.613 128.613  0.00  0.00    +0.000 A 
ATOM      6  C   UNL     1      -9.277  -3.739 127.455  0.00  0.00    +0.000 A 
ATOM      7  C   UNL     1      -8.696  -3.156 126.218  0.00  0.00    +0.000 A 
ATOM      8  O   UNL     1      -9.277  -3.237 125.164  0.00  0.00    +0.000 OA
ATOM      9  N   UNL     1      -7.450  -2.562 126.376  0.00  0.00    +0.000 N 
ATOM     10  C   UNL     1      -6.652  -2.864 130.064  0.00  0.00    +0.000 C 
ATOM     11  C   UNL     1      -6.088  -4.347 130.182  0.00  0.00    +0.000 C 
ATOM     12  C   UNL     1      -4.664  -4.333 130.678  0.00  0.00    +0.000 C 
ATOM     13  C   UNL     1      -4.751  -4.317 132.302  0.00  0.00    +0.000 C 
ATOM     14  C   UNL     1      -3.966  -3.650 129.667  0.00  0.00    +0.000 C 
ATOM     15  C   UNL     1      -5.502  -1.802 130.080  0.00  0.00    +0.000 C 
ATOM     16  C   UNL     1      -4.806  -1.321 131.134  0.00  0.00    +0.000 C 
ATOM     17  C   UNL     1      -5.052  -0.740 132.458  0.00  0.00    +0.000 C 
ATOM     18  H   UNL     1      -7.065  -2.175 125.521  0.00  0.00    +0.000 HD
ENDROOT
BRANCH  10  19
ATOM     19  N   UNL     1      -7.561  -2.516 131.148  0.00  0.00    +0.000 NA
ATOM     20  H   UNL     1      -7.285  -1.632 131.555  0.00  0.00    +0.000 HD
ATOM     21  H   UNL     1      -7.452  -3.234 131.861  0.00  0.00    +0.000 HD
ENDBRANCH  10  19
TORSDOF 1
ENDMDL
