MODEL 1
REMARK VINA RESULT:      -6.9      0.000      0.000
REMARK  Name = Hydroxyzine
REMARK  9 active torsions:
REMARK  status: ('A' for Active; 'I' for Inactive)
REMARK    1  A    between atoms: O_1  and  C_2
REMARK    2  A    between atoms: C_2  and  C_3
REMARK    3  A    between atoms: C_3  and  O_4
REMARK    4  A    between atoms: O_4  and  C_5
REMARK    5  A    between atoms: C_5  and  C_6
REMARK    6  A    between atoms: C_6  and  N_7
REMARK    7  A    between atoms: N_10  and  C_13
REMARK    8  A    between atoms: C_13  and  C_14
REMARK    9  A    between atoms: C_13  and  C_20
REMARK                            x       y       z     vdW  Elec       q    Type
REMARK                         _______ _______ _______ _____ _____    ______ ____
ROOT
ATOM      1  C   UNL     1      -7.351   2.013 123.831  0.00  0.00    +0.000 C 
ENDROOT
BRANCH   1   2
ATOM      2  C   UNL     1      -7.267   2.798 122.513  0.00  0.00    +0.000 A 
ATOM      3  C   UNL     1      -8.434   3.190 121.831  0.00  0.00    +0.000 A 
ATOM      4  C   UNL     1      -8.374   3.807 120.584  0.00  0.00    +0.000 A 
ATOM      5  C   UNL     1      -7.144   4.091 120.027  0.00  0.00    +0.000 A 
ATOM      6 CL   UNL     1      -7.064   4.942 118.540  0.00  0.00    +0.000 Cl
ATOM      7  C   UNL     1      -5.971   3.679 120.648  0.00  0.00    +0.000 A 
ATOM      8  C   UNL     1      -6.048   2.978 121.854  0.00  0.00    +0.000 A 
ENDBRANCH   1   2
BRANCH   1  12
ATOM      9  N   UNL     1      -6.223   3.705 126.771  0.00  0.00    +0.000 NA
ATOM     10  C   UNL     1      -6.330   2.274 126.442  0.00  0.00    +0.000 C 
ATOM     11  C   UNL     1      -7.828   1.943 126.182  0.00  0.00    +0.000 C 
ATOM     12  N   UNL     1      -8.272   2.535 124.893  0.00  0.00    +0.000 NA
ATOM     13  C   UNL     1      -8.231   3.998 125.134  0.00  0.00    +0.000 C 
ATOM     14  C   UNL     1      -6.866   4.503 125.701  0.00  0.00    +0.000 C 
BRANCH   9  15
ATOM     15  C   UNL     1      -6.572   3.732 128.190  0.00  0.00    +0.000 C 
BRANCH  15  16
ATOM     16  C   UNL     1      -6.082   4.602 129.323  0.00  0.00    +0.000 C 
BRANCH  16  17
ATOM     17  O   UNL     1      -5.095   5.416 128.642  0.00  0.00    +0.000 OA
BRANCH  17  18
ATOM     18  C   UNL     1      -3.774   5.091 128.999  0.00  0.00    +0.000 C 
BRANCH  18  19
ATOM     19  C   UNL     1      -2.860   5.200 127.786  0.00  0.00    +0.000 C 
BRANCH  19  20
ATOM     20  O   UNL     1      -3.244   4.196 126.854  0.00  0.00    +0.000 OA
ATOM     21  H   UNL     1      -3.561   4.650 126.056  0.00  0.00    +0.000 HD
ENDBRANCH  19  20
ENDBRANCH  18  19
ENDBRANCH  17  18
ENDBRANCH  16  17
ENDBRANCH  15  16
ENDBRANCH   9  15
ENDBRANCH   1  12
BRANCH   1  22
ATOM     22  C   UNL     1      -7.684   0.526 123.584  0.00  0.00    +0.000 A 
ATOM     23  C   UNL     1      -6.685  -0.457 123.489  0.00  0.00    +0.000 A 
ATOM     24  C   UNL     1      -7.014  -1.717 122.995  0.00  0.00    +0.000 A 
ATOM     25  C   UNL     1      -8.332  -2.009 122.644  0.00  0.00    +0.000 A 
ATOM     26  C   UNL     1      -9.345  -1.075 122.849  0.00  0.00    +0.000 A 
ATOM     27  C   UNL     1      -9.027   0.175 123.357  0.00  0.00    +0.000 A 
ENDBRANCH   1  22
TORSDOF 9
ENDMDL
MODEL 2
REMARK VINA RESULT:      -6.8      2.031      2.872
REMARK  Name = Hydroxyzine
REMARK  9 active torsions:
REMARK  status: ('A' for Active; 'I' for Inactive)
REMARK    1  A    between atoms: O_1  and  C_2
REMARK    2  A    between atoms: C_2  and  C_3
REMARK    3  A    between atoms: C_3  and  O_4
REMARK    4  A    between atoms: O_4  and  C_5
REMARK    5  A    between atoms: C_5  and  C_6
REMARK    6  A    between atoms: C_6  and  N_7
REMARK    7  A    between atoms: N_10  and  C_13
REMARK    8  A    between atoms: C_13  and  C_14
REMARK    9  A    between atoms: C_13  and  C_20
REMARK                            x       y       z     vdW  Elec       q    Type
REMARK                         _______ _______ _______ _____ _____    ______ ____
ROOT
ATOM      1  C   UNL     1      -7.494   2.008 123.838  0.00  0.00    +0.000 C 
ENDROOT
BRANCH   1   2
ATOM      2  C   UNL     1      -7.352   2.789 122.523  0.00  0.00    +0.000 A 
ATOM      3  C   UNL     1      -8.488   3.211 121.808  0.00  0.00    +0.000 A 
ATOM      4  C   UNL     1      -8.375   3.826 120.563  0.00  0.00    +0.000 A 
ATOM      5  C   UNL     1      -7.123   4.078 120.043  0.00  0.00    +0.000 A 
ATOM      6 CL   UNL     1      -6.979   4.927 118.558  0.00  0.00    +0.000 Cl
ATOM      7  C   UNL     1      -5.980   3.636 120.697  0.00  0.00    +0.000 A 
ATOM      8  C   UNL     1      -6.110   2.938 121.900  0.00  0.00    +0.000 A 
ENDBRANCH   1   2
BRANCH   1  12
ATOM      9  N   UNL     1      -6.577   3.472 126.968  0.00  0.00    +0.000 NA
ATOM     10  C   UNL     1      -6.713   2.070 126.543  0.00  0.00    +0.000 C 
ATOM     11  C   UNL     1      -8.193   1.825 126.127  0.00  0.00    +0.000 C 
ATOM     12  N   UNL     1      -8.488   2.511 124.842  0.00  0.00    +0.000 NA
ATOM     13  C   UNL     1      -8.409   3.954 125.175  0.00  0.00    +0.000 C 
ATOM     14  C   UNL     1      -7.083   4.360 125.894  0.00  0.00    +0.000 C 
BRANCH   9  15
ATOM     15  C   UNL     1      -7.057   3.434 128.348  0.00  0.00    +0.000 C 
BRANCH  15  16
ATOM     16  C   UNL     1      -8.138   4.221 129.051  0.00  0.00    +0.000 C 
BRANCH  16  17
ATOM     17  O   UNL     1      -9.172   3.214 129.183  0.00  0.00    +0.000 OA
BRANCH  17  18
ATOM     18  C   UNL     1      -9.979   3.403 130.320  0.00  0.00    +0.000 C 
BRANCH  18  19
ATOM     19  C   UNL     1     -10.428   4.855 130.412  0.00  0.00    +0.000 C 
BRANCH  19  20
ATOM     20  O   UNL     1     -11.661   4.980 129.714  0.00  0.00    +0.000 OA
ATOM     21  H   UNL     1     -11.631   4.362 128.965  0.00  0.00    +0.000 HD
ENDBRANCH  19  20
ENDBRANCH  18  19
ENDBRANCH  17  18
ENDBRANCH  16  17
ENDBRANCH  15  16
ENDBRANCH   9  15
ENDBRANCH   1  12
BRANCH   1  22
ATOM     22  C   UNL     1      -7.776   0.512 123.579  0.00  0.00    +0.000 A 
ATOM     23  C   UNL     1      -6.746  -0.441 123.514  0.00  0.00    +0.000 A 
ATOM     24  C   UNL     1      -7.023  -1.710 123.008  0.00  0.00    +0.000 A 
ATOM     25  C   UNL     1      -8.321  -2.039 122.617  0.00  0.00    +0.000 A 
ATOM     26  C   UNL     1      -9.366  -1.135 122.791  0.00  0.00    +0.000 A 
ATOM     27  C   UNL     1      -9.101   0.123 123.311  0.00  0.00    +0.000 A 
ENDBRANCH   1  22
TORSDOF 9
ENDMDL
MODEL 3
REMARK VINA RESULT:      -6.7      2.404      4.331
REMARK  Name = Hydroxyzine
REMARK  9 active torsions:
REMARK  status: ('A' for Active; 'I' for Inactive)
REMARK    1  A    between atoms: O_1  and  C_2
REMARK    2  A    between atoms: C_2  and  C_3
REMARK    3  A    between atoms: C_3  and  O_4
REMARK    4  A    between atoms: O_4  and  C_5
REMARK    5  A    between atoms: C_5  and  C_6
REMARK    6  A    between atoms: C_6  and  N_7
REMARK    7  A    between atoms: N_10  and  C_13
REMARK    8  A    between atoms: C_13  and  C_14
REMARK    9  A    between atoms: C_13  and  C_20
REMARK                            x       y       z     vdW  Elec       q    Type
REMARK                         _______ _______ _______ _____ _____    ______ ____
ROOT
ATOM      1  C   UNL     1      -7.326   2.276 123.911  0.00  0.00    +0.000 C 
ENDROOT
BRANCH   1   2
ATOM      2  C   UNL     1      -7.682   0.785 124.003  0.00  0.00    +0.000 A 
ATOM      3  C   UNL     1      -8.660   0.331 124.907  0.00  0.00    +0.000 A 
ATOM      4  C   UNL     1      -8.918  -1.027 125.076  0.00  0.00    +0.000 A 
ATOM      5  C   UNL     1      -8.240  -1.947 124.303  0.00  0.00    +0.000 A 
ATOM      6 CL   UNL     1      -8.628  -3.613 124.435  0.00  0.00    +0.000 Cl
ATOM      7  C   UNL     1      -7.236  -1.540 123.433  0.00  0.00    +0.000 A 
ATOM      8  C   UNL     1      -6.923  -0.183 123.340  0.00  0.00    +0.000 A 
ENDBRANCH   1   2
BRANCH   1  12
ATOM      9  N   UNL     1      -6.970   3.325 127.311  0.00  0.00    +0.000 NA
ATOM     10  C   UNL     1      -7.422   4.039 126.105  0.00  0.00    +0.000 C 
ATOM     11  C   UNL     1      -6.247   4.071 125.085  0.00  0.00    +0.000 C 
ATOM     12  N   UNL     1      -6.024   2.718 124.511  0.00  0.00    +0.000 NA
ATOM     13  C   UNL     1      -5.526   1.917 125.656  0.00  0.00    +0.000 C 
ATOM     14  C   UNL     1      -6.438   1.997 126.922  0.00  0.00    +0.000 C 
BRANCH   9  15
ATOM     15  C   UNL     1      -6.241   4.361 128.039  0.00  0.00    +0.000 C 
BRANCH  15  16
ATOM     16  C   UNL     1      -4.984   4.298 128.875  0.00  0.00    +0.000 C 
BRANCH  16  17
ATOM     17  O   UNL     1      -3.965   4.450 127.857  0.00  0.00    +0.000 OA
BRANCH  17  18
ATOM     18  C   UNL     1      -2.956   3.473 127.939  0.00  0.00    +0.000 C 
BRANCH  18  19
ATOM     19  C   UNL     1      -2.184   3.401 126.629  0.00  0.00    +0.000 C 
BRANCH  19  20
ATOM     20  O   UNL     1      -1.133   2.456 126.789  0.00  0.00    +0.000 OA
ATOM     21  H   UNL     1      -0.299   2.952 126.806  0.00  0.00    +0.000 HD
ENDBRANCH  19  20
ENDBRANCH  18  19
ENDBRANCH  17  18
ENDBRANCH  16  17
ENDBRANCH  15  16
ENDBRANCH   9  15
ENDBRANCH   1  12
BRANCH   1  22
ATOM     22  C   UNL     1      -7.388   2.784 122.454  0.00  0.00    +0.000 A 
ATOM     23  C   UNL     1      -6.229   3.068 121.713  0.00  0.00    +0.000 A 
ATOM     24  C   UNL     1      -6.341   3.779 120.519  0.00  0.00    +0.000 A 
ATOM     25  C   UNL     1      -7.597   4.159 120.047  0.00  0.00    +0.000 A 
ATOM     26  C   UNL     1      -8.755   3.775 120.719  0.00  0.00    +0.000 A 
ATOM     27  C   UNL     1      -8.652   3.053 121.898  0.00  0.00    +0.000 A 
ENDBRANCH   1  22
TORSDOF 9
ENDMDL
MODEL 4
REMARK VINA RESULT:      -6.5      2.950      5.013
REMARK  Name = Hydroxyzine
REMARK  9 active torsions:
REMARK  status: ('A' for Active; 'I' for Inactive)
REMARK    1  A    between atoms: O_1  and  C_2
REMARK    2  A    between atoms: C_2  and  C_3
REMARK    3  A    between atoms: C_3  and  O_4
REMARK    4  A    between atoms: O_4  and  C_5
REMARK    5  A    between atoms: C_5  and  C_6
REMARK    6  A    between atoms: C_6  and  N_7
REMARK    7  A    between atoms: N_10  and  C_13
REMARK    8  A    between atoms: C_13  and  C_14
REMARK    9  A    between atoms: C_13  and  C_20
REMARK                            x       y       z     vdW  Elec       q    Type
REMARK                         _______ _______ _______ _____ _____    ______ ____
ROOT
ATOM      1  C   UNL     1      -7.147   3.099 123.508  0.00  0.00    +0.000 C 
ENDROOT
BRANCH   1   2
ATOM      2  C   UNL     1      -7.670   1.666 123.337  0.00  0.00    +0.000 A 
ATOM      3  C   UNL     1      -9.049   1.390 123.378  0.00  0.00    +0.000 A 
ATOM      4  C   UNL     1      -9.530   0.084 123.330  0.00  0.00    +0.000 A 
ATOM      5  C   UNL     1      -8.642  -0.961 123.186  0.00  0.00    +0.000 A 
ATOM      6 CL   UNL     1      -9.237  -2.562 123.024  0.00  0.00    +0.000 Cl
ATOM      7  C   UNL     1      -7.271  -0.733 123.188  0.00  0.00    +0.000 A 
ATOM      8  C   UNL     1      -6.798   0.573 123.329  0.00  0.00    +0.000 A 
ENDBRANCH   1   2
BRANCH   1  12
ATOM      9  N   UNL     1      -8.314   3.661 126.841  0.00  0.00    +0.000 NA
ATOM     10  C   UNL     1      -8.195   4.557 125.678  0.00  0.00    +0.000 C 
ATOM     11  C   UNL     1      -6.692   4.651 125.283  0.00  0.00    +0.000 C 
ATOM     12  N   UNL     1      -6.239   3.375 124.670  0.00  0.00    +0.000 NA
ATOM     13  C   UNL     1      -6.290   2.398 125.786  0.00  0.00    +0.000 C 
ATOM     14  C   UNL     1      -7.663   2.366 126.529  0.00  0.00    +0.000 C 
BRANCH   9  15
ATOM     15  C   UNL     1      -7.978   4.543 127.957  0.00  0.00    +0.000 C 
BRANCH  15  16
ATOM     16  C   UNL     1      -8.710   4.851 129.242  0.00  0.00    +0.000 C 
BRANCH  16  17
ATOM     17  O   UNL     1      -8.920   6.278 129.108  0.00  0.00    +0.000 OA
BRANCH  17  18
ATOM     18  C   UNL     1     -10.280   6.626 129.017  0.00  0.00    +0.000 C 
BRANCH  18  19
ATOM     19  C   UNL     1     -10.423   8.084 128.603  0.00  0.00    +0.000 C 
BRANCH  19  20
ATOM     20  O   UNL     1     -10.709   8.121 127.210  0.00  0.00    +0.000 OA
ATOM     21  H   UNL     1     -10.093   8.755 126.806  0.00  0.00    +0.000 HD
ENDBRANCH  19  20
ENDBRANCH  18  19
ENDBRANCH  17  18
ENDBRANCH  16  17
ENDBRANCH  15  16
ENDBRANCH   9  15
ENDBRANCH   1  12
BRANCH   1  22
ATOM     22  C   UNL     1      -6.460   3.609 122.222  0.00  0.00    +0.000 A 
ATOM     23  C   UNL     1      -5.183   4.191 122.239  0.00  0.00    +0.000 A 
ATOM     24  C   UNL     1      -4.732   4.878 121.113  0.00  0.00    +0.000 A 
ATOM     25  C   UNL     1      -5.526   4.941 119.968  0.00  0.00    +0.000 A 
ATOM     26  C   UNL     1      -6.741   4.264 119.909  0.00  0.00    +0.000 A 
ATOM     27  C   UNL     1      -7.188   3.564 121.019  0.00  0.00    +0.000 A 
ENDBRANCH   1  22
TORSDOF 9
ENDMDL
MODEL 5
REMARK VINA RESULT:      -6.4      2.864      5.112
REMARK  Name = Hydroxyzine
REMARK  9 active torsions:
REMARK  status: ('A' for Active; 'I' for Inactive)
REMARK    1  A    between atoms: O_1  and  C_2
REMARK    2  A    between atoms: C_2  and  C_3
REMARK    3  A    between atoms: C_3  and  O_4
REMARK    4  A    between atoms: O_4  and  C_5
REMARK    5  A    between atoms: C_5  and  C_6
REMARK    6  A    between atoms: C_6  and  N_7
REMARK    7  A    between atoms: N_10  and  C_13
REMARK    8  A    between atoms: C_13  and  C_14
REMARK    9  A    between atoms: C_13  and  C_20
REMARK                            x       y       z     vdW  Elec       q    Type
REMARK                         _______ _______ _______ _____ _____    ______ ____
ROOT
ATOM      1  C   UNL     1      -7.211   2.989 124.062  0.00  0.00    +0.000 C 
ENDROOT
BRANCH   1   2
ATOM      2  C   UNL     1      -7.600   1.521 123.834  0.00  0.00    +0.000 A 
ATOM      3  C   UNL     1      -6.633   0.566 123.471  0.00  0.00    +0.000 A 
ATOM      4  C   UNL     1      -6.988  -0.744 123.158  0.00  0.00    +0.000 A 
ATOM      5  C   UNL     1      -8.308  -1.131 123.258  0.00  0.00    +0.000 A 
ATOM      6 CL   UNL     1      -8.734  -2.768 122.973  0.00  0.00    +0.000 Cl
ATOM      7  C   UNL     1      -9.297  -0.206 123.570  0.00  0.00    +0.000 A 
ATOM      8  C   UNL     1      -8.940   1.126 123.790  0.00  0.00    +0.000 A 
ENDBRANCH   1   2
BRANCH   1  12
ATOM      9  N   UNL     1      -8.262   3.451 127.448  0.00  0.00    +0.000 NA
ATOM     10  C   UNL     1      -8.235   4.366 126.295  0.00  0.00    +0.000 C 
ATOM     11  C   UNL     1      -6.757   4.537 125.839  0.00  0.00    +0.000 C 
ATOM     12  N   UNL     1      -6.269   3.292 125.189  0.00  0.00    +0.000 NA
ATOM     13  C   UNL     1      -6.227   2.300 126.291  0.00  0.00    +0.000 C 
ATOM     14  C   UNL     1      -7.565   2.192 127.090  0.00  0.00    +0.000 C 
BRANCH   9  15
ATOM     15  C   UNL     1      -7.921   4.333 128.562  0.00  0.00    +0.000 C 
BRANCH  15  16
ATOM     16  C   UNL     1      -8.717   4.770 129.769  0.00  0.00    +0.000 C 
BRANCH  16  17
ATOM     17  O   UNL     1      -8.666   6.211 129.630  0.00  0.00    +0.000 OA
BRANCH  17  18
ATOM     18  C   UNL     1      -8.881   6.888 130.844  0.00  0.00    +0.000 C 
BRANCH  18  19
ATOM     19  C   UNL     1     -10.145   6.370 131.518  0.00  0.00    +0.000 C 
BRANCH  19  20
ATOM     20  O   UNL     1      -9.918   6.353 132.922  0.00  0.00    +0.000 OA
ATOM     21  H   UNL     1      -9.196   6.976 133.106  0.00  0.00    +0.000 HD
ENDBRANCH  19  20
ENDBRANCH  18  19
ENDBRANCH  17  18
ENDBRANCH  16  17
ENDBRANCH  15  16
ENDBRANCH   9  15
ENDBRANCH   1  12
BRANCH   1  22
ATOM     22  C   UNL     1      -6.653   3.633 122.773  0.00  0.00    +0.000 A 
ATOM     23  C   UNL     1      -7.336   3.561 121.548  0.00  0.00    +0.000 A 
ATOM     24  C   UNL     1      -6.668   3.909 120.375  0.00  0.00    +0.000 A 
ATOM     25  C   UNL     1      -5.352   4.369 120.429  0.00  0.00    +0.000 A 
ATOM     26  C   UNL     1      -4.714   4.552 121.654  0.00  0.00    +0.000 A 
ATOM     27  C   UNL     1      -5.379   4.225 122.825  0.00  0.00    +0.000 A 
ENDBRANCH   1  22
TORSDOF 9
ENDMDL
MODEL 6
REMARK VINA RESULT:      -6.3      4.310      5.852
REMARK  Name = Hydroxyzine
REMARK  9 active torsions:
REMARK  status: ('A' for Active; 'I' for Inactive)
REMARK    1  A    between atoms: O_1  and  C_2
REMARK    2  A    between atoms: C_2  and  C_3
REMARK    3  A    between atoms: C_3  and  O_4
REMARK    4  A    between atoms: O_4  and  C_5
REMARK    5  A    between atoms: C_5  and  C_6
REMARK    6  A    between atoms: C_6  and  N_7
REMARK    7  A    between atoms: N_10  and  C_13
REMARK    8  A    between atoms: C_13  and  C_14
REMARK    9  A    between atoms: C_13  and  C_20
REMARK                            x       y       z     vdW  Elec       q    Type
REMARK                         _______ _______ _______ _____ _____    ______ ____
ROOT
ATOM      1  C   UNL     1      -6.506  -1.067 127.842  0.00  0.00    +0.000 C 
ENDROOT
BRANCH   1   2
ATOM      2  C   UNL     1      -7.295  -1.733 126.705  0.00  0.00    +0.000 A 
ATOM      3  C   UNL     1      -6.951  -1.509 125.359  0.00  0.00    +0.000 A 
ATOM      4  C   UNL     1      -7.722  -2.021 124.318  0.00  0.00    +0.000 A 
ATOM      5  C   UNL     1      -8.816  -2.809 124.609  0.00  0.00    +0.000 A 
ATOM      6 CL   UNL     1      -9.707  -3.525 123.329  0.00  0.00    +0.000 Cl
ATOM      7  C   UNL     1      -9.213  -3.015 125.924  0.00  0.00    +0.000 A 
ATOM      8  C   UNL     1      -8.486  -2.420 126.957  0.00  0.00    +0.000 A 
ENDBRANCH   1   2
BRANCH   1  12
ATOM      9  N   UNL     1      -5.909   2.438 127.468  0.00  0.00    +0.000 NA
ATOM     10  C   UNL     1      -5.189   1.394 128.216  0.00  0.00    +0.000 C 
ATOM     11  C   UNL     1      -6.150   0.812 129.293  0.00  0.00    +0.000 C 
ATOM     12  N   UNL     1      -7.205  -0.015 128.651  0.00  0.00    +0.000 NA
ATOM     13  C   UNL     1      -8.019   0.963 127.888  0.00  0.00    +0.000 C 
ATOM     14  C   UNL     1      -7.177   1.878 126.942  0.00  0.00    +0.000 C 
BRANCH   9  15
ATOM     15  C   UNL     1      -5.783   3.601 128.345  0.00  0.00    +0.000 C 
BRANCH  15  16
ATOM     16  C   UNL     1      -4.649   4.577 128.552  0.00  0.00    +0.000 C 
BRANCH  16  17
ATOM     17  O   UNL     1      -3.898   4.397 127.326  0.00  0.00    +0.000 OA
BRANCH  17  18
ATOM     18  C   UNL     1      -2.547   4.080 127.551  0.00  0.00    +0.000 C 
BRANCH  18  19
ATOM     19  C   UNL     1      -1.973   3.338 126.352  0.00  0.00    +0.000 C 
BRANCH  19  20
ATOM     20  O   UNL     1      -1.010   2.407 126.830  0.00  0.00    +0.000 OA
ATOM     21  H   UNL     1      -0.673   2.749 127.675  0.00  0.00    +0.000 HD
ENDBRANCH  19  20
ENDBRANCH  18  19
ENDBRANCH  17  18
ENDBRANCH  16  17
ENDBRANCH  15  16
ENDBRANCH   9  15
ENDBRANCH   1  12
BRANCH   1  22
ATOM     22  C   UNL     1      -5.915  -2.115 128.811  0.00  0.00    +0.000 A 
ATOM     23  C   UNL     1      -4.575  -2.527 128.737  0.00  0.00    +0.000 A 
ATOM     24  C   UNL     1      -4.171  -3.660 129.440  0.00  0.00    +0.000 A 
ATOM     25  C   UNL     1      -5.081  -4.346 130.244  0.00  0.00    +0.000 A 
ATOM     26  C   UNL     1      -6.380  -3.870 130.411  0.00  0.00    +0.000 A 
ATOM     27  C   UNL     1      -6.783  -2.733 129.729  0.00  0.00    +0.000 A 
ENDBRANCH   1  22
TORSDOF 9
ENDMDL
MODEL 7
REMARK VINA RESULT:      -6.1      5.299      7.215
REMARK  Name = Hydroxyzine
REMARK  9 active torsions:
REMARK  status: ('A' for Active; 'I' for Inactive)
REMARK    1  A    between atoms: O_1  and  C_2
REMARK    2  A    between atoms: C_2  and  C_3
REMARK    3  A    between atoms: C_3  and  O_4
REMARK    4  A    between atoms: O_4  and  C_5
REMARK    5  A    between atoms: C_5  and  C_6
REMARK    6  A    between atoms: C_6  and  N_7
REMARK    7  A    between atoms: N_10  and  C_13
REMARK    8  A    between atoms: C_13  and  C_14
REMARK    9  A    between atoms: C_13  and  C_20
REMARK                            x       y       z     vdW  Elec       q    Type
REMARK                         _______ _______ _______ _____ _____    ______ ____
ROOT
ATOM      1  C   UNL     1      -7.234  -1.513 127.809  0.00  0.00    +0.000 C 
ENDROOT
BRANCH   1   2
ATOM      2  C   UNL     1      -6.810  -2.434 128.963  0.00  0.00    +0.000 A 
ATOM      3  C   UNL     1      -7.580  -2.522 130.137  0.00  0.00    +0.000 A 
ATOM      4  C   UNL     1      -7.153  -3.271 131.231  0.00  0.00    +0.000 A 
ATOM      5  C   UNL     1      -5.976  -3.984 131.146  0.00  0.00    +0.000 A 
ATOM      6 CL   UNL     1      -5.498  -4.987 132.453  0.00  0.00    +0.000 Cl
ATOM      7  C   UNL     1      -5.166  -3.886 130.022  0.00  0.00    +0.000 A 
ATOM      8  C   UNL     1      -5.560  -3.059 128.968  0.00  0.00    +0.000 A 
ENDBRANCH   1   2
BRANCH   1  12
ATOM      9  N   UNL     1      -7.541   1.821 129.062  0.00  0.00    +0.000 NA
ATOM     10  C   UNL     1      -8.219   1.121 127.959  0.00  0.00    +0.000 C 
ATOM     11  C   UNL     1      -7.148   0.710 126.907  0.00  0.00    +0.000 C 
ATOM     12  N   UNL     1      -6.306  -0.396 127.433  0.00  0.00    +0.000 NA
ATOM     13  C   UNL     1      -5.545   0.224 128.545  0.00  0.00    +0.000 C 
ATOM     14  C   UNL     1      -6.444   0.970 129.582  0.00  0.00    +0.000 C 
BRANCH   9  15
ATOM     15  C   UNL     1      -7.398   3.178 128.538  0.00  0.00    +0.000 C 
BRANCH  15  16
ATOM     16  C   UNL     1      -8.246   4.415 128.723  0.00  0.00    +0.000 C 
BRANCH  16  17
ATOM     17  O   UNL     1      -8.359   4.882 127.357  0.00  0.00    +0.000 OA
BRANCH  17  18
ATOM     18  C   UNL     1      -7.409   4.302 126.497  0.00  0.00    +0.000 C 
BRANCH  18  19
ATOM     19  C   UNL     1      -7.950   4.248 125.075  0.00  0.00    +0.000 C 
BRANCH  19  20
ATOM     20  O   UNL     1      -9.138   3.467 125.085  0.00  0.00    +0.000 OA
ATOM     21  H   UNL     1      -9.522   3.514 124.194  0.00  0.00    +0.000 HD
ENDBRANCH  19  20
ENDBRANCH  18  19
ENDBRANCH  17  18
ENDBRANCH  16  17
ENDBRANCH  15  16
ENDBRANCH   9  15
ENDBRANCH   1  12
BRANCH   1  22
ATOM     22  C   UNL     1      -7.568  -2.320 126.535  0.00  0.00    +0.000 A 
ATOM     23  C   UNL     1      -6.598  -2.612 125.562  0.00  0.00    +0.000 A 
ATOM     24  C   UNL     1      -7.004  -3.092 124.318  0.00  0.00    +0.000 A 
ATOM     25  C   UNL     1      -8.357  -3.323 124.065  0.00  0.00    +0.000 A 
ATOM     26  C   UNL     1      -9.307  -3.146 125.068  0.00  0.00    +0.000 A 
ATOM     27  C   UNL     1      -8.908  -2.686 126.313  0.00  0.00    +0.000 A 
ENDBRANCH   1  22
TORSDOF 9
ENDMDL
MODEL 8
REMARK VINA RESULT:      -6.1      5.383      7.378
REMARK  Name = Hydroxyzine
REMARK  9 active torsions:
REMARK  status: ('A' for Active; 'I' for Inactive)
REMARK    1  A    between atoms: O_1  and  C_2
REMARK    2  A    between atoms: C_2  and  C_3
REMARK    3  A    between atoms: C_3  and  O_4
REMARK    4  A    between atoms: O_4  and  C_5
REMARK    5  A    between atoms: C_5  and  C_6
REMARK    6  A    between atoms: C_6  and  N_7
REMARK    7  A    between atoms: N_10  and  C_13
REMARK    8  A    between atoms: C_13  and  C_14
REMARK    9  A    between atoms: C_13  and  C_20
REMARK                            x       y       z     vdW  Elec       q    Type
REMARK                         _______ _______ _______ _____ _____    ______ ____
ROOT
ATOM      1  C   UNL     1      -7.451  -1.070 127.657  0.00  0.00    +0.000 C 
ENDROOT
BRANCH   1   2
ATOM      2  C   UNL     1      -6.963  -2.108 128.678  0.00  0.00    +0.000 A 
ATOM      3  C   UNL     1      -7.739  -2.433 129.805  0.00  0.00    +0.000 A 
ATOM      4  C   UNL     1      -7.262  -3.292 130.792  0.00  0.00    +0.000 A 
ATOM      5  C   UNL     1      -6.025  -3.882 130.637  0.00  0.00    +0.000 A 
ATOM      6 CL   UNL     1      -5.478  -5.020 131.799  0.00  0.00    +0.000 Cl
ATOM      7  C   UNL     1      -5.211  -3.552 129.561  0.00  0.00    +0.000 A 
ATOM      8  C   UNL     1      -5.662  -2.617 128.626  0.00  0.00    +0.000 A 
ENDBRANCH   1   2
BRANCH   1  12
ATOM      9  N   UNL     1      -8.150   2.122 129.108  0.00  0.00    +0.000 NA
ATOM     10  C   UNL     1      -8.675   1.455 127.905  0.00  0.00    +0.000 C 
ATOM     11  C   UNL     1      -7.492   1.215 126.922  0.00  0.00    +0.000 C 
ATOM     12  N   UNL     1      -6.599   0.146 127.440  0.00  0.00    +0.000 NA
ATOM     13  C   UNL     1      -5.986   0.740 128.653  0.00  0.00    +0.000 C 
ATOM     14  C   UNL     1      -7.026   1.327 129.659  0.00  0.00    +0.000 C 
BRANCH   9  15
ATOM     15  C   UNL     1      -8.089   3.522 128.693  0.00  0.00    +0.000 C 
BRANCH  15  16
ATOM     16  C   UNL     1      -8.432   4.798 129.426  0.00  0.00    +0.000 C 
BRANCH  16  17
ATOM     17  O   UNL     1      -9.877   4.711 129.473  0.00  0.00    +0.000 OA
BRANCH  17  18
ATOM     18  C   UNL     1     -10.375   4.527 130.776  0.00  0.00    +0.000 C 
BRANCH  18  19
ATOM     19  C   UNL     1     -10.615   5.875 131.443  0.00  0.00    +0.000 C 
BRANCH  19  20
ATOM     20  O   UNL     1     -11.970   5.917 131.872  0.00  0.00    +0.000 OA
ATOM     21  H   UNL     1     -12.091   6.747 132.363  0.00  0.00    +0.000 HD
ENDBRANCH  19  20
ENDBRANCH  18  19
ENDBRANCH  17  18
ENDBRANCH  16  17
ENDBRANCH  15  16
ENDBRANCH   9  15
ENDBRANCH   1  12
BRANCH   1  22
ATOM     22  C   UNL     1      -7.737  -1.717 126.284  0.00  0.00    +0.000 A 
ATOM     23  C   UNL     1      -9.013  -2.189 125.934  0.00  0.00    +0.000 A 
ATOM     24  C   UNL     1      -9.153  -3.004 124.812  0.00  0.00    +0.000 A 
ATOM     25  C   UNL     1      -8.043  -3.304 124.023  0.00  0.00    +0.000 A 
ATOM     26  C   UNL     1      -6.800  -2.741 124.302  0.00  0.00    +0.000 A 
ATOM     27  C   UNL     1      -6.657  -1.915 125.405  0.00  0.00    +0.000 A 
ENDBRANCH   1  22
TORSDOF 9
ENDMDL
MODEL 9
REMARK VINA RESULT:      -6.1      7.040      9.149
REMARK  Name = Hydroxyzine
REMARK  9 active torsions:
REMARK  status: ('A' for Active; 'I' for Inactive)
REMARK    1  A    between atoms: O_1  and  C_2
REMARK    2  A    between atoms: C_2  and  C_3
REMARK    3  A    between atoms: C_3  and  O_4
REMARK    4  A    between atoms: O_4  and  C_5
REMARK    5  A    between atoms: C_5  and  C_6
REMARK    6  A    between atoms: C_6  and  N_7
REMARK    7  A    between atoms: N_10  and  C_13
REMARK    8  A    between atoms: C_13  and  C_14
REMARK    9  A    between atoms: C_13  and  C_20
REMARK                            x       y       z     vdW  Elec       q    Type
REMARK                         _______ _______ _______ _____ _____    ______ ____
ROOT
ATOM      1  C   UNL     1      -7.497  -1.917 130.449  0.00  0.00    +0.000 C 
ENDROOT
BRANCH   1   2
ATOM      2  C   UNL     1      -6.673  -2.889 131.305  0.00  0.00    +0.000 A 
ATOM      3  C   UNL     1      -5.573  -3.578 130.760  0.00  0.00    +0.000 A 
ATOM      4  C   UNL     1      -4.884  -4.540 131.493  0.00  0.00    +0.000 A 
ATOM      5  C   UNL     1      -5.250  -4.788 132.800  0.00  0.00    +0.000 A 
ATOM      6 CL   UNL     1      -4.339  -5.899 133.738  0.00  0.00    +0.000 Cl
ATOM      7  C   UNL     1      -6.357  -4.162 133.358  0.00  0.00    +0.000 A 
ATOM      8  C   UNL     1      -7.097  -3.267 132.582  0.00  0.00    +0.000 A 
ENDBRANCH   1   2
BRANCH   1  12
ATOM      9  N   UNL     1      -8.115   0.782 132.711  0.00  0.00    +0.000 NA
ATOM     10  C   UNL     1      -8.915   0.221 131.610  0.00  0.00    +0.000 C 
ATOM     11  C   UNL     1      -8.117   0.397 130.285  0.00  0.00    +0.000 C 
ATOM     12  N   UNL     1      -6.956  -0.531 130.255  0.00  0.00    +0.000 NA
ATOM     13  C   UNL     1      -6.059  -0.024 131.322  0.00  0.00    +0.000 C 
ATOM     14  C   UNL     1      -6.768   0.162 132.702  0.00  0.00    +0.000 C 
BRANCH   9  15
ATOM     15  C   UNL     1      -8.403   2.212 132.617  0.00  0.00    +0.000 C 
BRANCH  15  16
ATOM     16  C   UNL     1      -7.489   3.414 132.580  0.00  0.00    +0.000 C 
BRANCH  16  17
ATOM     17  O   UNL     1      -8.225   4.295 131.696  0.00  0.00    +0.000 OA
BRANCH  17  18
ATOM     18  C   UNL     1      -8.304   5.614 132.177  0.00  0.00    +0.000 C 
BRANCH  18  19
ATOM     19  C   UNL     1      -9.734   6.126 132.079  0.00  0.00    +0.000 C 
BRANCH  19  20
ATOM     20  O   UNL     1     -10.542   5.345 132.951  0.00  0.00    +0.000 OA
ATOM     21  H   UNL     1     -11.264   5.915 133.262  0.00  0.00    +0.000 HD
ENDBRANCH  19  20
ENDBRANCH  18  19
ENDBRANCH  17  18
ENDBRANCH  16  17
ENDBRANCH  15  16
ENDBRANCH   9  15
ENDBRANCH   1  12
BRANCH   1  22
ATOM     22  C   UNL     1      -7.814  -2.515 129.060  0.00  0.00    +0.000 A 
ATOM     23  C   UNL     1      -7.324  -1.945 127.874  0.00  0.00    +0.000 A 
ATOM     24  C   UNL     1      -7.859  -2.349 126.652  0.00  0.00    +0.000 A 
ATOM     25  C   UNL     1      -8.836  -3.344 126.612  0.00  0.00    +0.000 A 
ATOM     26  C   UNL     1      -9.237  -3.993 127.777  0.00  0.00    +0.000 A 
ATOM     27  C   UNL     1      -8.696  -3.608 128.994  0.00  0.00    +0.000 A 
ENDBRANCH   1  22
TORSDOF 9
ENDMDL
