MODEL 1
REMARK VINA RESULT:      -5.4      0.000      0.000
REMARK  Name = Hydroxycitronellal
REMARK  10 active torsions:
REMARK  status: ('A' for Active; 'I' for Inactive)
REMARK    1  A    between atoms: C_2  and  C_4
REMARK    2  A    between atoms: C_4  and  C_5
REMARK    3  A    between atoms: C_5  and  C_6
REMARK    4  A    between atoms: C_5  and  C_7
REMARK    5  A    between atoms: C_7  and  C_8
REMARK    6  A    between atoms: C_8  and  C_9
REMARK    7  A    between atoms: C_9  and  C_10
REMARK    8  A    between atoms: C_10  and  C_11
REMARK    9  A    between atoms: C_10  and  C_12
REMARK   10  A    between atoms: C_10  and  O_13
REMARK                            x       y       z     vdW  Elec       q    Type
REMARK                         _______ _______ _______ _____ _____    ______ ____
ROOT
ATOM      1  C   UNL     1     -12.853   7.246 130.337  0.00  0.00    +0.000 C 
ENDROOT
BRANCH   1   2
ATOM      2  C   UNL     1     -12.654   8.635 129.765  0.00  0.00    +0.000 C 
BRANCH   2   3
ATOM      3  C   UNL     1     -12.435   8.541 128.244  0.00  0.00    +0.000 C 
ATOM      4  C   UNL     1     -13.191   7.334 127.657  0.00  0.00    +0.000 C 
BRANCH   3   5
ATOM      5  C   UNL     1     -10.939   8.442 127.950  0.00  0.00    +0.000 C 
BRANCH   5   6
ATOM      6  C   UNL     1     -10.591   7.264 127.071  0.00  0.00    +0.000 C 
ATOM      7  O   UNL     1      -9.776   6.386 127.358  0.00  0.00    +0.000 OA
ENDBRANCH   5   6
ENDBRANCH   3   5
ENDBRANCH   2   3
ENDBRANCH   1   2
BRANCH   1   8
ATOM      8  C   UNL     1     -12.115   7.016 131.642  0.00  0.00    +0.000 C 
BRANCH   8   9
ATOM      9  C   UNL     1     -10.943   6.036 131.451  0.00  0.00    +0.000 C 
ATOM     10  C   UNL     1     -11.291   4.953 130.425  0.00  0.00    +0.000 C 
ATOM     11  C   UNL     1      -9.661   6.765 131.032  0.00  0.00    +0.000 C 
BRANCH   9  12
ATOM     12  O   UNL     1     -10.684   5.406 132.707  0.00  0.00    +0.000 OA
ATOM     13  H   UNL     1     -10.860   4.455 132.605  0.00  0.00    +0.000 HD
ENDBRANCH   9  12
ENDBRANCH   8   9
ENDBRANCH   1   8
TORSDOF 7
ENDMDL
MODEL 2
REMARK VINA RESULT:      -4.8      1.192      1.488
REMARK  Name = Hydroxycitronellal
REMARK  10 active torsions:
REMARK  status: ('A' for Active; 'I' for Inactive)
REMARK    1  A    between atoms: C_2  and  C_4
REMARK    2  A    between atoms: C_4  and  C_5
REMARK    3  A    between atoms: C_5  and  C_6
REMARK    4  A    between atoms: C_5  and  C_7
REMARK    5  A    between atoms: C_7  and  C_8
REMARK    6  A    between atoms: C_8  and  C_9
REMARK    7  A    between atoms: C_9  and  C_10
REMARK    8  A    between atoms: C_10  and  C_11
REMARK    9  A    between atoms: C_10  and  C_12
REMARK   10  A    between atoms: C_10  and  O_13
REMARK                            x       y       z     vdW  Elec       q    Type
REMARK                         _______ _______ _______ _____ _____    ______ ____
ROOT
ATOM      1  C   UNL     1     -11.460   6.060 130.073  0.00  0.00    +0.000 C 
ENDROOT
BRANCH   1   2
ATOM      2  C   UNL     1     -12.592   6.897 129.514  0.00  0.00    +0.000 C 
BRANCH   2   3
ATOM      3  C   UNL     1     -12.077   8.309 129.182  0.00  0.00    +0.000 C 
ATOM      4  C   UNL     1     -13.152   9.120 128.434  0.00  0.00    +0.000 C 
BRANCH   3   5
ATOM      5  C   UNL     1     -10.800   8.202 128.351  0.00  0.00    +0.000 C 
BRANCH   5   6
ATOM      6  C   UNL     1     -11.070   7.911 126.893  0.00  0.00    +0.000 C 
ATOM      7  O   UNL     1     -10.996   6.799 126.370  0.00  0.00    +0.000 OA
ENDBRANCH   5   6
ENDBRANCH   3   5
ENDBRANCH   2   3
ENDBRANCH   1   2
BRANCH   1   8
ATOM      8  C   UNL     1     -11.299   6.183 131.576  0.00  0.00    +0.000 C 
BRANCH   8   9
ATOM      9  C   UNL     1      -9.844   5.917 132.003  0.00  0.00    +0.000 C 
ATOM     10  C   UNL     1      -9.520   4.421 131.952  0.00  0.00    +0.000 C 
ATOM     11  C   UNL     1      -8.850   6.700 131.137  0.00  0.00    +0.000 C 
BRANCH   9  12
ATOM     12  O   UNL     1      -9.688   6.371 133.348  0.00  0.00    +0.000 OA
ATOM     13  H   UNL     1      -8.746   6.299 133.580  0.00  0.00    +0.000 HD
ENDBRANCH   9  12
ENDBRANCH   8   9
ENDBRANCH   1   8
TORSDOF 7
ENDMDL
MODEL 3
REMARK VINA RESULT:      -4.7      1.729      4.053
REMARK  Name = Hydroxycitronellal
REMARK  10 active torsions:
REMARK  status: ('A' for Active; 'I' for Inactive)
REMARK    1  A    between atoms: C_2  and  C_4
REMARK    2  A    between atoms: C_4  and  C_5
REMARK    3  A    between atoms: C_5  and  C_6
REMARK    4  A    between atoms: C_5  and  C_7
REMARK    5  A    between atoms: C_7  and  C_8
REMARK    6  A    between atoms: C_8  and  C_9
REMARK    7  A    between atoms: C_9  and  C_10
REMARK    8  A    between atoms: C_10  and  C_11
REMARK    9  A    between atoms: C_10  and  C_12
REMARK   10  A    between atoms: C_10  and  O_13
REMARK                            x       y       z     vdW  Elec       q    Type
REMARK                         _______ _______ _______ _____ _____    ______ ____
ROOT
ATOM      1  C   UNL     1     -12.316   6.746 130.609  0.00  0.00    +0.000 C 
ENDROOT
BRANCH   1   2
ATOM      2  C   UNL     1     -11.461   6.554 131.844  0.00  0.00    +0.000 C 
BRANCH   2   3
ATOM      3  C   UNL     1     -10.193   5.762 131.477  0.00  0.00    +0.000 C 
ATOM      4  C   UNL     1      -8.968   6.693 131.412  0.00  0.00    +0.000 C 
BRANCH   3   5
ATOM      5  C   UNL     1     -10.406   5.049 130.143  0.00  0.00    +0.000 C 
BRANCH   5   6
ATOM      6  C   UNL     1      -9.165   5.035 129.281  0.00  0.00    +0.000 C 
ATOM      7  O   UNL     1      -9.092   5.498 128.142  0.00  0.00    +0.000 OA
ENDBRANCH   5   6
ENDBRANCH   3   5
ENDBRANCH   2   3
ENDBRANCH   1   2
BRANCH   1   8
ATOM      8  C   UNL     1     -12.641   8.198 130.315  0.00  0.00    +0.000 C 
BRANCH   8   9
ATOM      9  C   UNL     1     -12.477   8.511 128.816  0.00  0.00    +0.000 C 
ATOM     10  C   UNL     1     -11.004   8.454 128.399  0.00  0.00    +0.000 C 
ATOM     11  C   UNL     1     -13.307   7.559 127.947  0.00  0.00    +0.000 C 
BRANCH   9  12
ATOM     12  O   UNL     1     -12.965   9.834 128.585  0.00  0.00    +0.000 OA
ATOM     13  H   UNL     1     -13.929   9.823 128.713  0.00  0.00    +0.000 HD
ENDBRANCH   9  12
ENDBRANCH   8   9
ENDBRANCH   1   8
TORSDOF 7
ENDMDL
MODEL 4
REMARK VINA RESULT:      -4.4      1.795      4.494
REMARK  Name = Hydroxycitronellal
REMARK  10 active torsions:
REMARK  status: ('A' for Active; 'I' for Inactive)
REMARK    1  A    between atoms: C_2  and  C_4
REMARK    2  A    between atoms: C_4  and  C_5
REMARK    3  A    between atoms: C_5  and  C_6
REMARK    4  A    between atoms: C_5  and  C_7
REMARK    5  A    between atoms: C_7  and  C_8
REMARK    6  A    between atoms: C_8  and  C_9
REMARK    7  A    between atoms: C_9  and  C_10
REMARK    8  A    between atoms: C_10  and  C_11
REMARK    9  A    between atoms: C_10  and  C_12
REMARK   10  A    between atoms: C_10  and  O_13
REMARK                            x       y       z     vdW  Elec       q    Type
REMARK                         _______ _______ _______ _____ _____    ______ ____
ROOT
ATOM      1  C   UNL     1      -9.566   7.667 129.692  0.00  0.00    +0.000 C 
ENDROOT
BRANCH   1   2
ATOM      2  C   UNL     1      -8.743   6.946 130.740  0.00  0.00    +0.000 C 
BRANCH   2   3
ATOM      3  C   UNL     1      -9.599   5.855 131.409  0.00  0.00    +0.000 C 
ATOM      4  C   UNL     1      -9.395   5.861 132.936  0.00  0.00    +0.000 C 
BRANCH   3   5
ATOM      5  C   UNL     1      -9.242   4.493 130.817  0.00  0.00    +0.000 C 
BRANCH   5   6
ATOM      6  C   UNL     1     -10.458   3.650 130.510  0.00  0.00    +0.000 C 
ATOM      7  O   UNL     1     -11.505   4.072 130.019  0.00  0.00    +0.000 OA
ENDBRANCH   5   6
ENDBRANCH   3   5
ENDBRANCH   2   3
ENDBRANCH   1   2
BRANCH   1   8
ATOM      8  C   UNL     1     -11.062   7.551 129.909  0.00  0.00    +0.000 C 
BRANCH   8   9
ATOM      9  C   UNL     1     -11.826   7.654 128.577  0.00  0.00    +0.000 C 
ATOM     10  C   UNL     1     -13.015   8.613 128.696  0.00  0.00    +0.000 C 
ATOM     11  C   UNL     1     -10.907   8.094 127.432  0.00  0.00    +0.000 C 
BRANCH   9  12
ATOM     12  O   UNL     1     -12.322   6.354 128.250  0.00  0.00    +0.000 OA
ATOM     13  H   UNL     1     -12.555   5.906 129.081  0.00  0.00    +0.000 HD
ENDBRANCH   9  12
ENDBRANCH   8   9
ENDBRANCH   1   8
TORSDOF 7
ENDMDL
MODEL 5
REMARK VINA RESULT:      -4.4     10.117     11.036
REMARK  Name = Hydroxycitronellal
REMARK  10 active torsions:
REMARK  status: ('A' for Active; 'I' for Inactive)
REMARK    1  A    between atoms: C_2  and  C_4
REMARK    2  A    between atoms: C_4  and  C_5
REMARK    3  A    between atoms: C_5  and  C_6
REMARK    4  A    between atoms: C_5  and  C_7
REMARK    5  A    between atoms: C_7  and  C_8
REMARK    6  A    between atoms: C_8  and  C_9
REMARK    7  A    between atoms: C_9  and  C_10
REMARK    8  A    between atoms: C_10  and  C_11
REMARK    9  A    between atoms: C_10  and  C_12
REMARK   10  A    between atoms: C_10  and  O_13
REMARK                            x       y       z     vdW  Elec       q    Type
REMARK                         _______ _______ _______ _____ _____    ______ ____
ROOT
ATOM      1  C   UNL     1      -8.468  -2.574 126.878  0.00  0.00    +0.000 C 
ENDROOT
BRANCH   1   2
ATOM      2  C   UNL     1      -9.485  -3.065 125.869  0.00  0.00    +0.000 C 
BRANCH   2   3
ATOM      3  C   UNL     1      -8.759  -3.657 124.647  0.00  0.00    +0.000 C 
ATOM      4  C   UNL     1      -7.274  -3.249 124.645  0.00  0.00    +0.000 C 
BRANCH   3   5
ATOM      5  C   UNL     1      -9.453  -3.192 123.368  0.00  0.00    +0.000 C 
BRANCH   5   6
ATOM      6  C   UNL     1      -9.088  -1.778 122.983  0.00  0.00    +0.000 C 
ATOM      7  O   UNL     1      -9.896  -0.890 122.709  0.00  0.00    +0.000 OA
ENDBRANCH   5   6
ENDBRANCH   3   5
ENDBRANCH   2   3
ENDBRANCH   1   2
BRANCH   1   8
ATOM      8  C   UNL     1      -8.465  -3.365 128.172  0.00  0.00    +0.000 C 
BRANCH   8   9
ATOM      9  C   UNL     1      -7.334  -2.899 129.106  0.00  0.00    +0.000 C 
ATOM     10  C   UNL     1      -6.214  -2.214 128.316  0.00  0.00    +0.000 C 
ATOM     11  C   UNL     1      -7.856  -1.960 130.199  0.00  0.00    +0.000 C 
BRANCH   9  12
ATOM     12  O   UNL     1      -6.793  -4.051 129.755  0.00  0.00    +0.000 OA
ATOM     13  H   UNL     1      -7.536  -4.598 130.060  0.00  0.00    +0.000 HD
ENDBRANCH   9  12
ENDBRANCH   8   9
ENDBRANCH   1   8
TORSDOF 7
ENDMDL
MODEL 6
REMARK VINA RESULT:      -4.3     10.188     11.980
REMARK  Name = Hydroxycitronellal
REMARK  10 active torsions:
REMARK  status: ('A' for Active; 'I' for Inactive)
REMARK    1  A    between atoms: C_2  and  C_4
REMARK    2  A    between atoms: C_4  and  C_5
REMARK    3  A    between atoms: C_5  and  C_6
REMARK    4  A    between atoms: C_5  and  C_7
REMARK    5  A    between atoms: C_7  and  C_8
REMARK    6  A    between atoms: C_8  and  C_9
REMARK    7  A    between atoms: C_9  and  C_10
REMARK    8  A    between atoms: C_10  and  C_11
REMARK    9  A    between atoms: C_10  and  C_12
REMARK   10  A    between atoms: C_10  and  O_13
REMARK                            x       y       z     vdW  Elec       q    Type
REMARK                         _______ _______ _______ _____ _____    ______ ____
ROOT
ATOM      1  C   UNL     1      -7.080  -0.559 124.119  0.00  0.00    +0.000 C 
ENDROOT
BRANCH   1   2
ATOM      2  C   UNL     1      -6.633  -1.726 123.264  0.00  0.00    +0.000 C 
BRANCH   2   3
ATOM      3  C   UNL     1      -5.981  -2.801 124.154  0.00  0.00    +0.000 C 
ATOM      4  C   UNL     1      -5.713  -2.249 125.567  0.00  0.00    +0.000 C 
BRANCH   3   5
ATOM      5  C   UNL     1      -4.687  -3.284 123.503  0.00  0.00    +0.000 C 
BRANCH   5   6
ATOM      6  C   UNL     1      -4.454  -4.765 123.690  0.00  0.00    +0.000 C 
ATOM      7  O   UNL     1      -4.060  -5.535 122.813  0.00  0.00    +0.000 OA
ENDBRANCH   5   6
ENDBRANCH   3   5
ENDBRANCH   2   3
ENDBRANCH   1   2
BRANCH   1   8
ATOM      8  C   UNL     1      -7.756   0.547 123.332  0.00  0.00    +0.000 C 
BRANCH   8   9
ATOM      9  C   UNL     1      -9.232   0.699 123.742  0.00  0.00    +0.000 C 
ATOM     10  C   UNL     1      -9.473   2.039 124.445  0.00  0.00    +0.000 C 
ATOM     11  C   UNL     1     -10.169   0.560 122.537  0.00  0.00    +0.000 C 
BRANCH   9  12
ATOM     12  O   UNL     1      -9.548  -0.356 124.652  0.00  0.00    +0.000 OA
ATOM     13  H   UNL     1     -10.032  -1.040 124.160  0.00  0.00    +0.000 HD
ENDBRANCH   9  12
ENDBRANCH   8   9
ENDBRANCH   1   8
TORSDOF 7
ENDMDL
MODEL 7
REMARK VINA RESULT:      -4.3      1.919      4.693
REMARK  Name = Hydroxycitronellal
REMARK  10 active torsions:
REMARK  status: ('A' for Active; 'I' for Inactive)
REMARK    1  A    between atoms: C_2  and  C_4
REMARK    2  A    between atoms: C_4  and  C_5
REMARK    3  A    between atoms: C_5  and  C_6
REMARK    4  A    between atoms: C_5  and  C_7
REMARK    5  A    between atoms: C_7  and  C_8
REMARK    6  A    between atoms: C_8  and  C_9
REMARK    7  A    between atoms: C_9  and  C_10
REMARK    8  A    between atoms: C_10  and  C_11
REMARK    9  A    between atoms: C_10  and  C_12
REMARK   10  A    between atoms: C_10  and  O_13
REMARK                            x       y       z     vdW  Elec       q    Type
REMARK                         _______ _______ _______ _____ _____    ______ ____
ROOT
ATOM      1  C   UNL     1     -11.994   6.727 130.302  0.00  0.00    +0.000 C 
ENDROOT
BRANCH   1   2
ATOM      2  C   UNL     1     -11.057   6.575 131.481  0.00  0.00    +0.000 C 
BRANCH   2   3
ATOM      3  C   UNL     1      -9.598   6.610 130.991  0.00  0.00    +0.000 C 
ATOM      4  C   UNL     1      -9.421   5.729 129.740  0.00  0.00    +0.000 C 
BRANCH   3   5
ATOM      5  C   UNL     1      -8.671   6.151 132.115  0.00  0.00    +0.000 C 
BRANCH   5   6
ATOM      6  C   UNL     1      -9.274   5.053 132.960  0.00  0.00    +0.000 C 
ATOM      7  O   UNL     1      -9.057   3.850 132.814  0.00  0.00    +0.000 OA
ENDBRANCH   5   6
ENDBRANCH   3   5
ENDBRANCH   2   3
ENDBRANCH   1   2
BRANCH   1   8
ATOM      8  C   UNL     1     -12.599   8.112 130.182  0.00  0.00    +0.000 C 
BRANCH   8   9
ATOM      9  C   UNL     1     -12.625   8.582 128.716  0.00  0.00    +0.000 C 
ATOM     10  C   UNL     1     -11.232   8.493 128.084  0.00  0.00    +0.000 C 
ATOM     11  C   UNL     1     -13.632   7.779 127.884  0.00  0.00    +0.000 C 
BRANCH   9  12
ATOM     12  O   UNL     1     -13.047   9.946 128.696  0.00  0.00    +0.000 OA
ATOM     13  H   UNL     1     -12.251  10.505 128.711  0.00  0.00    +0.000 HD
ENDBRANCH   9  12
ENDBRANCH   8   9
ENDBRANCH   1   8
TORSDOF 7
ENDMDL
MODEL 8
REMARK VINA RESULT:      -4.3      9.783     11.666
REMARK  Name = Hydroxycitronellal
REMARK  10 active torsions:
REMARK  status: ('A' for Active; 'I' for Inactive)
REMARK    1  A    between atoms: C_2  and  C_4
REMARK    2  A    between atoms: C_4  and  C_5
REMARK    3  A    between atoms: C_5  and  C_6
REMARK    4  A    between atoms: C_5  and  C_7
REMARK    5  A    between atoms: C_7  and  C_8
REMARK    6  A    between atoms: C_8  and  C_9
REMARK    7  A    between atoms: C_9  and  C_10
REMARK    8  A    between atoms: C_10  and  C_11
REMARK    9  A    between atoms: C_10  and  C_12
REMARK   10  A    between atoms: C_10  and  O_13
REMARK                            x       y       z     vdW  Elec       q    Type
REMARK                         _______ _______ _______ _____ _____    ______ ____
ROOT
ATOM      1  C   UNL     1      -8.644  -2.958 123.893  0.00  0.00    +0.000 C 
ENDROOT
BRANCH   1   2
ATOM      2  C   UNL     1      -7.364  -3.669 124.281  0.00  0.00    +0.000 C 
BRANCH   2   3
ATOM      3  C   UNL     1      -6.199  -2.662 124.305  0.00  0.00    +0.000 C 
ATOM      4  C   UNL     1      -5.007  -3.188 123.484  0.00  0.00    +0.000 C 
BRANCH   3   5
ATOM      5  C   UNL     1      -5.789  -2.393 125.751  0.00  0.00    +0.000 C 
BRANCH   5   6
ATOM      6  C   UNL     1      -6.415  -1.139 126.315  0.00  0.00    +0.000 C 
ATOM      7  O   UNL     1      -7.572  -1.051 126.728  0.00  0.00    +0.000 OA
ENDBRANCH   5   6
ENDBRANCH   3   5
ENDBRANCH   2   3
ENDBRANCH   1   2
BRANCH   1   8
ATOM      8  C   UNL     1      -8.446  -1.881 122.845  0.00  0.00    +0.000 C 
BRANCH   8   9
ATOM      9  C   UNL     1      -8.990  -0.525 123.332  0.00  0.00    +0.000 C 
ATOM     10  C   UNL     1      -7.868   0.512 123.439  0.00  0.00    +0.000 C 
ATOM     11  C   UNL     1     -10.103  -0.002 122.417  0.00  0.00    +0.000 C 
BRANCH   9  12
ATOM     12  O   UNL     1      -9.558  -0.717 124.628  0.00  0.00    +0.000 OA
ATOM     13  H   UNL     1     -10.524  -0.766 124.527  0.00  0.00    +0.000 HD
ENDBRANCH   9  12
ENDBRANCH   8   9
ENDBRANCH   1   8
TORSDOF 7
ENDMDL
MODEL 9
REMARK VINA RESULT:      -4.2      9.859     11.300
REMARK  Name = Hydroxycitronellal
REMARK  10 active torsions:
REMARK  status: ('A' for Active; 'I' for Inactive)
REMARK    1  A    between atoms: C_2  and  C_4
REMARK    2  A    between atoms: C_4  and  C_5
REMARK    3  A    between atoms: C_5  and  C_6
REMARK    4  A    between atoms: C_5  and  C_7
REMARK    5  A    between atoms: C_7  and  C_8
REMARK    6  A    between atoms: C_8  and  C_9
REMARK    7  A    between atoms: C_9  and  C_10
REMARK    8  A    between atoms: C_10  and  C_11
REMARK    9  A    between atoms: C_10  and  C_12
REMARK   10  A    between atoms: C_10  and  O_13
REMARK                            x       y       z     vdW  Elec       q    Type
REMARK                         _______ _______ _______ _____ _____    ______ ____
ROOT
ATOM      1  C   UNL     1      -8.510  -3.834 126.890  0.00  0.00    +0.000 C 
ENDROOT
BRANCH   1   2
ATOM      2  C   UNL     1      -9.374  -3.007 125.959  0.00  0.00    +0.000 C 
BRANCH   2   3
ATOM      3  C   UNL     1      -8.694  -2.901 124.581  0.00  0.00    +0.000 C 
ATOM      4  C   UNL     1      -9.676  -3.284 123.458  0.00  0.00    +0.000 C 
BRANCH   3   5
ATOM      5  C   UNL     1      -7.458  -3.798 124.553  0.00  0.00    +0.000 C 
BRANCH   5   6
ATOM      6  C   UNL     1      -6.184  -3.033 124.280  0.00  0.00    +0.000 C 
ATOM      7  O   UNL     1      -5.578  -2.352 125.108  0.00  0.00    +0.000 OA
ENDBRANCH   5   6
ENDBRANCH   3   5
ENDBRANCH   2   3
ENDBRANCH   1   2
BRANCH   1   8
ATOM      8  C   UNL     1      -8.728  -3.521 128.358  0.00  0.00    +0.000 C 
BRANCH   8   9
ATOM      9  C   UNL     1      -7.478  -2.872 128.979  0.00  0.00    +0.000 C 
ATOM     10  C   UNL     1      -7.842  -1.594 129.743  0.00  0.00    +0.000 C 
ATOM     11  C   UNL     1      -6.738  -3.845 129.904  0.00  0.00    +0.000 C 
BRANCH   9  12
ATOM     12  O   UNL     1      -6.585  -2.529 127.918  0.00  0.00    +0.000 OA
ATOM     13  H   UNL     1      -6.465  -1.564 127.929  0.00  0.00    +0.000 HD
ENDBRANCH   9  12
ENDBRANCH   8   9
ENDBRANCH   1   8
TORSDOF 7
ENDMDL
