MODEL 1
REMARK VINA RESULT:      -8.0      0.000      0.000
REMARK  Name = Hydrocortamate
REMARK  14 active torsions:
REMARK  status: ('A' for Active; 'I' for Inactive)
REMARK    1  A    between atoms: C_5  and  O_6
REMARK    2  A    between atoms: C_5  and  C_7
REMARK    3  A    between atoms: C_7  and  C_9
REMARK    4  A    between atoms: C_9  and  O_10
REMARK    5  A    between atoms: O_10  and  C_11
REMARK    6  A    between atoms: C_11  and  C_13
REMARK    7  A    between atoms: C_13  and  N_14
REMARK    8  A    between atoms: N_14  and  C_15
REMARK    9  A    between atoms: N_14  and  C_17
REMARK   10  A    between atoms: C_15  and  C_16
REMARK   11  A    between atoms: C_17  and  C_18
REMARK   12  A    between atoms: C_19  and  C_20
REMARK   13  A    between atoms: C_22  and  O_23
REMARK   14  A    between atoms: C_36  and  C_37
REMARK                            x       y       z     vdW  Elec       q    Type
REMARK                         _______ _______ _______ _____ _____    ______ ____
ROOT
ATOM      1  C   UNL     1      -7.322  -2.894 130.385  0.00  0.00    +0.000 C 
ATOM      2  C   UNL     1      -6.382  -3.953 130.363  0.00  0.00    +0.000 C 
ATOM      3  C   UNL     1      -5.901  -2.630 129.849  0.00  0.00    +0.000 C 
ATOM      4  C   UNL     1      -7.007  -0.920 130.389  0.00  0.00    +0.000 C 
ATOM      5  C   UNL     1      -6.015  -1.645 131.026  0.00  0.00    +0.000 C 
ATOM      6  C   UNL     1      -5.750  -1.791 132.469  0.00  0.00    +0.000 C 
ATOM      7  C   UNL     1      -4.972  -0.732 129.735  0.00  0.00    +0.000 C 
ATOM      8  C   UNL     1      -5.835  -0.549 128.251  0.00  0.00    +0.000 C 
ATOM      9  C   UNL     1      -6.690  -1.816 127.600  0.00  0.00    +0.000 C 
ATOM     10  C   UNL     1      -7.867  -2.474 128.693  0.00  0.00    +0.000 C 
ATOM     11  C   UNL     1      -8.475  -3.741 128.130  0.00  0.00    +0.000 C 
ATOM     12  C   UNL     1      -8.975  -3.551 126.724  0.00  0.00    +0.000 C 
ATOM     13  C   UNL     1      -8.007  -2.945 125.752  0.00  0.00    +0.000 C 
ATOM     14  C   UNL     1      -7.926  -3.427 124.505  0.00  0.00    +0.000 C 
ATOM     15  C   UNL     1      -7.246  -2.538 123.563  0.00  0.00    +0.000 C 
ATOM     16  O   UNL     1      -7.703  -1.496 123.098  0.00  0.00    +0.000 OA
ATOM     17  C   UNL     1      -5.815  -2.703 123.615  0.00  0.00    +0.000 C 
ATOM     18  C   UNL     1      -5.831  -1.676 124.996  0.00  0.00    +0.000 C 
ATOM     19  C   UNL     1      -7.206  -1.700 126.125  0.00  0.00    +0.000 C 
ATOM     20  C   UNL     1      -8.224  -0.537 126.196  0.00  0.00    +0.000 C 
ENDROOT
BRANCH   4  21
ATOM     21  O   UNL     1      -8.239  -1.094 131.205  0.00  0.00    +0.000 OA
ATOM     22  H   UNL     1      -8.261  -0.514 131.980  0.00  0.00    +0.000 HD
ENDBRANCH   4  21
BRANCH   4  23
ATOM     23  C   UNL     1      -6.609   0.695 131.196  0.00  0.00    +0.000 C 
ATOM     24  O   UNL     1      -7.487   1.472 131.619  0.00  0.00    +0.000 OA
BRANCH  23  25
ATOM     25  C   UNL     1      -5.126   1.350 131.346  0.00  0.00    +0.000 C 
BRANCH  25  26
ATOM     26  O   UNL     1      -5.209   2.855 131.056  0.00  0.00    +0.000 OA
BRANCH  26  27
ATOM     27  C   UNL     1      -5.149   3.299 129.752  0.00  0.00    +0.000 C 
ATOM     28  O   UNL     1      -6.049   3.995 129.292  0.00  0.00    +0.000 OA
BRANCH  27  29
ATOM     29  C   UNL     1      -3.851   2.856 128.933  0.00  0.00    +0.000 C 
BRANCH  29  30
ATOM     30  N   UNL     1      -3.813   3.362 127.495  0.00  0.00    +0.000 NA
BRANCH  30  31
ATOM     31  C   UNL     1      -2.501   3.940 127.126  0.00  0.00    +0.000 C 
ATOM     32  C   UNL     1      -1.534   2.977 126.478  0.00  0.00    +0.000 C 
ENDBRANCH  30  31
BRANCH  30  33
ATOM     33  C   UNL     1      -4.142   2.279 126.520  0.00  0.00    +0.000 C 
ATOM     34  C   UNL     1      -5.460   2.522 125.761  0.00  0.00    +0.000 C 
ENDBRANCH  30  33
ENDBRANCH  29  30
ENDBRANCH  27  29
ENDBRANCH  26  27
ENDBRANCH  25  26
ENDBRANCH  23  25
ENDBRANCH   4  23
BRANCH   8  35
ATOM     35  O   UNL     1      -6.708   0.582 128.457  0.00  0.00    +0.000 OA
ATOM     36  H   UNL     1      -6.552   1.261 127.776  0.00  0.00    +0.000 HD
ENDBRANCH   8  35
TORSDOF 10
ENDMDL
MODEL 2
REMARK VINA RESULT:      -8.0      2.893      3.781
REMARK  Name = Hydrocortamate
REMARK  14 active torsions:
REMARK  status: ('A' for Active; 'I' for Inactive)
REMARK    1  A    between atoms: C_5  and  O_6
REMARK    2  A    between atoms: C_5  and  C_7
REMARK    3  A    between atoms: C_7  and  C_9
REMARK    4  A    between atoms: C_9  and  O_10
REMARK    5  A    between atoms: O_10  and  C_11
REMARK    6  A    between atoms: C_11  and  C_13
REMARK    7  A    between atoms: C_13  and  N_14
REMARK    8  A    between atoms: N_14  and  C_15
REMARK    9  A    between atoms: N_14  and  C_17
REMARK   10  A    between atoms: C_15  and  C_16
REMARK   11  A    between atoms: C_17  and  C_18
REMARK   12  A    between atoms: C_19  and  C_20
REMARK   13  A    between atoms: C_22  and  O_23
REMARK   14  A    between atoms: C_36  and  C_37
REMARK                            x       y       z     vdW  Elec       q    Type
REMARK                         _______ _______ _______ _____ _____    ______ ____
ROOT
ATOM      1  C   UNL     1      -7.590  -2.498 130.477  0.00  0.00    +0.000 C 
ATOM      2  C   UNL     1      -6.678  -3.569 130.645  0.00  0.00    +0.000 C 
ATOM      3  C   UNL     1      -6.132  -2.326 130.009  0.00  0.00    +0.000 C 
ATOM      4  C   UNL     1      -7.225  -0.544 130.265  0.00  0.00    +0.000 C 
ATOM      5  C   UNL     1      -6.295  -1.205 131.049  0.00  0.00    +0.000 C 
ATOM      6  C   UNL     1      -6.127  -1.178 132.513  0.00  0.00    +0.000 C 
ATOM      7  C   UNL     1      -5.149  -0.473 129.730  0.00  0.00    +0.000 C 
ATOM      8  C   UNL     1      -5.909  -0.457 128.181  0.00  0.00    +0.000 C 
ATOM      9  C   UNL     1      -6.753  -1.779 127.631  0.00  0.00    +0.000 C 
ATOM     10  C   UNL     1      -8.014  -2.277 128.715  0.00  0.00    +0.000 C 
ATOM     11  C   UNL     1      -8.617  -3.592 128.268  0.00  0.00    +0.000 C 
ATOM     12  C   UNL     1      -9.021  -3.566 126.819  0.00  0.00    +0.000 C 
ATOM     13  C   UNL     1      -7.978  -3.100 125.848  0.00  0.00    +0.000 C 
ATOM     14  C   UNL     1      -7.829  -3.731 124.676  0.00  0.00    +0.000 C 
ATOM     15  C   UNL     1      -7.067  -2.976 123.682  0.00  0.00    +0.000 C 
ATOM     16  O   UNL     1      -7.467  -1.990 123.065  0.00  0.00    +0.000 OA
ATOM     17  C   UNL     1      -5.648  -3.158 123.848  0.00  0.00    +0.000 C 
ATOM     18  C   UNL     1      -5.726  -1.971 125.092  0.00  0.00    +0.000 C 
ATOM     19  C   UNL     1      -7.171  -1.833 126.122  0.00  0.00    +0.000 C 
ATOM     20  C   UNL     1      -8.160  -0.652 125.984  0.00  0.00    +0.000 C 
ENDROOT
BRANCH   4  21
ATOM     21  O   UNL     1      -8.511  -0.596 131.012  0.00  0.00    +0.000 OA
ATOM     22  H   UNL     1      -9.142  -1.224 130.630  0.00  0.00    +0.000 HD
ENDBRANCH   4  21
BRANCH   4  23
ATOM     23  C   UNL     1      -6.838   1.149 130.897  0.00  0.00    +0.000 C 
ATOM     24  O   UNL     1      -5.698   1.649 130.832  0.00  0.00    +0.000 OA
BRANCH  23  25
ATOM     25  C   UNL     1      -7.860   2.126 131.703  0.00  0.00    +0.000 C 
BRANCH  25  26
ATOM     26  O   UNL     1      -9.143   2.304 130.880  0.00  0.00    +0.000 OA
BRANCH  26  27
ATOM     27  C   UNL     1      -9.095   2.996 129.689  0.00  0.00    +0.000 C 
ATOM     28  O   UNL     1      -9.142   2.395 128.620  0.00  0.00    +0.000 OA
BRANCH  27  29
ATOM     29  C   UNL     1      -8.991   4.585 129.820  0.00  0.00    +0.000 C 
BRANCH  29  30
ATOM     30  N   UNL     1     -10.307   5.320 129.593  0.00  0.00    +0.000 NA
BRANCH  30  31
ATOM     31  C   UNL     1     -11.237   5.198 130.738  0.00  0.00    +0.000 C 
ATOM     32  C   UNL     1     -11.685   6.508 131.344  0.00  0.00    +0.000 C 
ENDBRANCH  30  31
BRANCH  30  33
ATOM     33  C   UNL     1     -10.088   6.771 129.316  0.00  0.00    +0.000 C 
ATOM     34  C   UNL     1     -10.517   7.194 127.898  0.00  0.00    +0.000 C 
ENDBRANCH  30  33
ENDBRANCH  29  30
ENDBRANCH  27  29
ENDBRANCH  26  27
ENDBRANCH  25  26
ENDBRANCH  23  25
ENDBRANCH   4  23
BRANCH   8  35
ATOM     35  O   UNL     1      -6.765   0.706 128.191  0.00  0.00    +0.000 OA
ATOM     36  H   UNL     1      -6.284   1.484 127.855  0.00  0.00    +0.000 HD
ENDBRANCH   8  35
TORSDOF 10
ENDMDL
MODEL 3
REMARK VINA RESULT:      -7.9      1.121      1.586
REMARK  Name = Hydrocortamate
REMARK  14 active torsions:
REMARK  status: ('A' for Active; 'I' for Inactive)
REMARK    1  A    between atoms: C_5  and  O_6
REMARK    2  A    between atoms: C_5  and  C_7
REMARK    3  A    between atoms: C_7  and  C_9
REMARK    4  A    between atoms: C_9  and  O_10
REMARK    5  A    between atoms: O_10  and  C_11
REMARK    6  A    between atoms: C_11  and  C_13
REMARK    7  A    between atoms: C_13  and  N_14
REMARK    8  A    between atoms: N_14  and  C_15
REMARK    9  A    between atoms: N_14  and  C_17
REMARK   10  A    between atoms: C_15  and  C_16
REMARK   11  A    between atoms: C_17  and  C_18
REMARK   12  A    between atoms: C_19  and  C_20
REMARK   13  A    between atoms: C_22  and  O_23
REMARK   14  A    between atoms: C_36  and  C_37
REMARK                            x       y       z     vdW  Elec       q    Type
REMARK                         _______ _______ _______ _____ _____    ______ ____
ROOT
ATOM      1  C   UNL     1      -7.083  -3.080 130.459  0.00  0.00    +0.000 C 
ATOM      2  C   UNL     1      -6.279  -4.245 130.385  0.00  0.00    +0.000 C 
ATOM      3  C   UNL     1      -5.670  -2.985 129.849  0.00  0.00    +0.000 C 
ATOM      4  C   UNL     1      -6.532  -1.159 130.450  0.00  0.00    +0.000 C 
ATOM      5  C   UNL     1      -5.604  -2.004 131.033  0.00  0.00    +0.000 C 
ATOM      6  C   UNL     1      -5.284  -2.191 132.459  0.00  0.00    +0.000 C 
ATOM      7  C   UNL     1      -4.526  -1.211 129.691  0.00  0.00    +0.000 C 
ATOM      8  C   UNL     1      -5.436  -0.914 128.254  0.00  0.00    +0.000 C 
ATOM      9  C   UNL     1      -6.470  -2.064 127.647  0.00  0.00    +0.000 C 
ATOM     10  C   UNL     1      -7.660  -2.584 128.799  0.00  0.00    +0.000 C 
ATOM     11  C   UNL     1      -8.444  -3.764 128.265  0.00  0.00    +0.000 C 
ATOM     12  C   UNL     1      -8.990  -3.504 126.888  0.00  0.00    +0.000 C 
ATOM     13  C   UNL     1      -8.007  -3.011 125.868  0.00  0.00    +0.000 C 
ATOM     14  C   UNL     1      -8.050  -3.489 124.617  0.00  0.00    +0.000 C 
ATOM     15  C   UNL     1      -7.317  -2.681 123.642  0.00  0.00    +0.000 C 
ATOM     16  O   UNL     1      -7.668  -1.588 123.204  0.00  0.00    +0.000 OA
ATOM     17  C   UNL     1      -5.915  -3.016 123.619  0.00  0.00    +0.000 C 
ATOM     18  C   UNL     1      -5.736  -2.007 125.001  0.00  0.00    +0.000 C 
ATOM     19  C   UNL     1      -7.044  -1.874 126.201  0.00  0.00    +0.000 C 
ATOM     20  C   UNL     1      -7.909  -0.598 126.327  0.00  0.00    +0.000 C 
ENDROOT
BRANCH   4  21
ATOM     21  O   UNL     1      -7.733  -1.190 131.329  0.00  0.00    +0.000 OA
ATOM     22  H   UNL     1      -8.279  -1.978 131.191  0.00  0.00    +0.000 HD
ENDBRANCH   4  21
BRANCH   4  23
ATOM     23  C   UNL     1      -5.901   0.389 131.238  0.00  0.00    +0.000 C 
ATOM     24  O   UNL     1      -6.626   1.145 131.915  0.00  0.00    +0.000 OA
BRANCH  23  25
ATOM     25  C   UNL     1      -4.409   1.015 131.061  0.00  0.00    +0.000 C 
BRANCH  25  26
ATOM     26  O   UNL     1      -4.463   2.172 130.054  0.00  0.00    +0.000 OA
BRANCH  26  27
ATOM     27  C   UNL     1      -3.966   3.407 130.411  0.00  0.00    +0.000 C 
ATOM     28  O   UNL     1      -3.526   3.594 131.541  0.00  0.00    +0.000 OA
BRANCH  27  29
ATOM     29  C   UNL     1      -4.000   4.520 129.266  0.00  0.00    +0.000 C 
BRANCH  29  30
ATOM     30  N   UNL     1      -2.656   4.762 128.587  0.00  0.00    +0.000 NA
BRANCH  30  31
ATOM     31  C   UNL     1      -2.636   4.308 127.178  0.00  0.00    +0.000 C 
ATOM     32  C   UNL     1      -1.826   3.060 126.916  0.00  0.00    +0.000 C 
ENDBRANCH  30  31
BRANCH  30  33
ATOM     33  C   UNL     1      -2.271   6.205 128.623  0.00  0.00    +0.000 C 
ATOM     34  C   UNL     1      -3.477   7.160 128.542  0.00  0.00    +0.000 C 
ENDBRANCH  30  33
ENDBRANCH  29  30
ENDBRANCH  27  29
ENDBRANCH  26  27
ENDBRANCH  25  26
ENDBRANCH  23  25
ENDBRANCH   4  23
BRANCH   8  35
ATOM     35  O   UNL     1      -6.155   0.312 128.508  0.00  0.00    +0.000 OA
ATOM     36  H   UNL     1      -7.092   0.123 128.696  0.00  0.00    +0.000 HD
ENDBRANCH   8  35
TORSDOF 10
ENDMDL
MODEL 4
REMARK VINA RESULT:      -7.8      3.762      8.736
REMARK  Name = Hydrocortamate
REMARK  14 active torsions:
REMARK  status: ('A' for Active; 'I' for Inactive)
REMARK    1  A    between atoms: C_5  and  O_6
REMARK    2  A    between atoms: C_5  and  C_7
REMARK    3  A    between atoms: C_7  and  C_9
REMARK    4  A    between atoms: C_9  and  O_10
REMARK    5  A    between atoms: O_10  and  C_11
REMARK    6  A    between atoms: C_11  and  C_13
REMARK    7  A    between atoms: C_13  and  N_14
REMARK    8  A    between atoms: N_14  and  C_15
REMARK    9  A    between atoms: N_14  and  C_17
REMARK   10  A    between atoms: C_15  and  C_16
REMARK   11  A    between atoms: C_17  and  C_18
REMARK   12  A    between atoms: C_19  and  C_20
REMARK   13  A    between atoms: C_22  and  O_23
REMARK   14  A    between atoms: C_36  and  C_37
REMARK                            x       y       z     vdW  Elec       q    Type
REMARK                         _______ _______ _______ _____ _____    ______ ____
ROOT
ATOM      1  C   UNL     1      -3.864   4.220 126.522  0.00  0.00    +0.000 C 
ATOM      2  C   UNL     1      -2.935   3.152 126.576  0.00  0.00    +0.000 C 
ATOM      3  C   UNL     1      -4.101   3.064 127.513  0.00  0.00    +0.000 C 
ATOM      4  C   UNL     1      -5.781   4.263 127.088  0.00  0.00    +0.000 C 
ATOM      5  C   UNL     1      -5.360   3.026 126.629  0.00  0.00    +0.000 C 
ATOM      6  C   UNL     1      -5.651   2.362 125.346  0.00  0.00    +0.000 C 
ATOM      7  C   UNL     1      -5.971   2.544 128.357  0.00  0.00    +0.000 C 
ATOM      8  C   UNL     1      -5.648   3.792 129.505  0.00  0.00    +0.000 C 
ATOM      9  C   UNL     1      -4.173   4.557 129.540  0.00  0.00    +0.000 C 
ATOM     10  C   UNL     1      -3.740   5.264 128.015  0.00  0.00    +0.000 C 
ATOM     11  C   UNL     1      -2.314   5.772 128.045  0.00  0.00    +0.000 C 
ATOM     12  C   UNL     1      -2.053   6.657 129.233  0.00  0.00    +0.000 C 
ATOM     13  C   UNL     1      -2.453   6.107 130.570  0.00  0.00    +0.000 C 
ATOM     14  C   UNL     1      -1.651   6.282 131.629  0.00  0.00    +0.000 C 
ATOM     15  C   UNL     1      -2.300   6.045 132.918  0.00  0.00    +0.000 C 
ATOM     16  O   UNL     1      -3.122   6.784 133.456  0.00  0.00    +0.000 OA
ATOM     17  C   UNL     1      -2.294   4.647 133.267  0.00  0.00    +0.000 C 
ATOM     18  C   UNL     1      -3.660   4.469 132.236  0.00  0.00    +0.000 C 
ATOM     19  C   UNL     1      -3.822   5.464 130.769  0.00  0.00    +0.000 C 
ATOM     20  C   UNL     1      -4.857   6.610 130.672  0.00  0.00    +0.000 C 
ENDROOT
BRANCH   4  21
ATOM     21  O   UNL     1      -5.725   5.180 125.917  0.00  0.00    +0.000 OA
ATOM     22  H   UNL     1      -5.028   5.847 125.996  0.00  0.00    +0.000 HD
ENDBRANCH   4  21
BRANCH   4  23
ATOM     23  C   UNL     1      -7.587   3.948 126.852  0.00  0.00    +0.000 C 
ATOM     24  O   UNL     1      -8.429   4.865 126.794  0.00  0.00    +0.000 OA
BRANCH  23  25
ATOM     25  C   UNL     1      -8.307   2.489 126.816  0.00  0.00    +0.000 C 
BRANCH  25  26
ATOM     26  O   UNL     1      -9.094   2.347 125.505  0.00  0.00    +0.000 OA
BRANCH  26  27
ATOM     27  C   UNL     1      -9.393   1.090 125.026  0.00  0.00    +0.000 C 
ATOM     28  O   UNL     1     -10.245   0.402 125.579  0.00  0.00    +0.000 OA
BRANCH  27  29
ATOM     29  C   UNL     1      -8.574   0.635 123.731  0.00  0.00    +0.000 C 
BRANCH  29  30
ATOM     30  N   UNL     1      -8.163  -0.833 123.733  0.00  0.00    +0.000 NA
BRANCH  30  31
ATOM     31  C   UNL     1      -9.057  -1.680 122.912  0.00  0.00    +0.000 C 
ATOM     32  C   UNL     1      -9.312  -3.065 123.460  0.00  0.00    +0.000 C 
ENDBRANCH  30  31
BRANCH  30  33
ATOM     33  C   UNL     1      -6.763  -1.015 123.246  0.00  0.00    +0.000 C 
ATOM     34  C   UNL     1      -5.831  -1.659 124.290  0.00  0.00    +0.000 C 
ENDBRANCH  30  33
ENDBRANCH  29  30
ENDBRANCH  27  29
ENDBRANCH  26  27
ENDBRANCH  25  26
ENDBRANCH  23  25
ENDBRANCH   4  23
BRANCH   8  35
ATOM     35  O   UNL     1      -6.703   4.760 129.319  0.00  0.00    +0.000 OA
ATOM     36  H   UNL     1      -6.366   5.662 129.467  0.00  0.00    +0.000 HD
ENDBRANCH   8  35
TORSDOF 10
ENDMDL
MODEL 5
REMARK VINA RESULT:      -7.6      2.628      3.823
REMARK  Name = Hydrocortamate
REMARK  14 active torsions:
REMARK  status: ('A' for Active; 'I' for Inactive)
REMARK    1  A    between atoms: C_5  and  O_6
REMARK    2  A    between atoms: C_5  and  C_7
REMARK    3  A    between atoms: C_7  and  C_9
REMARK    4  A    between atoms: C_9  and  O_10
REMARK    5  A    between atoms: O_10  and  C_11
REMARK    6  A    between atoms: C_11  and  C_13
REMARK    7  A    between atoms: C_13  and  N_14
REMARK    8  A    between atoms: N_14  and  C_15
REMARK    9  A    between atoms: N_14  and  C_17
REMARK   10  A    between atoms: C_15  and  C_16
REMARK   11  A    between atoms: C_17  and  C_18
REMARK   12  A    between atoms: C_19  and  C_20
REMARK   13  A    between atoms: C_22  and  O_23
REMARK   14  A    between atoms: C_36  and  C_37
REMARK                            x       y       z     vdW  Elec       q    Type
REMARK                         _______ _______ _______ _____ _____    ______ ____
ROOT
ATOM      1  C   UNL     1      -7.381  -2.837 130.382  0.00  0.00    +0.000 C 
ATOM      2  C   UNL     1      -6.532  -3.970 130.426  0.00  0.00    +0.000 C 
ATOM      3  C   UNL     1      -5.929  -2.711 129.879  0.00  0.00    +0.000 C 
ATOM      4  C   UNL     1      -6.902  -0.897 130.322  0.00  0.00    +0.000 C 
ATOM      5  C   UNL     1      -5.992  -1.676 131.015  0.00  0.00    +0.000 C 
ATOM      6  C   UNL     1      -5.779  -1.785 132.469  0.00  0.00    +0.000 C 
ATOM      7  C   UNL     1      -4.843  -0.902 129.722  0.00  0.00    +0.000 C 
ATOM      8  C   UNL     1      -5.647  -0.708 128.208  0.00  0.00    +0.000 C 
ATOM      9  C   UNL     1      -6.587  -1.925 127.579  0.00  0.00    +0.000 C 
ATOM     10  C   UNL     1      -7.843  -2.440 128.660  0.00  0.00    +0.000 C 
ATOM     11  C   UNL     1      -8.539  -3.674 128.126  0.00  0.00    +0.000 C 
ATOM     12  C   UNL     1      -8.985  -3.499 126.700  0.00  0.00    +0.000 C 
ATOM     13  C   UNL     1      -7.944  -3.013 125.735  0.00  0.00    +0.000 C 
ATOM     14  C   UNL     1      -7.870  -3.549 124.510  0.00  0.00    +0.000 C 
ATOM     15  C   UNL     1      -7.093  -2.757 123.556  0.00  0.00    +0.000 C 
ATOM     16  O   UNL     1      -7.450  -1.700 123.040  0.00  0.00    +0.000 OA
ATOM     17  C   UNL     1      -5.683  -3.036 123.657  0.00  0.00    +0.000 C 
ATOM     18  C   UNL     1      -5.651  -1.959 124.998  0.00  0.00    +0.000 C 
ATOM     19  C   UNL     1      -7.053  -1.825 126.086  0.00  0.00    +0.000 C 
ATOM     20  C   UNL     1      -7.971  -0.580 126.083  0.00  0.00    +0.000 C 
ENDROOT
BRANCH   4  21
ATOM     21  O   UNL     1      -8.166  -0.937 131.107  0.00  0.00    +0.000 OA
ATOM     22  H   UNL     1      -8.021  -0.825 132.058  0.00  0.00    +0.000 HD
ENDBRANCH   4  21
BRANCH   4  23
ATOM     23  C   UNL     1      -6.393   0.710 131.081  0.00  0.00    +0.000 C 
ATOM     24  O   UNL     1      -5.311   1.269 130.814  0.00  0.00    +0.000 OA
BRANCH  23  25
ATOM     25  C   UNL     1      -7.196   1.516 132.245  0.00  0.00    +0.000 C 
BRANCH  25  26
ATOM     26  O   UNL     1      -8.048   2.618 131.600  0.00  0.00    +0.000 OA
BRANCH  26  27
ATOM     27  C   UNL     1      -9.414   2.458 131.516  0.00  0.00    +0.000 C 
ATOM     28  O   UNL     1      -9.960   1.499 132.051  0.00  0.00    +0.000 OA
BRANCH  27  29
ATOM     29  C   UNL     1     -10.191   3.595 130.705  0.00  0.00    +0.000 C 
BRANCH  29  30
ATOM     30  N   UNL     1      -9.767   5.017 131.055  0.00  0.00    +0.000 NA
BRANCH  30  31
ATOM     31  C   UNL     1     -10.540   6.043 130.321  0.00  0.00    +0.000 C 
ATOM     32  C   UNL     1      -9.763   7.280 129.934  0.00  0.00    +0.000 C 
ENDBRANCH  30  31
BRANCH  30  33
ATOM     33  C   UNL     1      -9.896   5.287 132.518  0.00  0.00    +0.000 C 
ATOM     34  C   UNL     1      -8.612   5.855 133.151  0.00  0.00    +0.000 C 
ENDBRANCH  30  33
ENDBRANCH  29  30
ENDBRANCH  27  29
ENDBRANCH  26  27
ENDBRANCH  25  26
ENDBRANCH  23  25
ENDBRANCH   4  23
BRANCH   8  35
ATOM     35  O   UNL     1      -6.429   0.498 128.346  0.00  0.00    +0.000 OA
ATOM     36  H   UNL     1      -6.317   0.875 129.238  0.00  0.00    +0.000 HD
ENDBRANCH   8  35
TORSDOF 10
ENDMDL
MODEL 6
REMARK VINA RESULT:      -7.4      1.611      2.224
REMARK  Name = Hydrocortamate
REMARK  14 active torsions:
REMARK  status: ('A' for Active; 'I' for Inactive)
REMARK    1  A    between atoms: C_5  and  O_6
REMARK    2  A    between atoms: C_5  and  C_7
REMARK    3  A    between atoms: C_7  and  C_9
REMARK    4  A    between atoms: C_9  and  O_10
REMARK    5  A    between atoms: O_10  and  C_11
REMARK    6  A    between atoms: C_11  and  C_13
REMARK    7  A    between atoms: C_13  and  N_14
REMARK    8  A    between atoms: N_14  and  C_15
REMARK    9  A    between atoms: N_14  and  C_17
REMARK   10  A    between atoms: C_15  and  C_16
REMARK   11  A    between atoms: C_17  and  C_18
REMARK   12  A    between atoms: C_19  and  C_20
REMARK   13  A    between atoms: C_22  and  O_23
REMARK   14  A    between atoms: C_36  and  C_37
REMARK                            x       y       z     vdW  Elec       q    Type
REMARK                         _______ _______ _______ _____ _____    ______ ____
ROOT
ATOM      1  C   UNL     1      -7.418  -2.681 130.539  0.00  0.00    +0.000 C 
ATOM      2  C   UNL     1      -6.533  -3.782 130.636  0.00  0.00    +0.000 C 
ATOM      3  C   UNL     1      -5.969  -2.530 130.035  0.00  0.00    +0.000 C 
ATOM      4  C   UNL     1      -7.003  -0.731 130.396  0.00  0.00    +0.000 C 
ATOM      5  C   UNL     1      -6.071  -1.448 131.125  0.00  0.00    +0.000 C 
ATOM      6  C   UNL     1      -5.860  -1.487 132.583  0.00  0.00    +0.000 C 
ATOM      7  C   UNL     1      -4.941  -0.695 129.803  0.00  0.00    +0.000 C 
ATOM      8  C   UNL     1      -5.745  -0.593 128.279  0.00  0.00    +0.000 C 
ATOM      9  C   UNL     1      -6.642  -1.867 127.702  0.00  0.00    +0.000 C 
ATOM     10  C   UNL     1      -7.886  -2.375 128.800  0.00  0.00    +0.000 C 
ATOM     11  C   UNL     1      -8.539  -3.653 128.319  0.00  0.00    +0.000 C 
ATOM     12  C   UNL     1      -8.983  -3.556 126.885  0.00  0.00    +0.000 C 
ATOM     13  C   UNL     1      -7.955  -3.079 125.903  0.00  0.00    +0.000 C 
ATOM     14  C   UNL     1      -7.858  -3.665 124.703  0.00  0.00    +0.000 C 
ATOM     15  C   UNL     1      -7.103  -2.891 123.717  0.00  0.00    +0.000 C 
ATOM     16  O   UNL     1      -7.492  -1.870 123.154  0.00  0.00    +0.000 OA
ATOM     17  C   UNL     1      -5.685  -3.119 123.834  0.00  0.00    +0.000 C 
ATOM     18  C   UNL     1      -5.694  -1.983 125.127  0.00  0.00    +0.000 C 
ATOM     19  C   UNL     1      -7.104  -1.848 126.204  0.00  0.00    +0.000 C 
ATOM     20  C   UNL     1      -8.063  -0.635 126.144  0.00  0.00    +0.000 C 
ENDROOT
BRANCH   4  21
ATOM     21  O   UNL     1      -8.268  -0.778 131.178  0.00  0.00    +0.000 OA
ATOM     22  H   UNL     1      -9.049  -0.910 130.621  0.00  0.00    +0.000 HD
ENDBRANCH   4  21
BRANCH   4  23
ATOM     23  C   UNL     1      -6.550   0.923 131.085  0.00  0.00    +0.000 C 
ATOM     24  O   UNL     1      -7.398   1.793 131.364  0.00  0.00    +0.000 OA
BRANCH  23  25
ATOM     25  C   UNL     1      -5.039   1.492 131.293  0.00  0.00    +0.000 C 
BRANCH  25  26
ATOM     26  O   UNL     1      -5.035   3.010 131.065  0.00  0.00    +0.000 OA
BRANCH  26  27
ATOM     27  C   UNL     1      -4.224   3.548 130.089  0.00  0.00    +0.000 C 
ATOM     28  O   UNL     1      -3.799   2.843 129.178  0.00  0.00    +0.000 OA
BRANCH  27  29
ATOM     29  C   UNL     1      -3.912   5.108 130.236  0.00  0.00    +0.000 C 
BRANCH  29  30
ATOM     30  N   UNL     1      -2.432   5.462 130.148  0.00  0.00    +0.000 NA
BRANCH  30  31
ATOM     31  C   UNL     1      -2.129   6.385 129.030  0.00  0.00    +0.000 C 
ATOM     32  C   UNL     1      -3.251   6.584 128.039  0.00  0.00    +0.000 C 
ENDBRANCH  30  31
BRANCH  30  33
ATOM     33  C   UNL     1      -1.935   6.079 131.415  0.00  0.00    +0.000 C 
ATOM     34  C   UNL     1      -1.417   5.046 132.434  0.00  0.00    +0.000 C 
ENDBRANCH  30  33
ENDBRANCH  29  30
ENDBRANCH  27  29
ENDBRANCH  26  27
ENDBRANCH  25  26
ENDBRANCH  23  25
ENDBRANCH   4  23
BRANCH   8  35
ATOM     35  O   UNL     1      -6.566   0.591 128.362  0.00  0.00    +0.000 OA
ATOM     36  H   UNL     1      -6.014   1.392 128.298  0.00  0.00    +0.000 HD
ENDBRANCH   8  35
TORSDOF 10
ENDMDL
MODEL 7
REMARK VINA RESULT:      -7.1      3.430      8.218
REMARK  Name = Hydrocortamate
REMARK  14 active torsions:
REMARK  status: ('A' for Active; 'I' for Inactive)
REMARK    1  A    between atoms: C_5  and  O_6
REMARK    2  A    between atoms: C_5  and  C_7
REMARK    3  A    between atoms: C_7  and  C_9
REMARK    4  A    between atoms: C_9  and  O_10
REMARK    5  A    between atoms: O_10  and  C_11
REMARK    6  A    between atoms: C_11  and  C_13
REMARK    7  A    between atoms: C_13  and  N_14
REMARK    8  A    between atoms: N_14  and  C_15
REMARK    9  A    between atoms: N_14  and  C_17
REMARK   10  A    between atoms: C_15  and  C_16
REMARK   11  A    between atoms: C_17  and  C_18
REMARK   12  A    between atoms: C_19  and  C_20
REMARK   13  A    between atoms: C_22  and  O_23
REMARK   14  A    between atoms: C_36  and  C_37
REMARK                            x       y       z     vdW  Elec       q    Type
REMARK                         _______ _______ _______ _____ _____    ______ ____
ROOT
ATOM      1  C   UNL     1      -3.642   5.177 128.999  0.00  0.00    +0.000 C 
ATOM      2  C   UNL     1      -2.762   4.772 130.033  0.00  0.00    +0.000 C 
ATOM      3  C   UNL     1      -3.792   3.770 129.609  0.00  0.00    +0.000 C 
ATOM      4  C   UNL     1      -4.713   4.058 127.737  0.00  0.00    +0.000 C 
ATOM      5  C   UNL     1      -3.518   3.476 128.124  0.00  0.00    +0.000 C 
ATOM      6  C   UNL     1      -2.269   3.320 127.358  0.00  0.00    +0.000 C 
ATOM      7  C   UNL     1      -4.730   2.124 128.666  0.00  0.00    +0.000 C 
ATOM      8  C   UNL     1      -6.205   2.805 129.249  0.00  0.00    +0.000 C 
ATOM      9  C   UNL     1      -6.194   4.104 130.284  0.00  0.00    +0.000 C 
ATOM     10  C   UNL     1      -5.322   5.466 129.654  0.00  0.00    +0.000 C 
ATOM     11  C   UNL     1      -5.174   6.543 130.708  0.00  0.00    +0.000 C 
ATOM     12  C   UNL     1      -6.490   6.894 131.346  0.00  0.00    +0.000 C 
ATOM     13  C   UNL     1      -7.301   5.745 131.867  0.00  0.00    +0.000 C 
ATOM     14  C   UNL     1      -7.933   5.856 133.043  0.00  0.00    +0.000 C 
ATOM     15  C   UNL     1      -8.972   4.848 133.261  0.00  0.00    +0.000 C 
ATOM     16  O   UNL     1     -10.069   4.815 132.709  0.00  0.00    +0.000 OA
ATOM     17  C   UNL     1      -8.423   3.622 133.782  0.00  0.00    +0.000 C 
ATOM     18  C   UNL     1      -7.992   3.225 132.164  0.00  0.00    +0.000 C 
ATOM     19  C   UNL     1      -7.524   4.500 131.013  0.00  0.00    +0.000 C 
ATOM     20  C   UNL     1      -8.451   4.931 129.852  0.00  0.00    +0.000 C 
ENDROOT
BRANCH   4  21
ATOM     21  O   UNL     1      -4.350   5.261 126.940  0.00  0.00    +0.000 OA
ATOM     22  H   UNL     1      -5.116   5.673 126.513  0.00  0.00    +0.000 HD
ENDBRANCH   4  21
BRANCH   4  23
ATOM     23  C   UNL     1      -4.943   3.028 126.219  0.00  0.00    +0.000 C 
ATOM     24  O   UNL     1      -5.032   3.521 125.078  0.00  0.00    +0.000 OA
BRANCH  23  25
ATOM     25  C   UNL     1      -5.176   1.418 126.181  0.00  0.00    +0.000 C 
BRANCH  25  26
ATOM     26  O   UNL     1      -6.648   1.128 125.855  0.00  0.00    +0.000 OA
BRANCH  26  27
ATOM     27  C   UNL     1      -6.963   0.413 124.720  0.00  0.00    +0.000 C 
ATOM     28  O   UNL     1      -6.933   0.952 123.618  0.00  0.00    +0.000 OA
BRANCH  27  29
ATOM     29  C   UNL     1      -7.341  -1.122 124.957  0.00  0.00    +0.000 C 
BRANCH  29  30
ATOM     30  N   UNL     1      -7.093  -2.022 123.752  0.00  0.00    +0.000 NA
BRANCH  30  31
ATOM     31  C   UNL     1      -6.548  -3.346 124.128  0.00  0.00    +0.000 C 
ATOM     32  C   UNL     1      -5.086  -3.553 123.808  0.00  0.00    +0.000 C 
ENDBRANCH  30  31
BRANCH  30  33
ATOM     33  C   UNL     1      -8.339  -2.235 122.956  0.00  0.00    +0.000 C 
ATOM     34  C   UNL     1      -9.313  -3.238 123.603  0.00  0.00    +0.000 C 
ENDBRANCH  30  33
ENDBRANCH  29  30
ENDBRANCH  27  29
ENDBRANCH  26  27
ENDBRANCH  25  26
ENDBRANCH  23  25
ENDBRANCH   4  23
BRANCH   8  35
ATOM     35  O   UNL     1      -6.969   3.122 128.066  0.00  0.00    +0.000 OA
ATOM     36  H   UNL     1      -6.481   3.751 127.504  0.00  0.00    +0.000 HD
ENDBRANCH   8  35
TORSDOF 10
ENDMDL
MODEL 8
REMARK VINA RESULT:      -7.1      2.278      3.442
REMARK  Name = Hydrocortamate
REMARK  14 active torsions:
REMARK  status: ('A' for Active; 'I' for Inactive)
REMARK    1  A    between atoms: C_5  and  O_6
REMARK    2  A    between atoms: C_5  and  C_7
REMARK    3  A    between atoms: C_7  and  C_9
REMARK    4  A    between atoms: C_9  and  O_10
REMARK    5  A    between atoms: O_10  and  C_11
REMARK    6  A    between atoms: C_11  and  C_13
REMARK    7  A    between atoms: C_13  and  N_14
REMARK    8  A    between atoms: N_14  and  C_15
REMARK    9  A    between atoms: N_14  and  C_17
REMARK   10  A    between atoms: C_15  and  C_16
REMARK   11  A    between atoms: C_17  and  C_18
REMARK   12  A    between atoms: C_19  and  C_20
REMARK   13  A    between atoms: C_22  and  O_23
REMARK   14  A    between atoms: C_36  and  C_37
REMARK                            x       y       z     vdW  Elec       q    Type
REMARK                         _______ _______ _______ _____ _____    ______ ____
ROOT
ATOM      1  C   UNL     1      -7.114  -3.067 130.475  0.00  0.00    +0.000 C 
ATOM      2  C   UNL     1      -6.294  -4.221 130.411  0.00  0.00    +0.000 C 
ATOM      3  C   UNL     1      -5.701  -2.955 129.869  0.00  0.00    +0.000 C 
ATOM      4  C   UNL     1      -6.591  -1.138 130.456  0.00  0.00    +0.000 C 
ATOM      5  C   UNL     1      -5.652  -1.966 131.047  0.00  0.00    +0.000 C 
ATOM      6  C   UNL     1      -5.334  -2.140 132.475  0.00  0.00    +0.000 C 
ATOM      7  C   UNL     1      -4.583  -1.167 129.702  0.00  0.00    +0.000 C 
ATOM      8  C   UNL     1      -5.493  -0.891 128.262  0.00  0.00    +0.000 C 
ATOM      9  C   UNL     1      -6.508  -2.060 127.659  0.00  0.00    +0.000 C 
ATOM     10  C   UNL     1      -7.693  -2.590 128.811  0.00  0.00    +0.000 C 
ATOM     11  C   UNL     1      -8.459  -3.784 128.283  0.00  0.00    +0.000 C 
ATOM     12  C   UNL     1      -9.005  -3.541 126.902  0.00  0.00    +0.000 C 
ATOM     13  C   UNL     1      -8.027  -3.040 125.881  0.00  0.00    +0.000 C 
ATOM     14  C   UNL     1      -8.059  -3.526 124.634  0.00  0.00    +0.000 C 
ATOM     15  C   UNL     1      -7.335  -2.714 123.656  0.00  0.00    +0.000 C 
ATOM     16  O   UNL     1      -7.701  -1.629 123.210  0.00  0.00    +0.000 OA
ATOM     17  C   UNL     1      -5.929  -3.030 123.638  0.00  0.00    +0.000 C 
ATOM     18  C   UNL     1      -5.768  -2.009 125.015  0.00  0.00    +0.000 C 
ATOM     19  C   UNL     1      -7.081  -1.888 126.210  0.00  0.00    +0.000 C 
ATOM     20  C   UNL     1      -7.964  -0.623 126.326  0.00  0.00    +0.000 C 
ENDROOT
BRANCH   4  21
ATOM     21  O   UNL     1      -7.793  -1.182 131.332  0.00  0.00    +0.000 OA
ATOM     22  H   UNL     1      -8.247  -2.037 131.305  0.00  0.00    +0.000 HD
ENDBRANCH   4  21
BRANCH   4  23
ATOM     23  C   UNL     1      -5.985   0.424 131.236  0.00  0.00    +0.000 C 
ATOM     24  O   UNL     1      -6.746   1.360 131.550  0.00  0.00    +0.000 OA
BRANCH  23  25
ATOM     25  C   UNL     1      -4.428   0.824 131.493  0.00  0.00    +0.000 C 
BRANCH  25  26
ATOM     26  O   UNL     1      -4.330   2.336 131.739  0.00  0.00    +0.000 OA
BRANCH  26  27
ATOM     27  C   UNL     1      -3.731   2.799 132.891  0.00  0.00    +0.000 C 
ATOM     28  O   UNL     1      -2.674   2.312 133.280  0.00  0.00    +0.000 OA
BRANCH  27  29
ATOM     29  C   UNL     1      -4.498   3.986 133.635  0.00  0.00    +0.000 C 
BRANCH  29  30
ATOM     30  N   UNL     1      -6.006   4.000 133.407  0.00  0.00    +0.000 NA
BRANCH  30  31
ATOM     31  C   UNL     1      -6.771   4.253 134.648  0.00  0.00    +0.000 C 
ATOM     32  C   UNL     1      -8.274   4.250 134.489  0.00  0.00    +0.000 C 
ENDBRANCH  30  31
BRANCH  30  33
ATOM     33  C   UNL     1      -6.402   5.022 132.392  0.00  0.00    +0.000 C 
ATOM     34  C   UNL     1      -5.449   6.232 132.342  0.00  0.00    +0.000 C 
ENDBRANCH  30  33
ENDBRANCH  29  30
ENDBRANCH  27  29
ENDBRANCH  26  27
ENDBRANCH  25  26
ENDBRANCH  23  25
ENDBRANCH   4  23
BRANCH   8  35
ATOM     35  O   UNL     1      -6.230   0.325 128.506  0.00  0.00    +0.000 OA
ATOM     36  H   UNL     1      -7.073   0.128 128.954  0.00  0.00    +0.000 HD
ENDBRANCH   8  35
TORSDOF 10
ENDMDL
MODEL 9
REMARK VINA RESULT:      -7.1      3.415      6.631
REMARK  Name = Hydrocortamate
REMARK  14 active torsions:
REMARK  status: ('A' for Active; 'I' for Inactive)
REMARK    1  A    between atoms: C_5  and  O_6
REMARK    2  A    between atoms: C_5  and  C_7
REMARK    3  A    between atoms: C_7  and  C_9
REMARK    4  A    between atoms: C_9  and  O_10
REMARK    5  A    between atoms: O_10  and  C_11
REMARK    6  A    between atoms: C_11  and  C_13
REMARK    7  A    between atoms: C_13  and  N_14
REMARK    8  A    between atoms: N_14  and  C_15
REMARK    9  A    between atoms: N_14  and  C_17
REMARK   10  A    between atoms: C_15  and  C_16
REMARK   11  A    between atoms: C_17  and  C_18
REMARK   12  A    between atoms: C_19  and  C_20
REMARK   13  A    between atoms: C_22  and  O_23
REMARK   14  A    between atoms: C_36  and  C_37
REMARK                            x       y       z     vdW  Elec       q    Type
REMARK                         _______ _______ _______ _____ _____    ______ ____
ROOT
ATOM      1  C   UNL     1      -6.716  -2.757 128.999  0.00  0.00    +0.000 C 
ATOM      2  C   UNL     1      -7.922  -3.460 128.757  0.00  0.00    +0.000 C 
ATOM      3  C   UNL     1      -8.000  -2.330 129.738  0.00  0.00    +0.000 C 
ATOM      4  C   UNL     1      -6.449  -0.905 129.701  0.00  0.00    +0.000 C 
ATOM      5  C   UNL     1      -7.608  -1.060 128.961  0.00  0.00    +0.000 C 
ATOM      6  C   UNL     1      -7.906  -0.605 127.592  0.00  0.00    +0.000 C 
ATOM      7  C   UNL     1      -8.342  -0.422 130.588  0.00  0.00    +0.000 C 
ATOM      8  C   UNL     1      -7.462  -1.019 131.947  0.00  0.00    +0.000 C 
ATOM      9  C   UNL     1      -7.008  -2.616 132.034  0.00  0.00    +0.000 C 
ATOM     10  C   UNL     1      -6.072  -3.131 130.667  0.00  0.00    +0.000 C 
ATOM     11  C   UNL     1      -5.855  -4.629 130.698  0.00  0.00    +0.000 C 
ATOM     12  C   UNL     1      -5.319  -5.095 132.024  0.00  0.00    +0.000 C 
ATOM     13  C   UNL     1      -6.070  -4.638 133.240  0.00  0.00    +0.000 C 
ATOM     14  C   UNL     1      -6.285  -5.492 134.249  0.00  0.00    +0.000 C 
ATOM     15  C   UNL     1      -6.680  -4.850 135.503  0.00  0.00    +0.000 C 
ATOM     16  O   UNL     1      -5.941  -4.207 136.245  0.00  0.00    +0.000 OA
ATOM     17  C   UNL     1      -8.097  -4.593 135.547  0.00  0.00    +0.000 C 
ATOM     18  C   UNL     1      -7.787  -3.187 134.604  0.00  0.00    +0.000 C 
ATOM     19  C   UNL     1      -6.478  -3.176 133.399  0.00  0.00    +0.000 C 
ATOM     20  C   UNL     1      -5.169  -2.384 133.623  0.00  0.00    +0.000 C 
ENDROOT
BRANCH   4  21
ATOM     21  O   UNL     1      -5.320  -1.102 128.751  0.00  0.00    +0.000 OA
ATOM     22  H   UNL     1      -4.992  -2.013 128.742  0.00  0.00    +0.000 HD
ENDBRANCH   4  21
BRANCH   4  23
ATOM     23  C   UNL     1      -6.365   0.934 129.539  0.00  0.00    +0.000 C 
ATOM     24  O   UNL     1      -5.295   1.570 129.612  0.00  0.00    +0.000 OA
BRANCH  23  25
ATOM     25  C   UNL     1      -7.636   1.943 129.409  0.00  0.00    +0.000 C 
BRANCH  25  26
ATOM     26  O   UNL     1      -7.325   3.247 130.157  0.00  0.00    +0.000 OA
BRANCH  26  27
ATOM     27  C   UNL     1      -7.361   4.445 129.476  0.00  0.00    +0.000 C 
ATOM     28  O   UNL     1      -6.323   4.969 129.086  0.00  0.00    +0.000 OA
BRANCH  27  29
ATOM     29  C   UNL     1      -8.818   5.056 129.239  0.00  0.00    +0.000 C 
BRANCH  29  30
ATOM     30  N   UNL     1      -9.044   6.413 129.896  0.00  0.00    +0.000 NA
BRANCH  30  31
ATOM     31  C   UNL     1     -10.381   6.977 129.603  0.00  0.00    +0.000 C 
ATOM     32  C   UNL     1     -10.394   8.124 128.619  0.00  0.00    +0.000 C 
ENDBRANCH  30  31
BRANCH  30  33
ATOM     33  C   UNL     1      -8.877   6.344 131.378  0.00  0.00    +0.000 C 
ATOM     34  C   UNL     1     -10.209   6.192 132.137  0.00  0.00    +0.000 C 
ENDBRANCH  30  33
ENDBRANCH  29  30
ENDBRANCH  27  29
ENDBRANCH  26  27
ENDBRANCH  25  26
ENDBRANCH  23  25
ENDBRANCH   4  23
BRANCH   8  35
ATOM     35  O   UNL     1      -6.299  -0.169 132.049  0.00  0.00    +0.000 OA
ATOM     36  H   UNL     1      -5.594  -0.485 131.455  0.00  0.00    +0.000 HD
ENDBRANCH   8  35
TORSDOF 10
ENDMDL
