MODEL 1
REMARK VINA RESULT:      -8.2      0.000      0.000
REMARK  Name = Hydrocortisone valerate
REMARK  12 active torsions:
REMARK  status: ('A' for Active; 'I' for Inactive)
REMARK    1  A    between atoms: C_5  and  O_6
REMARK    2  A    between atoms: C_5  and  C_13
REMARK    3  A    between atoms: O_6  and  C_7
REMARK    4  A    between atoms: C_7  and  C_9
REMARK    5  A    between atoms: C_9  and  C_10
REMARK    6  A    between atoms: C_10  and  C_11
REMARK    7  A    between atoms: C_11  and  C_12
REMARK    8  A    between atoms: C_13  and  C_15
REMARK    9  A    between atoms: C_15  and  O_16
REMARK   10  A    between atoms: C_17  and  C_18
REMARK   11  A    between atoms: C_20  and  O_21
REMARK   12  A    between atoms: C_34  and  C_35
REMARK                            x       y       z     vdW  Elec       q    Type
REMARK                         _______ _______ _______ _____ _____    ______ ____
ROOT
ATOM      1  C   UNL     1      -6.165  -3.671 131.000  0.00  0.00    +0.000 C 
ATOM      2  C   UNL     1      -5.684  -4.975 130.728  0.00  0.00    +0.000 C 
ATOM      3  C   UNL     1      -4.956  -3.818 130.155  0.00  0.00    +0.000 C 
ATOM      4  C   UNL     1      -5.354  -1.933 131.015  0.00  0.00    +0.000 C 
ATOM      5  C   UNL     1      -4.441  -2.939 131.333  0.00  0.00    +0.000 C 
ATOM      6  C   UNL     1      -3.928  -3.295 132.675  0.00  0.00    +0.000 C 
ATOM      7  C   UNL     1      -3.496  -2.285 129.844  0.00  0.00    +0.000 C 
ATOM      8  C   UNL     1      -4.555  -1.701 128.628  0.00  0.00    +0.000 C 
ATOM      9  C   UNL     1      -5.900  -2.565 128.164  0.00  0.00    +0.000 C 
ATOM     10  C   UNL     1      -6.916  -2.924 129.472  0.00  0.00    +0.000 C 
ATOM     11  C   UNL     1      -8.078  -3.820 129.099  0.00  0.00    +0.000 C 
ATOM     12  C   UNL     1      -8.814  -3.307 127.895  0.00  0.00    +0.000 C 
ATOM     13  C   UNL     1      -7.952  -2.969 126.717  0.00  0.00    +0.000 C 
ATOM     14  C   UNL     1      -8.345  -3.329 125.489  0.00  0.00    +0.000 C 
ATOM     15  C   UNL     1      -7.633  -2.639 124.417  0.00  0.00    +0.000 C 
ATOM     16  O   UNL     1      -7.800  -1.467 124.085  0.00  0.00    +0.000 OA
ATOM     17  C   UNL     1      -6.372  -3.274 124.125  0.00  0.00    +0.000 C 
ATOM     18  C   UNL     1      -5.706  -2.439 125.456  0.00  0.00    +0.000 C 
ATOM     19  C   UNL     1      -6.694  -2.114 126.888  0.00  0.00    +0.000 C 
ATOM     20  C   UNL     1      -7.196  -0.684 127.224  0.00  0.00    +0.000 C 
ENDROOT
BRANCH   4  21
ATOM     21  C   UNL     1      -4.280  -0.600 131.694  0.00  0.00    +0.000 C 
ATOM     22  O   UNL     1      -4.060   0.481 131.102  0.00  0.00    +0.000 OA
BRANCH  21  23
ATOM     23  C   UNL     1      -3.399  -0.681 133.026  0.00  0.00    +0.000 C 
BRANCH  23  24
ATOM     24  O   UNL     1      -4.158  -0.282 134.220  0.00  0.00    +0.000 OA
ATOM     25  H   UNL     1      -4.979   0.170 133.937  0.00  0.00    +0.000 HD
ENDBRANCH  23  24
ENDBRANCH  21  23
ENDBRANCH   4  21
BRANCH   8  26
ATOM     26  O   UNL     1      -4.918  -0.375 129.063  0.00  0.00    +0.000 OA
ATOM     27  H   UNL     1      -4.987   0.240 128.310  0.00  0.00    +0.000 HD
ENDBRANCH   8  26
BRANCH   4  28
ATOM     28  O   UNL     1      -6.309  -1.819 132.355  0.00  0.00    +0.000 OA
BRANCH  28  29
ATOM     29  C   UNL     1      -7.210  -0.813 132.612  0.00  0.00    +0.000 C 
ATOM     30  O   UNL     1      -7.037   0.055 133.458  0.00  0.00    +0.000 OA
BRANCH  29  31
ATOM     31  C   UNL     1      -8.430  -0.670 131.728  0.00  0.00    +0.000 C 
BRANCH  31  32
ATOM     32  C   UNL     1      -8.069   0.420 130.675  0.00  0.00    +0.000 C 
BRANCH  32  33
ATOM     33  C   UNL     1      -8.820   1.732 130.826  0.00  0.00    +0.000 C 
ATOM     34  C   UNL     1      -9.877   1.626 131.923  0.00  0.00    +0.000 C 
ENDBRANCH  32  33
ENDBRANCH  31  32
ENDBRANCH  29  31
ENDBRANCH  28  29
ENDBRANCH   4  28
TORSDOF 9
ENDMDL
MODEL 2
REMARK VINA RESULT:      -8.1      1.546      2.466
REMARK  Name = Hydrocortisone valerate
REMARK  12 active torsions:
REMARK  status: ('A' for Active; 'I' for Inactive)
REMARK    1  A    between atoms: C_5  and  O_6
REMARK    2  A    between atoms: C_5  and  C_13
REMARK    3  A    between atoms: O_6  and  C_7
REMARK    4  A    between atoms: C_7  and  C_9
REMARK    5  A    between atoms: C_9  and  C_10
REMARK    6  A    between atoms: C_10  and  C_11
REMARK    7  A    between atoms: C_11  and  C_12
REMARK    8  A    between atoms: C_13  and  C_15
REMARK    9  A    between atoms: C_15  and  O_16
REMARK   10  A    between atoms: C_17  and  C_18
REMARK   11  A    between atoms: C_20  and  O_21
REMARK   12  A    between atoms: C_34  and  C_35
REMARK                            x       y       z     vdW  Elec       q    Type
REMARK                         _______ _______ _______ _____ _____    ______ ____
ROOT
ATOM      1  C   UNL     1      -5.926  -4.046 131.202  0.00  0.00    +0.000 C 
ATOM      2  C   UNL     1      -5.630  -5.369 130.790  0.00  0.00    +0.000 C 
ATOM      3  C   UNL     1      -4.799  -4.260 130.262  0.00  0.00    +0.000 C 
ATOM      4  C   UNL     1      -4.903  -2.426 131.300  0.00  0.00    +0.000 C 
ATOM      5  C   UNL     1      -4.106  -3.558 131.467  0.00  0.00    +0.000 C 
ATOM      6  C   UNL     1      -3.559  -4.092 132.735  0.00  0.00    +0.000 C 
ATOM      7  C   UNL     1      -3.181  -2.891 129.972  0.00  0.00    +0.000 C 
ATOM      8  C   UNL     1      -4.232  -2.078 128.888  0.00  0.00    +0.000 C 
ATOM      9  C   UNL     1      -5.700  -2.729 128.454  0.00  0.00    +0.000 C 
ATOM     10  C   UNL     1      -6.670  -3.080 129.798  0.00  0.00    +0.000 C 
ATOM     11  C   UNL     1      -7.956  -3.794 129.439  0.00  0.00    +0.000 C 
ATOM     12  C   UNL     1      -8.696  -3.090 128.338  0.00  0.00    +0.000 C 
ATOM     13  C   UNL     1      -7.873  -2.753 127.132  0.00  0.00    +0.000 C 
ATOM     14  C   UNL     1      -8.384  -2.953 125.910  0.00  0.00    +0.000 C 
ATOM     15  C   UNL     1      -7.659  -2.259 124.849  0.00  0.00    +0.000 C 
ATOM     16  O   UNL     1      -7.698  -1.051 124.627  0.00  0.00    +0.000 OA
ATOM     17  C   UNL     1      -6.508  -3.012 124.415  0.00  0.00    +0.000 C 
ATOM     18  C   UNL     1      -5.661  -2.386 125.758  0.00  0.00    +0.000 C 
ATOM     19  C   UNL     1      -6.509  -2.074 127.279  0.00  0.00    +0.000 C 
ATOM     20  C   UNL     1      -6.806  -0.631 127.766  0.00  0.00    +0.000 C 
ENDROOT
BRANCH   4  21
ATOM     21  C   UNL     1      -3.630  -1.297 132.005  0.00  0.00    +0.000 C 
ATOM     22  O   UNL     1      -2.451  -1.644 132.239  0.00  0.00    +0.000 OA
BRANCH  21  23
ATOM     23  C   UNL     1      -3.873   0.196 132.524  0.00  0.00    +0.000 C 
BRANCH  23  24
ATOM     24  O   UNL     1      -4.799   0.941 131.659  0.00  0.00    +0.000 OA
ATOM     25  H   UNL     1      -5.590   0.391 131.492  0.00  0.00    +0.000 HD
ENDBRANCH  23  24
ENDBRANCH  21  23
ENDBRANCH   4  21
BRANCH   8  26
ATOM     26  O   UNL     1      -4.397  -0.763 129.454  0.00  0.00    +0.000 OA
ATOM     27  H   UNL     1      -3.545  -0.390 129.743  0.00  0.00    +0.000 HD
ENDBRANCH   8  26
BRANCH   4  28
ATOM     28  O   UNL     1      -5.752  -2.319 132.711  0.00  0.00    +0.000 OA
BRANCH  28  29
ATOM     29  C   UNL     1      -6.980  -1.720 132.862  0.00  0.00    +0.000 C 
ATOM     30  O   UNL     1      -7.277  -0.643 132.363  0.00  0.00    +0.000 OA
BRANCH  29  31
ATOM     31  C   UNL     1      -8.086  -2.472 133.571  0.00  0.00    +0.000 C 
BRANCH  31  32
ATOM     32  C   UNL     1      -7.412  -3.180 134.784  0.00  0.00    +0.000 C 
BRANCH  32  33
ATOM     33  C   UNL     1      -7.698  -4.668 134.898  0.00  0.00    +0.000 C 
ATOM     34  C   UNL     1      -6.444  -5.484 134.595  0.00  0.00    +0.000 C 
ENDBRANCH  32  33
ENDBRANCH  31  32
ENDBRANCH  29  31
ENDBRANCH  28  29
ENDBRANCH   4  28
TORSDOF 9
ENDMDL
MODEL 3
REMARK VINA RESULT:      -7.9      5.929      9.385
REMARK  Name = Hydrocortisone valerate
REMARK  12 active torsions:
REMARK  status: ('A' for Active; 'I' for Inactive)
REMARK    1  A    between atoms: C_5  and  O_6
REMARK    2  A    between atoms: C_5  and  C_13
REMARK    3  A    between atoms: O_6  and  C_7
REMARK    4  A    between atoms: C_7  and  C_9
REMARK    5  A    between atoms: C_9  and  C_10
REMARK    6  A    between atoms: C_10  and  C_11
REMARK    7  A    between atoms: C_11  and  C_12
REMARK    8  A    between atoms: C_13  and  C_15
REMARK    9  A    between atoms: C_15  and  O_16
REMARK   10  A    between atoms: C_17  and  C_18
REMARK   11  A    between atoms: C_20  and  O_21
REMARK   12  A    between atoms: C_34  and  C_35
REMARK                            x       y       z     vdW  Elec       q    Type
REMARK                         _______ _______ _______ _____ _____    ______ ____
ROOT
ATOM      1  C   UNL     1      -7.630   3.150 130.384  0.00  0.00    +0.000 C 
ATOM      2  C   UNL     1      -7.651   2.332 131.541  0.00  0.00    +0.000 C 
ATOM      3  C   UNL     1      -7.838   3.793 131.703  0.00  0.00    +0.000 C 
ATOM      4  C   UNL     1      -8.348   4.878 129.968  0.00  0.00    +0.000 C 
ATOM      5  C   UNL     1      -9.117   4.208 130.919  0.00  0.00    +0.000 C 
ATOM      6  C   UNL     1     -10.407   3.515 130.704  0.00  0.00    +0.000 C 
ATOM      7  C   UNL     1      -8.748   5.707 131.993  0.00  0.00    +0.000 C 
ATOM      8  C   UNL     1      -7.194   6.354 131.665  0.00  0.00    +0.000 C 
ATOM      9  C   UNL     1      -5.861   5.369 131.517  0.00  0.00    +0.000 C 
ATOM     10  C   UNL     1      -6.076   4.169 130.339  0.00  0.00    +0.000 C 
ATOM     11  C   UNL     1      -4.931   3.181 130.276  0.00  0.00    +0.000 C 
ATOM     12  C   UNL     1      -3.601   3.872 130.187  0.00  0.00    +0.000 C 
ATOM     13  C   UNL     1      -3.372   4.947 131.206  0.00  0.00    +0.000 C 
ATOM     14  C   UNL     1      -2.185   5.030 131.819  0.00  0.00    +0.000 C 
ATOM     15  C   UNL     1      -1.960   6.305 132.495  0.00  0.00    +0.000 C 
ATOM     16  O   UNL     1      -1.707   7.373 131.942  0.00  0.00    +0.000 OA
ATOM     17  C   UNL     1      -2.560   6.322 133.806  0.00  0.00    +0.000 C 
ATOM     18  C   UNL     1      -4.050   6.686 133.059  0.00  0.00    +0.000 C 
ATOM     19  C   UNL     1      -4.433   6.019 131.465  0.00  0.00    +0.000 C 
ATOM     20  C   UNL     1      -4.455   6.908 130.193  0.00  0.00    +0.000 C 
ENDROOT
BRANCH   4  21
ATOM     21  C   UNL     1      -9.691   6.075 129.574  0.00  0.00    +0.000 C 
ATOM     22  O   UNL     1      -9.499   7.161 128.980  0.00  0.00    +0.000 OA
BRANCH  21  23
ATOM     23  C   UNL     1     -11.219   5.968 130.033  0.00  0.00    +0.000 C 
BRANCH  23  24
ATOM     24  O   UNL     1     -12.144   5.974 128.891  0.00  0.00    +0.000 OA
ATOM     25  H   UNL     1     -12.139   6.864 128.483  0.00  0.00    +0.000 HD
ENDBRANCH  23  24
ENDBRANCH  21  23
ENDBRANCH   4  21
BRANCH   8  26
ATOM     26  O   UNL     1      -7.373   7.161 130.485  0.00  0.00    +0.000 OA
ATOM     27  H   UNL     1      -8.071   7.829 130.613  0.00  0.00    +0.000 HD
ENDBRANCH   8  26
BRANCH   4  28
ATOM     28  O   UNL     1      -8.669   4.084 128.558  0.00  0.00    +0.000 OA
BRANCH  28  29
ATOM     29  C   UNL     1      -8.072   4.333 127.345  0.00  0.00    +0.000 C 
ATOM     30  O   UNL     1      -8.406   5.243 126.597  0.00  0.00    +0.000 OA
BRANCH  29  31
ATOM     31  C   UNL     1      -6.847   3.538 126.948  0.00  0.00    +0.000 C 
BRANCH  31  32
ATOM     32  C   UNL     1      -5.939   4.522 126.152  0.00  0.00    +0.000 C 
BRANCH  32  33
ATOM     33  C   UNL     1      -4.647   4.912 126.851  0.00  0.00    +0.000 C 
ATOM     34  C   UNL     1      -3.517   3.959 126.469  0.00  0.00    +0.000 C 
ENDBRANCH  32  33
ENDBRANCH  31  32
ENDBRANCH  29  31
ENDBRANCH  28  29
ENDBRANCH   4  28
TORSDOF 9
ENDMDL
MODEL 4
REMARK VINA RESULT:      -7.9      2.799      7.619
REMARK  Name = Hydrocortisone valerate
REMARK  12 active torsions:
REMARK  status: ('A' for Active; 'I' for Inactive)
REMARK    1  A    between atoms: C_5  and  O_6
REMARK    2  A    between atoms: C_5  and  C_13
REMARK    3  A    between atoms: O_6  and  C_7
REMARK    4  A    between atoms: C_7  and  C_9
REMARK    5  A    between atoms: C_9  and  C_10
REMARK    6  A    between atoms: C_10  and  C_11
REMARK    7  A    between atoms: C_11  and  C_12
REMARK    8  A    between atoms: C_13  and  C_15
REMARK    9  A    between atoms: C_15  and  O_16
REMARK   10  A    between atoms: C_17  and  C_18
REMARK   11  A    between atoms: C_20  and  O_21
REMARK   12  A    between atoms: C_34  and  C_35
REMARK                            x       y       z     vdW  Elec       q    Type
REMARK                         _______ _______ _______ _____ _____    ______ ____
ROOT
ATOM      1  C   UNL     1      -9.385  -0.145 124.973  0.00  0.00    +0.000 C 
ATOM      2  C   UNL     1     -10.590   0.209 125.629  0.00  0.00    +0.000 C 
ATOM      3  C   UNL     1      -9.326   0.837 126.082  0.00  0.00    +0.000 C 
ATOM      4  C   UNL     1      -7.687   0.719 124.760  0.00  0.00    +0.000 C 
ATOM      5  C   UNL     1      -8.728   1.638 124.889  0.00  0.00    +0.000 C 
ATOM      6  C   UNL     1      -9.371   2.424 123.811  0.00  0.00    +0.000 C 
ATOM      7  C   UNL     1      -7.747   2.251 126.371  0.00  0.00    +0.000 C 
ATOM      8  C   UNL     1      -6.916   0.971 127.154  0.00  0.00    +0.000 C 
ATOM      9  C   UNL     1      -7.668  -0.478 127.479  0.00  0.00    +0.000 C 
ATOM     10  C   UNL     1      -8.323  -1.188 126.087  0.00  0.00    +0.000 C 
ATOM     11  C   UNL     1      -9.125  -2.440 126.374  0.00  0.00    +0.000 C 
ATOM     12  C   UNL     1      -8.363  -3.406 127.235  0.00  0.00    +0.000 C 
ATOM     13  C   UNL     1      -7.760  -2.817 128.473  0.00  0.00    +0.000 C 
ATOM     14  C   UNL     1      -7.840  -3.489 129.628  0.00  0.00    +0.000 C 
ATOM     15  C   UNL     1      -6.919  -3.009 130.655  0.00  0.00    +0.000 C 
ATOM     16  O   UNL     1      -5.705  -3.198 130.672  0.00  0.00    +0.000 OA
ATOM     17  C   UNL     1      -7.459  -1.872 131.359  0.00  0.00    +0.000 C 
ATOM     18  C   UNL     1      -6.937  -0.891 130.064  0.00  0.00    +0.000 C 
ATOM     19  C   UNL     1      -6.952  -1.519 128.409  0.00  0.00    +0.000 C 
ATOM     20  C   UNL     1      -5.639  -1.874 127.660  0.00  0.00    +0.000 C 
ENDROOT
BRANCH   4  21
ATOM     21  C   UNL     1      -6.528   1.971 124.067  0.00  0.00    +0.000 C 
ATOM     22  O   UNL     1      -5.742   2.649 124.765  0.00  0.00    +0.000 OA
BRANCH  21  23
ATOM     23  C   UNL     1      -6.456   2.452 122.543  0.00  0.00    +0.000 C 
BRANCH  23  24
ATOM     24  O   UNL     1      -6.622   3.906 122.410  0.00  0.00    +0.000 OA
ATOM     25  H   UNL     1      -7.517   4.093 122.062  0.00  0.00    +0.000 HD
ENDBRANCH  23  24
ENDBRANCH  21  23
ENDBRANCH   4  21
BRANCH   8  26
ATOM     26  O   UNL     1      -5.726   0.769 126.367  0.00  0.00    +0.000 OA
ATOM     27  H   UNL     1      -5.535   1.543 125.806  0.00  0.00    +0.000 HD
ENDBRANCH   8  26
BRANCH   4  28
ATOM     28  O   UNL     1      -7.887   0.094 123.246  0.00  0.00    +0.000 OA
BRANCH  28  29
ATOM     29  C   UNL     1      -7.602  -1.198 122.870  0.00  0.00    +0.000 C 
ATOM     30  O   UNL     1      -8.458  -2.036 122.616  0.00  0.00    +0.000 OA
BRANCH  29  31
ATOM     31  C   UNL     1      -6.163  -1.595 122.623  0.00  0.00    +0.000 C 
BRANCH  31  32
ATOM     32  C   UNL     1      -5.637  -2.158 123.977  0.00  0.00    +0.000 C 
BRANCH  32  33
ATOM     33  C   UNL     1      -5.687  -3.671 124.105  0.00  0.00    +0.000 C 
ATOM     34  C   UNL     1      -4.370  -4.296 123.652  0.00  0.00    +0.000 C 
ENDBRANCH  32  33
ENDBRANCH  31  32
ENDBRANCH  29  31
ENDBRANCH  28  29
ENDBRANCH   4  28
TORSDOF 9
ENDMDL
MODEL 5
REMARK VINA RESULT:      -7.9      3.810      7.771
REMARK  Name = Hydrocortisone valerate
REMARK  12 active torsions:
REMARK  status: ('A' for Active; 'I' for Inactive)
REMARK    1  A    between atoms: C_5  and  O_6
REMARK    2  A    between atoms: C_5  and  C_13
REMARK    3  A    between atoms: O_6  and  C_7
REMARK    4  A    between atoms: C_7  and  C_9
REMARK    5  A    between atoms: C_9  and  C_10
REMARK    6  A    between atoms: C_10  and  C_11
REMARK    7  A    between atoms: C_11  and  C_12
REMARK    8  A    between atoms: C_13  and  C_15
REMARK    9  A    between atoms: C_15  and  O_16
REMARK   10  A    between atoms: C_17  and  C_18
REMARK   11  A    between atoms: C_20  and  O_21
REMARK   12  A    between atoms: C_34  and  C_35
REMARK                            x       y       z     vdW  Elec       q    Type
REMARK                         _______ _______ _______ _____ _____    ______ ____
ROOT
ATOM      1  C   UNL     1      -5.646   0.654 125.984  0.00  0.00    +0.000 C 
ATOM      2  C   UNL     1      -5.596  -0.761 125.919  0.00  0.00    +0.000 C 
ATOM      3  C   UNL     1      -6.895  -0.111 126.216  0.00  0.00    +0.000 C 
ATOM      4  C   UNL     1      -7.048   1.943 125.762  0.00  0.00    +0.000 C 
ATOM      5  C   UNL     1      -7.272   0.793 125.006  0.00  0.00    +0.000 C 
ATOM      6  C   UNL     1      -7.070   0.622 123.550  0.00  0.00    +0.000 C 
ATOM      7  C   UNL     1      -8.868   0.686 125.996  0.00  0.00    +0.000 C 
ATOM      8  C   UNL     1      -8.666   1.286 127.590  0.00  0.00    +0.000 C 
ATOM      9  C   UNL     1      -7.348   0.862 128.513  0.00  0.00    +0.000 C 
ATOM     10  C   UNL     1      -5.881   1.215 127.740  0.00  0.00    +0.000 C 
ATOM     11  C   UNL     1      -4.670   0.720 128.501  0.00  0.00    +0.000 C 
ATOM     12  C   UNL     1      -4.703   1.146 129.941  0.00  0.00    +0.000 C 
ATOM     13  C   UNL     1      -5.985   0.859 130.661  0.00  0.00    +0.000 C 
ATOM     14  C   UNL     1      -5.946   0.369 131.905  0.00  0.00    +0.000 C 
ATOM     15  C   UNL     1      -7.213   0.479 132.622  0.00  0.00    +0.000 C 
ATOM     16  O   UNL     1      -7.685   1.515 133.086  0.00  0.00    +0.000 OA
ATOM     17  C   UNL     1      -8.102  -0.608 132.296  0.00  0.00    +0.000 C 
ATOM     18  C   UNL     1      -8.532   0.241 130.880  0.00  0.00    +0.000 C 
ATOM     19  C   UNL     1      -7.332   1.233 130.038  0.00  0.00    +0.000 C 
ATOM     20  C   UNL     1      -7.395   2.784 130.064  0.00  0.00    +0.000 C 
ENDROOT
BRANCH   4  21
ATOM     21  C   UNL     1      -8.261   2.939 124.799  0.00  0.00    +0.000 C 
ATOM     22  O   UNL     1      -8.939   3.869 125.290  0.00  0.00    +0.000 OA
BRANCH  21  23
ATOM     23  C   UNL     1      -8.705   2.682 123.284  0.00  0.00    +0.000 C 
BRANCH  23  24
ATOM     24  O   UNL     1      -8.247   3.750 122.383  0.00  0.00    +0.000 OA
ATOM     25  H   UNL     1      -9.022   4.132 121.924  0.00  0.00    +0.000 HD
ENDBRANCH  23  24
ENDBRANCH  21  23
ENDBRANCH   4  21
BRANCH   8  26
ATOM     26  O   UNL     1      -8.766   2.718 127.459  0.00  0.00    +0.000 OA
ATOM     27  H   UNL     1      -9.683   2.997 127.285  0.00  0.00    +0.000 HD
ENDBRANCH   8  26
BRANCH   4  28
ATOM     28  O   UNL     1      -5.820   2.711 124.972  0.00  0.00    +0.000 OA
BRANCH  28  29
ATOM     29  C   UNL     1      -5.478   4.035 125.119  0.00  0.00    +0.000 C 
ATOM     30  O   UNL     1      -5.846   4.921 124.359  0.00  0.00    +0.000 OA
BRANCH  29  31
ATOM     31  C   UNL     1      -4.713   4.467 126.352  0.00  0.00    +0.000 C 
BRANCH  31  32
ATOM     32  C   UNL     1      -3.401   3.626 126.358  0.00  0.00    +0.000 C 
BRANCH  32  33
ATOM     33  C   UNL     1      -2.406   3.998 127.444  0.00  0.00    +0.000 C 
ATOM     34  C   UNL     1      -3.125   4.289 128.759  0.00  0.00    +0.000 C 
ENDBRANCH  32  33
ENDBRANCH  31  32
ENDBRANCH  29  31
ENDBRANCH  28  29
ENDBRANCH   4  28
TORSDOF 9
ENDMDL
MODEL 6
REMARK VINA RESULT:      -7.8      2.986      5.316
REMARK  Name = Hydrocortisone valerate
REMARK  12 active torsions:
REMARK  status: ('A' for Active; 'I' for Inactive)
REMARK    1  A    between atoms: C_5  and  O_6
REMARK    2  A    between atoms: C_5  and  C_13
REMARK    3  A    between atoms: O_6  and  C_7
REMARK    4  A    between atoms: C_7  and  C_9
REMARK    5  A    between atoms: C_9  and  C_10
REMARK    6  A    between atoms: C_10  and  C_11
REMARK    7  A    between atoms: C_11  and  C_12
REMARK    8  A    between atoms: C_13  and  C_15
REMARK    9  A    between atoms: C_15  and  O_16
REMARK   10  A    between atoms: C_17  and  C_18
REMARK   11  A    between atoms: C_20  and  O_21
REMARK   12  A    between atoms: C_34  and  C_35
REMARK                            x       y       z     vdW  Elec       q    Type
REMARK                         _______ _______ _______ _____ _____    ______ ____
ROOT
ATOM      1  C   UNL     1      -5.346   1.385 127.342  0.00  0.00    +0.000 C 
ATOM      2  C   UNL     1      -4.485   1.789 126.292  0.00  0.00    +0.000 C 
ATOM      3  C   UNL     1      -5.932   2.091 126.177  0.00  0.00    +0.000 C 
ATOM      4  C   UNL     1      -7.062   1.983 127.954  0.00  0.00    +0.000 C 
ATOM      5  C   UNL     1      -6.329   3.014 127.366  0.00  0.00    +0.000 C 
ATOM      6  C   UNL     1      -5.599   4.102 128.054  0.00  0.00    +0.000 C 
ATOM      7  C   UNL     1      -7.800   3.133 126.199  0.00  0.00    +0.000 C 
ATOM      8  C   UNL     1      -8.514   1.599 125.921  0.00  0.00    +0.000 C 
ATOM      9  C   UNL     1      -7.583   0.259 125.592  0.00  0.00    +0.000 C 
ATOM     10  C   UNL     1      -6.422  -0.028 126.792  0.00  0.00    +0.000 C 
ATOM     11  C   UNL     1      -5.478  -1.162 126.453  0.00  0.00    +0.000 C 
ATOM     12  C   UNL     1      -6.220  -2.398 126.033  0.00  0.00    +0.000 C 
ATOM     13  C   UNL     1      -7.262  -2.188 124.978  0.00  0.00    +0.000 C 
ATOM     14  C   UNL     1      -7.365  -3.064 123.971  0.00  0.00    +0.000 C 
ATOM     15  C   UNL     1      -8.621  -2.967 123.232  0.00  0.00    +0.000 C 
ATOM     16  O   UNL     1      -9.717  -3.353 123.630  0.00  0.00    +0.000 OA
ATOM     17  C   UNL     1      -8.567  -1.929 122.232  0.00  0.00    +0.000 C 
ATOM     18  C   UNL     1      -8.905  -0.800 123.465  0.00  0.00    +0.000 C 
ATOM     19  C   UNL     1      -8.285  -1.057 125.103  0.00  0.00    +0.000 C 
ATOM     20  C   UNL     1      -9.220  -1.459 126.275  0.00  0.00    +0.000 C 
ENDROOT
BRANCH   4  21
ATOM     21  C   UNL     1      -8.225   3.144 128.787  0.00  0.00    +0.000 C 
ATOM     22  O   UNL     1      -9.372   2.820 129.169  0.00  0.00    +0.000 OA
BRANCH  21  23
ATOM     23  C   UNL     1      -7.996   4.710 129.014  0.00  0.00    +0.000 C 
BRANCH  23  24
ATOM     24  O   UNL     1      -9.021   5.524 128.344  0.00  0.00    +0.000 OA
ATOM     25  H   UNL     1      -8.681   5.805 127.470  0.00  0.00    +0.000 HD
ENDBRANCH  23  24
ENDBRANCH  21  23
ENDBRANCH   4  21
BRANCH   8  26
ATOM     26  O   UNL     1      -9.358   1.373 127.067  0.00  0.00    +0.000 OA
ATOM     27  H   UNL     1     -10.059   0.725 126.870  0.00  0.00    +0.000 HD
ENDBRANCH   8  26
BRANCH   4  28
ATOM     28  O   UNL     1      -6.310   1.729 129.401  0.00  0.00    +0.000 OA
BRANCH  28  29
ATOM     29  C   UNL     1      -6.733   0.862 130.381  0.00  0.00    +0.000 C 
ATOM     30  O   UNL     1      -7.385   1.206 131.358  0.00  0.00    +0.000 OA
BRANCH  29  31
ATOM     31  C   UNL     1      -6.505  -0.623 130.201  0.00  0.00    +0.000 C 
BRANCH  31  32
ATOM     32  C   UNL     1      -7.905  -1.236 129.899  0.00  0.00    +0.000 C 
BRANCH  32  33
ATOM     33  C   UNL     1      -7.890  -2.702 129.500  0.00  0.00    +0.000 C 
ATOM     34  C   UNL     1      -6.490  -3.290 129.655  0.00  0.00    +0.000 C 
ENDBRANCH  32  33
ENDBRANCH  31  32
ENDBRANCH  29  31
ENDBRANCH  28  29
ENDBRANCH   4  28
TORSDOF 9
ENDMDL
MODEL 7
REMARK VINA RESULT:      -7.8      5.091      6.634
REMARK  Name = Hydrocortisone valerate
REMARK  12 active torsions:
REMARK  status: ('A' for Active; 'I' for Inactive)
REMARK    1  A    between atoms: C_5  and  O_6
REMARK    2  A    between atoms: C_5  and  C_13
REMARK    3  A    between atoms: O_6  and  C_7
REMARK    4  A    between atoms: C_7  and  C_9
REMARK    5  A    between atoms: C_9  and  C_10
REMARK    6  A    between atoms: C_10  and  C_11
REMARK    7  A    between atoms: C_11  and  C_12
REMARK    8  A    between atoms: C_13  and  C_15
REMARK    9  A    between atoms: C_15  and  O_16
REMARK   10  A    between atoms: C_17  and  C_18
REMARK   11  A    between atoms: C_20  and  O_21
REMARK   12  A    between atoms: C_34  and  C_35
REMARK                            x       y       z     vdW  Elec       q    Type
REMARK                         _______ _______ _______ _____ _____    ______ ____
ROOT
ATOM      1  C   UNL     1      -5.066   3.714 130.713  0.00  0.00    +0.000 C 
ATOM      2  C   UNL     1      -4.433   2.466 130.936  0.00  0.00    +0.000 C 
ATOM      3  C   UNL     1      -4.151   3.187 129.672  0.00  0.00    +0.000 C 
ATOM      4  C   UNL     1      -4.651   5.236 129.622  0.00  0.00    +0.000 C 
ATOM      5  C   UNL     1      -3.503   4.557 130.030  0.00  0.00    +0.000 C 
ATOM      6  C   UNL     1      -2.560   4.949 131.102  0.00  0.00    +0.000 C 
ATOM      7  C   UNL     1      -3.184   4.382 128.185  0.00  0.00    +0.000 C 
ATOM      8  C   UNL     1      -4.646   4.237 127.300  0.00  0.00    +0.000 C 
ATOM      9  C   UNL     1      -5.865   3.224 127.805  0.00  0.00    +0.000 C 
ATOM     10  C   UNL     1      -6.363   3.557 129.391  0.00  0.00    +0.000 C 
ATOM     11  C   UNL     1      -7.378   2.566 129.920  0.00  0.00    +0.000 C 
ATOM     12  C   UNL     1      -8.521   2.374 128.964  0.00  0.00    +0.000 C 
ATOM     13  C   UNL     1      -8.125   2.085 127.548  0.00  0.00    +0.000 C 
ATOM     14  C   UNL     1      -8.778   1.139 126.863  0.00  0.00    +0.000 C 
ATOM     15  C   UNL     1      -8.563   1.202 125.420  0.00  0.00    +0.000 C 
ATOM     16  O   UNL     1      -9.051   2.036 124.660  0.00  0.00    +0.000 OA
ATOM     17  C   UNL     1      -7.341   0.540 125.037  0.00  0.00    +0.000 C 
ATOM     18  C   UNL     1      -6.498   1.953 125.487  0.00  0.00    +0.000 C 
ATOM     19  C   UNL     1      -7.070   2.939 126.841  0.00  0.00    +0.000 C 
ATOM     20  C   UNL     1      -7.729   4.327 126.618  0.00  0.00    +0.000 C 
ENDROOT
BRANCH   4  21
ATOM     21  C   UNL     1      -3.716   6.755 129.166  0.00  0.00    +0.000 C 
ATOM     22  O   UNL     1      -2.953   6.828 128.176  0.00  0.00    +0.000 OA
BRANCH  21  23
ATOM     23  C   UNL     1      -3.642   8.111 130.012  0.00  0.00    +0.000 C 
BRANCH  23  24
ATOM     24  O   UNL     1      -4.539   9.147 129.480  0.00  0.00    +0.000 OA
ATOM     25  H   UNL     1      -4.972   8.807 128.670  0.00  0.00    +0.000 HD
ENDBRANCH  23  24
ENDBRANCH  21  23
ENDBRANCH   4  21
BRANCH   8  26
ATOM     26  O   UNL     1      -5.124   5.589 127.157  0.00  0.00    +0.000 OA
ATOM     27  H   UNL     1      -4.391   6.231 127.182  0.00  0.00    +0.000 HD
ENDBRANCH   8  26
BRANCH   4  28
ATOM     28  O   UNL     1      -5.177   5.994 130.990  0.00  0.00    +0.000 OA
BRANCH  28  29
ATOM     29  C   UNL     1      -6.408   6.583 131.155  0.00  0.00    +0.000 C 
ATOM     30  O   UNL     1      -6.785   7.559 130.518  0.00  0.00    +0.000 OA
BRANCH  29  31
ATOM     31  C   UNL     1      -7.421   5.933 132.072  0.00  0.00    +0.000 C 
BRANCH  31  32
ATOM     32  C   UNL     1      -8.819   6.391 131.556  0.00  0.00    +0.000 C 
BRANCH  32  33
ATOM     33  C   UNL     1      -9.492   5.431 130.590  0.00  0.00    +0.000 C 
ATOM     34  C   UNL     1      -9.865   6.143 129.293  0.00  0.00    +0.000 C 
ENDBRANCH  32  33
ENDBRANCH  31  32
ENDBRANCH  29  31
ENDBRANCH  28  29
ENDBRANCH   4  28
TORSDOF 9
ENDMDL
MODEL 8
REMARK VINA RESULT:      -7.7      3.404      6.508
REMARK  Name = Hydrocortisone valerate
REMARK  12 active torsions:
REMARK  status: ('A' for Active; 'I' for Inactive)
REMARK    1  A    between atoms: C_5  and  O_6
REMARK    2  A    between atoms: C_5  and  C_13
REMARK    3  A    between atoms: O_6  and  C_7
REMARK    4  A    between atoms: C_7  and  C_9
REMARK    5  A    between atoms: C_9  and  C_10
REMARK    6  A    between atoms: C_10  and  C_11
REMARK    7  A    between atoms: C_11  and  C_12
REMARK    8  A    between atoms: C_13  and  C_15
REMARK    9  A    between atoms: C_15  and  O_16
REMARK   10  A    between atoms: C_17  and  C_18
REMARK   11  A    between atoms: C_20  and  O_21
REMARK   12  A    between atoms: C_34  and  C_35
REMARK                            x       y       z     vdW  Elec       q    Type
REMARK                         _______ _______ _______ _____ _____    ______ ____
ROOT
ATOM      1  C   UNL     1      -4.732   2.991 127.571  0.00  0.00    +0.000 C 
ATOM      2  C   UNL     1      -3.445   2.854 126.995  0.00  0.00    +0.000 C 
ATOM      3  C   UNL     1      -4.519   1.931 126.557  0.00  0.00    +0.000 C 
ATOM      4  C   UNL     1      -6.499   2.506 127.004  0.00  0.00    +0.000 C 
ATOM      5  C   UNL     1      -5.660   2.781 125.924  0.00  0.00    +0.000 C 
ATOM      6  C   UNL     1      -5.629   4.010 125.100  0.00  0.00    +0.000 C 
ATOM      7  C   UNL     1      -6.074   1.021 125.403  0.00  0.00    +0.000 C 
ATOM      8  C   UNL     1      -6.307  -0.002 126.760  0.00  0.00    +0.000 C 
ATOM      9  C   UNL     1      -5.255   0.019 128.050  0.00  0.00    +0.000 C 
ATOM     10  C   UNL     1      -5.085   1.568 128.715  0.00  0.00    +0.000 C 
ATOM     11  C   UNL     1      -4.037   1.640 129.804  0.00  0.00    +0.000 C 
ATOM     12  C   UNL     1      -4.230   0.566 130.836  0.00  0.00    +0.000 C 
ATOM     13  C   UNL     1      -4.392  -0.819 130.290  0.00  0.00    +0.000 C 
ATOM     14  C   UNL     1      -3.757  -1.838 130.882  0.00  0.00    +0.000 C 
ATOM     15  C   UNL     1      -4.272  -3.152 130.505  0.00  0.00    +0.000 C 
ATOM     16  O   UNL     1      -5.333  -3.641 130.887  0.00  0.00    +0.000 OA
ATOM     17  C   UNL     1      -3.700  -3.607 129.263  0.00  0.00    +0.000 C 
ATOM     18  C   UNL     1      -4.842  -2.638 128.445  0.00  0.00    +0.000 C 
ATOM     19  C   UNL     1      -5.367  -1.100 129.145  0.00  0.00    +0.000 C 
ATOM     20  C   UNL     1      -6.787  -0.920 129.744  0.00  0.00    +0.000 C 
ENDROOT
BRANCH   4  21
ATOM     21  C   UNL     1      -8.028   2.668 125.992  0.00  0.00    +0.000 C 
ATOM     22  O   UNL     1      -8.983   1.861 126.046  0.00  0.00    +0.000 OA
BRANCH  21  23
ATOM     23  C   UNL     1      -8.292   3.748 124.842  0.00  0.00    +0.000 C 
BRANCH  23  24
ATOM     24  O   UNL     1      -8.815   5.013 125.377  0.00  0.00    +0.000 OA
ATOM     25  H   UNL     1      -8.498   5.124 126.296  0.00  0.00    +0.000 HD
ENDBRANCH  23  24
ENDBRANCH  21  23
ENDBRANCH   4  21
BRANCH   8  26
ATOM     26  O   UNL     1      -7.657   0.258 127.190  0.00  0.00    +0.000 OA
ATOM     27  H   UNL     1      -7.717   0.313 128.161  0.00  0.00    +0.000 HD
ENDBRANCH   8  26
BRANCH   4  28
ATOM     28  O   UNL     1      -6.802   3.988 127.664  0.00  0.00    +0.000 OA
BRANCH  28  29
ATOM     29  C   UNL     1      -7.774   4.264 128.597  0.00  0.00    +0.000 C 
ATOM     30  O   UNL     1      -8.757   4.957 128.370  0.00  0.00    +0.000 OA
BRANCH  29  31
ATOM     31  C   UNL     1      -7.717   3.581 129.946  0.00  0.00    +0.000 C 
BRANCH  31  32
ATOM     32  C   UNL     1      -8.712   2.384 129.861  0.00  0.00    +0.000 C 
BRANCH  32  33
ATOM     33  C   UNL     1      -8.983   1.681 131.180  0.00  0.00    +0.000 C 
ATOM     34  C   UNL     1      -7.770   1.776 132.102  0.00  0.00    +0.000 C 
ENDBRANCH  32  33
ENDBRANCH  31  32
ENDBRANCH  29  31
ENDBRANCH  28  29
ENDBRANCH   4  28
TORSDOF 9
ENDMDL
MODEL 9
REMARK VINA RESULT:      -7.6      4.310      6.639
REMARK  Name = Hydrocortisone valerate
REMARK  12 active torsions:
REMARK  status: ('A' for Active; 'I' for Inactive)
REMARK    1  A    between atoms: C_5  and  O_6
REMARK    2  A    between atoms: C_5  and  C_13
REMARK    3  A    between atoms: O_6  and  C_7
REMARK    4  A    between atoms: C_7  and  C_9
REMARK    5  A    between atoms: C_9  and  C_10
REMARK    6  A    between atoms: C_10  and  C_11
REMARK    7  A    between atoms: C_11  and  C_12
REMARK    8  A    between atoms: C_13  and  C_15
REMARK    9  A    between atoms: C_15  and  O_16
REMARK   10  A    between atoms: C_17  and  C_18
REMARK   11  A    between atoms: C_20  and  O_21
REMARK   12  A    between atoms: C_34  and  C_35
REMARK                            x       y       z     vdW  Elec       q    Type
REMARK                         _______ _______ _______ _____ _____    ______ ____
ROOT
ATOM      1  C   UNL     1      -7.240   3.744 127.968  0.00  0.00    +0.000 C 
ATOM      2  C   UNL     1      -8.103   3.597 129.081  0.00  0.00    +0.000 C 
ATOM      3  C   UNL     1      -6.864   2.785 129.034  0.00  0.00    +0.000 C 
ATOM      4  C   UNL     1      -5.371   3.419 127.685  0.00  0.00    +0.000 C 
ATOM      5  C   UNL     1      -5.648   3.757 129.009  0.00  0.00    +0.000 C 
ATOM      6  C   UNL     1      -5.419   5.061 129.671  0.00  0.00    +0.000 C 
ATOM      7  C   UNL     1      -4.875   2.086 129.395  0.00  0.00    +0.000 C 
ATOM      8  C   UNL     1      -5.188   0.942 128.157  0.00  0.00    +0.000 C 
ATOM      9  C   UNL     1      -6.708   0.772 127.500  0.00  0.00    +0.000 C 
ATOM     10  C   UNL     1      -7.311   2.233 126.888  0.00  0.00    +0.000 C 
ATOM     11  C   UNL     1      -8.742   2.134 126.404  0.00  0.00    +0.000 C 
ATOM     12  C   UNL     1      -8.937   0.971 125.474  0.00  0.00    +0.000 C 
ATOM     13  C   UNL     1      -8.411  -0.340 125.973  0.00  0.00    +0.000 C 
ATOM     14  C   UNL     1      -9.145  -1.448 125.811  0.00  0.00    +0.000 C 
ATOM     15  C   UNL     1      -8.391  -2.685 125.994  0.00  0.00    +0.000 C 
ATOM     16  O   UNL     1      -7.578  -3.152 125.199  0.00  0.00    +0.000 OA
ATOM     17  C   UNL     1      -8.287  -3.041 127.387  0.00  0.00    +0.000 C 
ATOM     18  C   UNL     1      -6.998  -1.931 127.518  0.00  0.00    +0.000 C 
ATOM     19  C   UNL     1      -6.999  -0.446 126.555  0.00  0.00    +0.000 C 
ATOM     20  C   UNL     1      -6.033  -0.251 125.356  0.00  0.00    +0.000 C 
ENDROOT
BRANCH   4  21
ATOM     21  C   UNL     1      -3.572   3.768 127.863  0.00  0.00    +0.000 C 
ATOM     22  O   UNL     1      -3.061   4.261 128.893  0.00  0.00    +0.000 OA
BRANCH  21  23
ATOM     23  C   UNL     1      -2.463   3.623 126.720  0.00  0.00    +0.000 C 
BRANCH  23  24
ATOM     24  O   UNL     1      -1.550   2.498 126.972  0.00  0.00    +0.000 OA
ATOM     25  H   UNL     1      -0.646   2.756 126.699  0.00  0.00    +0.000 HD
ENDBRANCH  23  24
ENDBRANCH  21  23
ENDBRANCH   4  21
BRANCH   8  26
ATOM     26  O   UNL     1      -4.214   1.231 127.135  0.00  0.00    +0.000 OA
ATOM     27  H   UNL     1      -4.522   0.942 126.257  0.00  0.00    +0.000 HD
ENDBRANCH   8  26
BRANCH   4  28
ATOM     28  O   UNL     1      -5.546   4.838 126.863  0.00  0.00    +0.000 OA
BRANCH  28  29
ATOM     29  C   UNL     1      -5.799   4.957 125.516  0.00  0.00    +0.000 C 
ATOM     30  O   UNL     1      -6.421   5.888 125.021  0.00  0.00    +0.000 OA
BRANCH  29  31
ATOM     31  C   UNL     1      -5.173   3.967 124.558  0.00  0.00    +0.000 C 
BRANCH  31  32
ATOM     32  C   UNL     1      -6.016   4.049 123.249  0.00  0.00    +0.000 C 
BRANCH  32  33
ATOM     33  C   UNL     1      -5.209   4.263 121.980  0.00  0.00    +0.000 C 
ATOM     34  C   UNL     1      -6.052   3.956 120.745  0.00  0.00    +0.000 C 
ENDBRANCH  32  33
ENDBRANCH  31  32
ENDBRANCH  29  31
ENDBRANCH  28  29
ENDBRANCH   4  28
TORSDOF 9
ENDMDL
