MODEL 1
REMARK VINA RESULT:      -8.1      0.000      0.000
REMARK  Name = Hydrocortisone
REMARK  7 active torsions:
REMARK  status: ('A' for Active; 'I' for Inactive)
REMARK    1  A    between atoms: C_5  and  O_6
REMARK    2  A    between atoms: C_5  and  C_7
REMARK    3  A    between atoms: C_7  and  C_9
REMARK    4  A    between atoms: C_9  and  O_10
REMARK    5  A    between atoms: C_11  and  C_12
REMARK    6  A    between atoms: C_14  and  O_15
REMARK    7  A    between atoms: C_28  and  C_29
REMARK                            x       y       z     vdW  Elec       q    Type
REMARK                         _______ _______ _______ _____ _____    ______ ____
ROOT
ATOM      1  C   UNL     1      -7.110  -3.288 130.467  0.00  0.00    +0.000 C 
ATOM      2  C   UNL     1      -6.253  -4.410 130.347  0.00  0.00    +0.000 C 
ATOM      3  C   UNL     1      -5.704  -3.108 129.856  0.00  0.00    +0.000 C 
ATOM      4  C   UNL     1      -6.652  -1.354 130.523  0.00  0.00    +0.000 C 
ATOM      5  C   UNL     1      -5.679  -2.166 131.078  0.00  0.00    +0.000 C 
ATOM      6  C   UNL     1      -5.346  -2.389 132.497  0.00  0.00    +0.000 C 
ATOM      7  C   UNL     1      -4.648  -1.270 129.766  0.00  0.00    +0.000 C 
ATOM      8  C   UNL     1      -5.575  -0.963 128.341  0.00  0.00    +0.000 C 
ATOM      9  C   UNL     1      -6.557  -2.137 127.693  0.00  0.00    +0.000 C 
ATOM     10  C   UNL     1      -7.717  -2.755 128.827  0.00  0.00    +0.000 C 
ATOM     11  C   UNL     1      -8.449  -3.949 128.252  0.00  0.00    +0.000 C 
ATOM     12  C   UNL     1      -9.013  -3.662 126.887  0.00  0.00    +0.000 C 
ATOM     13  C   UNL     1      -8.058  -3.087 125.884  0.00  0.00    +0.000 C 
ATOM     14  C   UNL     1      -8.085  -3.521 124.616  0.00  0.00    +0.000 C 
ATOM     15  C   UNL     1      -7.396  -2.644 123.670  0.00  0.00    +0.000 C 
ATOM     16  O   UNL     1      -7.803  -1.555 123.272  0.00  0.00    +0.000 OA
ATOM     17  C   UNL     1      -5.979  -2.908 123.636  0.00  0.00    +0.000 C 
ATOM     18  C   UNL     1      -5.839  -1.946 125.050  0.00  0.00    +0.000 C 
ATOM     19  C   UNL     1      -7.147  -1.920 126.256  0.00  0.00    +0.000 C 
ATOM     20  C   UNL     1      -8.069  -0.690 126.430  0.00  0.00    +0.000 C 
ENDROOT
BRANCH   4  21
ATOM     21  O   UNL     1      -7.845  -1.470 131.410  0.00  0.00    +0.000 OA
ATOM     22  H   UNL     1      -7.853  -2.291 131.924  0.00  0.00    +0.000 HD
ENDBRANCH   4  21
BRANCH   4  23
ATOM     23  C   UNL     1      -6.113   0.181 131.366  0.00  0.00    +0.000 C 
ATOM     24  O   UNL     1      -4.963   0.657 131.289  0.00  0.00    +0.000 OA
BRANCH  23  25
ATOM     25  C   UNL     1      -7.010   1.000 132.415  0.00  0.00    +0.000 C 
BRANCH  25  26
ATOM     26  O   UNL     1      -7.137   0.302 133.687  0.00  0.00    +0.000 OA
ATOM     27  H   UNL     1      -8.055   0.419 134.008  0.00  0.00    +0.000 HD
ENDBRANCH  25  26
ENDBRANCH  23  25
ENDBRANCH   4  23
BRANCH   8  28
ATOM     28  O   UNL     1      -6.349   0.217 128.638  0.00  0.00    +0.000 OA
ATOM     29  H   UNL     1      -6.877   0.484 127.863  0.00  0.00    +0.000 HD
ENDBRANCH   8  28
TORSDOF 5
ENDMDL
MODEL 2
REMARK VINA RESULT:      -7.9      1.728      6.568
REMARK  Name = Hydrocortisone
REMARK  7 active torsions:
REMARK  status: ('A' for Active; 'I' for Inactive)
REMARK    1  A    between atoms: C_5  and  O_6
REMARK    2  A    between atoms: C_5  and  C_7
REMARK    3  A    between atoms: C_7  and  C_9
REMARK    4  A    between atoms: C_9  and  O_10
REMARK    5  A    between atoms: C_11  and  C_12
REMARK    6  A    between atoms: C_14  and  O_15
REMARK    7  A    between atoms: C_28  and  C_29
REMARK                            x       y       z     vdW  Elec       q    Type
REMARK                         _______ _______ _______ _____ _____    ______ ____
ROOT
ATOM      1  C   UNL     1      -8.603  -3.442 125.998  0.00  0.00    +0.000 C 
ATOM      2  C   UNL     1     -10.008  -3.381 126.170  0.00  0.00    +0.000 C 
ATOM      3  C   UNL     1      -9.325  -2.083 125.876  0.00  0.00    +0.000 C 
ATOM      4  C   UNL     1      -7.395  -2.181 125.047  0.00  0.00    +0.000 C 
ATOM      5  C   UNL     1      -8.661  -2.254 124.493  0.00  0.00    +0.000 C 
ATOM      6  C   UNL     1      -9.102  -2.922 123.256  0.00  0.00    +0.000 C 
ATOM      7  C   UNL     1      -8.562  -0.395 124.842  0.00  0.00    +0.000 C 
ATOM      8  C   UNL     1      -7.681  -0.074 126.293  0.00  0.00    +0.000 C 
ATOM      9  C   UNL     1      -7.946  -0.971 127.667  0.00  0.00    +0.000 C 
ATOM     10  C   UNL     1      -7.740  -2.676 127.416  0.00  0.00    +0.000 C 
ATOM     11  C   UNL     1      -8.181  -3.457 128.636  0.00  0.00    +0.000 C 
ATOM     12  C   UNL     1      -7.547  -2.938 129.898  0.00  0.00    +0.000 C 
ATOM     13  C   UNL     1      -7.661  -1.462 130.138  0.00  0.00    +0.000 C 
ATOM     14  C   UNL     1      -7.929  -1.008 131.370  0.00  0.00    +0.000 C 
ATOM     15  C   UNL     1      -7.645   0.414 131.557  0.00  0.00    +0.000 C 
ATOM     16  O   UNL     1      -6.527   0.918 131.649  0.00  0.00    +0.000 OA
ATOM     17  C   UNL     1      -8.741   1.238 131.113  0.00  0.00    +0.000 C 
ATOM     18  C   UNL     1      -8.142   1.049 129.517  0.00  0.00    +0.000 C 
ATOM     19  C   UNL     1      -7.347  -0.465 129.025  0.00  0.00    +0.000 C 
ATOM     20  C   UNL     1      -5.819  -0.544 128.794  0.00  0.00    +0.000 C 
ENDROOT
BRANCH   4  21
ATOM     21  O   UNL     1      -6.770  -3.517 124.829  0.00  0.00    +0.000 OA
ATOM     22  H   UNL     1      -7.096  -3.960 124.031  0.00  0.00    +0.000 HD
ENDBRANCH   4  21
BRANCH   4  23
ATOM     23  C   UNL     1      -6.581  -1.501 123.554  0.00  0.00    +0.000 C 
ATOM     24  O   UNL     1      -6.752  -0.342 123.128  0.00  0.00    +0.000 OA
BRANCH  23  25
ATOM     25  C   UNL     1      -5.676  -2.362 122.545  0.00  0.00    +0.000 C 
BRANCH  25  26
ATOM     26  O   UNL     1      -4.587  -3.042 123.232  0.00  0.00    +0.000 OA
ATOM     27  H   UNL     1      -3.788  -2.983 122.669  0.00  0.00    +0.000 HD
ENDBRANCH  25  26
ENDBRANCH  23  25
ENDBRANCH   4  23
BRANCH   8  28
ATOM     28  O   UNL     1      -6.291  -0.148 125.917  0.00  0.00    +0.000 OA
ATOM     29  H   UNL     1      -6.155  -0.837 125.242  0.00  0.00    +0.000 HD
ENDBRANCH   8  28
TORSDOF 5
ENDMDL
MODEL 3
REMARK VINA RESULT:      -7.9      3.291      6.236
REMARK  Name = Hydrocortisone
REMARK  7 active torsions:
REMARK  status: ('A' for Active; 'I' for Inactive)
REMARK    1  A    between atoms: C_5  and  O_6
REMARK    2  A    between atoms: C_5  and  C_7
REMARK    3  A    between atoms: C_7  and  C_9
REMARK    4  A    between atoms: C_9  and  O_10
REMARK    5  A    between atoms: C_11  and  C_12
REMARK    6  A    between atoms: C_14  and  O_15
REMARK    7  A    between atoms: C_28  and  C_29
REMARK                            x       y       z     vdW  Elec       q    Type
REMARK                         _______ _______ _______ _____ _____    ______ ____
ROOT
ATOM      1  C   UNL     1      -7.502  -1.262 123.599  0.00  0.00    +0.000 C 
ATOM      2  C   UNL     1      -6.330  -1.534 122.851  0.00  0.00    +0.000 C 
ATOM      3  C   UNL     1      -6.173  -1.527 124.339  0.00  0.00    +0.000 C 
ATOM      4  C   UNL     1      -7.924  -1.716 125.488  0.00  0.00    +0.000 C 
ATOM      5  C   UNL     1      -7.100  -2.641 124.871  0.00  0.00    +0.000 C 
ATOM      6  C   UNL     1      -7.421  -3.990 124.369  0.00  0.00    +0.000 C 
ATOM      7  C   UNL     1      -6.017  -2.176 126.352  0.00  0.00    +0.000 C 
ATOM      8  C   UNL     1      -6.195  -0.506 126.761  0.00  0.00    +0.000 C 
ATOM      9  C   UNL     1      -6.205   0.664 125.582  0.00  0.00    +0.000 C 
ATOM     10  C   UNL     1      -7.415   0.394 124.367  0.00  0.00    +0.000 C 
ATOM     11  C   UNL     1      -7.253   1.371 123.220  0.00  0.00    +0.000 C 
ATOM     12  C   UNL     1      -7.166   2.794 123.699  0.00  0.00    +0.000 C 
ATOM     13  C   UNL     1      -6.163   3.069 124.779  0.00  0.00    +0.000 C 
ATOM     14  C   UNL     1      -5.415   4.180 124.725  0.00  0.00    +0.000 C 
ATOM     15  C   UNL     1      -4.767   4.525 125.990  0.00  0.00    +0.000 C 
ATOM     16  O   UNL     1      -5.326   4.990 126.981  0.00  0.00    +0.000 OA
ATOM     17  C   UNL     1      -3.529   3.808 126.165  0.00  0.00    +0.000 C 
ATOM     18  C   UNL     1      -4.463   2.470 126.696  0.00  0.00    +0.000 C 
ATOM     19  C   UNL     1      -6.076   2.168 126.009  0.00  0.00    +0.000 C 
ATOM     20  C   UNL     1      -7.368   2.420 126.822  0.00  0.00    +0.000 C 
ENDROOT
BRANCH   4  21
ATOM     21  O   UNL     1      -9.239  -1.803 124.792  0.00  0.00    +0.000 OA
ATOM     22  H   UNL     1      -9.527  -0.954 124.424  0.00  0.00    +0.000 HD
ENDBRANCH   4  21
BRANCH   4  23
ATOM     23  C   UNL     1      -8.497  -2.840 126.817  0.00  0.00    +0.000 C 
ATOM     24  O   UNL     1      -9.617  -3.387 126.839  0.00  0.00    +0.000 OA
BRANCH  23  25
ATOM     25  C   UNL     1      -7.684  -3.127 128.171  0.00  0.00    +0.000 C 
BRANCH  25  26
ATOM     26  O   UNL     1      -8.309  -2.500 129.327  0.00  0.00    +0.000 OA
ATOM     27  H   UNL     1      -9.011  -1.899 129.004  0.00  0.00    +0.000 HD
ENDBRANCH  25  26
ENDBRANCH  23  25
ENDBRANCH   4  23
BRANCH   8  28
ATOM     28  O   UNL     1      -7.409  -0.433 127.537  0.00  0.00    +0.000 OA
ATOM     29  H   UNL     1      -7.203  -0.363 128.488  0.00  0.00    +0.000 HD
ENDBRANCH   8  28
TORSDOF 5
ENDMDL
MODEL 4
REMARK VINA RESULT:      -7.9      4.105      7.700
REMARK  Name = Hydrocortisone
REMARK  7 active torsions:
REMARK  status: ('A' for Active; 'I' for Inactive)
REMARK    1  A    between atoms: C_5  and  O_6
REMARK    2  A    between atoms: C_5  and  C_7
REMARK    3  A    between atoms: C_7  and  C_9
REMARK    4  A    between atoms: C_9  and  O_10
REMARK    5  A    between atoms: C_11  and  C_12
REMARK    6  A    between atoms: C_14  and  O_15
REMARK    7  A    between atoms: C_28  and  C_29
REMARK                            x       y       z     vdW  Elec       q    Type
REMARK                         _______ _______ _______ _____ _____    ______ ____
ROOT
ATOM      1  C   UNL     1      -9.216   2.057 124.005  0.00  0.00    +0.000 C 
ATOM      2  C   UNL     1      -8.684   2.651 122.833  0.00  0.00    +0.000 C 
ATOM      3  C   UNL     1      -7.918   1.492 123.389  0.00  0.00    +0.000 C 
ATOM      4  C   UNL     1      -8.930   0.228 124.731  0.00  0.00    +0.000 C 
ATOM      5  C   UNL     1      -8.880   0.286 123.350  0.00  0.00    +0.000 C 
ATOM      6  C   UNL     1      -9.880  -0.155 122.360  0.00  0.00    +0.000 C 
ATOM      7  C   UNL     1      -7.182  -0.472 123.707  0.00  0.00    +0.000 C 
ATOM      8  C   UNL     1      -6.504   0.164 125.163  0.00  0.00    +0.000 C 
ATOM      9  C   UNL     1      -6.562   1.792 125.490  0.00  0.00    +0.000 C 
ATOM     10  C   UNL     1      -8.173   2.436 125.457  0.00  0.00    +0.000 C 
ATOM     11  C   UNL     1      -8.151   3.946 125.566  0.00  0.00    +0.000 C 
ATOM     12  C   UNL     1      -7.323   4.418 126.729  0.00  0.00    +0.000 C 
ATOM     13  C   UNL     1      -5.935   3.856 126.824  0.00  0.00    +0.000 C 
ATOM     14  C   UNL     1      -4.916   4.656 127.167  0.00  0.00    +0.000 C 
ATOM     15  C   UNL     1      -3.712   3.941 127.590  0.00  0.00    +0.000 C 
ATOM     16  O   UNL     1      -3.566   3.351 128.658  0.00  0.00    +0.000 OA
ATOM     17  C   UNL     1      -2.905   3.546 126.463  0.00  0.00    +0.000 C 
ATOM     18  C   UNL     1      -3.961   2.207 126.269  0.00  0.00    +0.000 C 
ATOM     19  C   UNL     1      -5.689   2.357 126.665  0.00  0.00    +0.000 C 
ATOM     20  C   UNL     1      -6.298   1.684 127.919  0.00  0.00    +0.000 C 
ENDROOT
BRANCH   4  21
ATOM     21  O   UNL     1     -10.335   0.553 125.110  0.00  0.00    +0.000 OA
ATOM     22  H   UNL     1     -10.438   1.463 125.428  0.00  0.00    +0.000 HD
ENDBRANCH   4  21
BRANCH   4  23
ATOM     23  C   UNL     1      -9.267  -1.569 124.828  0.00  0.00    +0.000 C 
ATOM     24  O   UNL     1      -9.651  -2.157 125.859  0.00  0.00    +0.000 OA
BRANCH  23  25
ATOM     25  C   UNL     1      -8.962  -2.612 123.646  0.00  0.00    +0.000 C 
BRANCH  25  26
ATOM     26  O   UNL     1     -10.097  -3.484 123.379  0.00  0.00    +0.000 OA
ATOM     27  H   UNL     1      -9.841  -4.398 123.617  0.00  0.00    +0.000 HD
ENDBRANCH  25  26
ENDBRANCH  23  25
ENDBRANCH   4  23
BRANCH   8  28
ATOM     28  O   UNL     1      -7.135  -0.575 126.230  0.00  0.00    +0.000 OA
ATOM     29  H   UNL     1      -7.696   0.013 126.768  0.00  0.00    +0.000 HD
ENDBRANCH   8  28
TORSDOF 5
ENDMDL
MODEL 5
REMARK VINA RESULT:      -7.6      5.734      9.413
REMARK  Name = Hydrocortisone
REMARK  7 active torsions:
REMARK  status: ('A' for Active; 'I' for Inactive)
REMARK    1  A    between atoms: C_5  and  O_6
REMARK    2  A    between atoms: C_5  and  C_7
REMARK    3  A    between atoms: C_7  and  C_9
REMARK    4  A    between atoms: C_9  and  O_10
REMARK    5  A    between atoms: C_11  and  C_12
REMARK    6  A    between atoms: C_14  and  O_15
REMARK    7  A    between atoms: C_28  and  C_29
REMARK                            x       y       z     vdW  Elec       q    Type
REMARK                         _______ _______ _______ _____ _____    ______ ____
ROOT
ATOM      1  C   UNL     1      -3.899   4.193 126.541  0.00  0.00    +0.000 C 
ATOM      2  C   UNL     1      -2.989   3.107 126.589  0.00  0.00    +0.000 C 
ATOM      3  C   UNL     1      -4.140   3.043 127.543  0.00  0.00    +0.000 C 
ATOM      4  C   UNL     1      -5.795   4.273 127.133  0.00  0.00    +0.000 C 
ATOM      5  C   UNL     1      -5.414   3.025 126.673  0.00  0.00    +0.000 C 
ATOM      6  C   UNL     1      -5.736   2.362 125.396  0.00  0.00    +0.000 C 
ATOM      7  C   UNL     1      -6.016   2.565 128.409  0.00  0.00    +0.000 C 
ATOM      8  C   UNL     1      -5.654   3.811 129.550  0.00  0.00    +0.000 C 
ATOM      9  C   UNL     1      -4.166   4.550 129.562  0.00  0.00    +0.000 C 
ATOM     10  C   UNL     1      -3.738   5.242 128.029  0.00  0.00    +0.000 C 
ATOM     11  C   UNL     1      -2.303   5.726 128.038  0.00  0.00    +0.000 C 
ATOM     12  C   UNL     1      -2.013   6.612 129.218  0.00  0.00    +0.000 C 
ATOM     13  C   UNL     1      -2.404   6.074 130.562  0.00  0.00    +0.000 C 
ATOM     14  C   UNL     1      -1.584   6.241 131.609  0.00  0.00    +0.000 C 
ATOM     15  C   UNL     1      -2.221   6.022 132.907  0.00  0.00    +0.000 C 
ATOM     16  O   UNL     1      -3.019   6.782 133.453  0.00  0.00    +0.000 OA
ATOM     17  C   UNL     1      -2.241   4.625 133.260  0.00  0.00    +0.000 C 
ATOM     18  C   UNL     1      -3.620   4.465 132.251  0.00  0.00    +0.000 C 
ATOM     19  C   UNL     1      -3.782   5.456 130.783  0.00  0.00    +0.000 C 
ATOM     20  C   UNL     1      -4.797   6.621 130.696  0.00  0.00    +0.000 C 
ENDROOT
BRANCH   4  21
ATOM     21  O   UNL     1      -5.744   5.183 125.953  0.00  0.00    +0.000 OA
ATOM     22  H   UNL     1      -6.271   4.861 125.206  0.00  0.00    +0.000 HD
ENDBRANCH   4  21
BRANCH   4  23
ATOM     23  C   UNL     1      -7.594   4.009 126.915  0.00  0.00    +0.000 C 
ATOM     24  O   UNL     1      -8.312   3.371 127.711  0.00  0.00    +0.000 OA
BRANCH  23  25
ATOM     25  C   UNL     1      -8.419   4.434 125.604  0.00  0.00    +0.000 C 
BRANCH  25  26
ATOM     26  O   UNL     1      -8.903   5.806 125.685  0.00  0.00    +0.000 OA
ATOM     27  H   UNL     1      -8.510   6.220 126.480  0.00  0.00    +0.000 HD
ENDBRANCH  25  26
ENDBRANCH  23  25
ENDBRANCH   4  23
BRANCH   8  28
ATOM     28  O   UNL     1      -6.692   4.798 129.376  0.00  0.00    +0.000 OA
ATOM     29  H   UNL     1      -6.697   5.423 130.124  0.00  0.00    +0.000 HD
ENDBRANCH   8  28
TORSDOF 5
ENDMDL
MODEL 6
REMARK VINA RESULT:      -7.6      5.276      8.821
REMARK  Name = Hydrocortisone
REMARK  7 active torsions:
REMARK  status: ('A' for Active; 'I' for Inactive)
REMARK    1  A    between atoms: C_5  and  O_6
REMARK    2  A    between atoms: C_5  and  C_7
REMARK    3  A    between atoms: C_7  and  C_9
REMARK    4  A    between atoms: C_9  and  O_10
REMARK    5  A    between atoms: C_11  and  C_12
REMARK    6  A    between atoms: C_14  and  O_15
REMARK    7  A    between atoms: C_28  and  C_29
REMARK                            x       y       z     vdW  Elec       q    Type
REMARK                         _______ _______ _______ _____ _____    ______ ____
ROOT
ATOM      1  C   UNL     1      -8.396   6.460 131.785  0.00  0.00    +0.000 C 
ATOM      2  C   UNL     1      -7.146   6.682 131.156  0.00  0.00    +0.000 C 
ATOM      3  C   UNL     1      -8.085   5.759 130.445  0.00  0.00    +0.000 C 
ATOM      4  C   UNL     1     -10.114   5.847 130.992  0.00  0.00    +0.000 C 
ATOM      5  C   UNL     1      -9.341   6.595 130.121  0.00  0.00    +0.000 C 
ATOM      6  C   UNL     1      -9.518   7.990 129.678  0.00  0.00    +0.000 C 
ATOM      7  C   UNL     1      -9.546   5.014 129.100  0.00  0.00    +0.000 C 
ATOM      8  C   UNL     1      -9.564   3.612 130.110  0.00  0.00    +0.000 C 
ATOM      9  C   UNL     1      -8.469   3.439 131.348  0.00  0.00    +0.000 C 
ATOM     10  C   UNL     1      -8.491   4.767 132.466  0.00  0.00    +0.000 C 
ATOM     11  C   UNL     1      -7.350   4.657 133.455  0.00  0.00    +0.000 C 
ATOM     12  C   UNL     1      -7.296   3.302 134.107  0.00  0.00    +0.000 C 
ATOM     13  C   UNL     1      -7.317   2.121 133.183  0.00  0.00    +0.000 C 
ATOM     14  C   UNL     1      -6.518   1.073 133.425  0.00  0.00    +0.000 C 
ATOM     15  C   UNL     1      -6.890  -0.142 132.701  0.00  0.00    +0.000 C 
ATOM     16  O   UNL     1      -7.855  -0.861 132.953  0.00  0.00    +0.000 OA
ATOM     17  C   UNL     1      -6.348  -0.151 131.365  0.00  0.00    +0.000 C 
ATOM     18  C   UNL     1      -7.661   0.853 130.903  0.00  0.00    +0.000 C 
ATOM     19  C   UNL     1      -8.332   2.041 132.045  0.00  0.00    +0.000 C 
ATOM     20  C   UNL     1      -9.714   1.837 132.713  0.00  0.00    +0.000 C 
ENDROOT
BRANCH   4  21
ATOM     21  O   UNL     1     -10.529   6.777 132.081  0.00  0.00    +0.000 OA
ATOM     22  H   UNL     1     -10.854   6.313 132.868  0.00  0.00    +0.000 HD
ENDBRANCH   4  21
BRANCH   4  23
ATOM     23  C   UNL     1     -11.694   6.105 130.102  0.00  0.00    +0.000 C 
ATOM     24  O   UNL     1     -12.048   5.454 129.099  0.00  0.00    +0.000 OA
BRANCH  23  25
ATOM     25  C   UNL     1     -12.727   7.292 130.419  0.00  0.00    +0.000 C 
BRANCH  25  26
ATOM     26  O   UNL     1     -13.273   7.196 131.766  0.00  0.00    +0.000 OA
ATOM     27  H   UNL     1     -13.096   6.294 132.102  0.00  0.00    +0.000 HD
ENDBRANCH  25  26
ENDBRANCH  23  25
ENDBRANCH   4  23
BRANCH   8  28
ATOM     28  O   UNL     1     -10.908   3.535 130.628  0.00  0.00    +0.000 OA
ATOM     29  H   UNL     1     -11.431   2.883 130.126  0.00  0.00    +0.000 HD
ENDBRANCH   8  28
TORSDOF 5
ENDMDL
MODEL 7
REMARK VINA RESULT:      -7.6      2.376      6.675
REMARK  Name = Hydrocortisone
REMARK  7 active torsions:
REMARK  status: ('A' for Active; 'I' for Inactive)
REMARK    1  A    between atoms: C_5  and  O_6
REMARK    2  A    between atoms: C_5  and  C_7
REMARK    3  A    between atoms: C_7  and  C_9
REMARK    4  A    between atoms: C_9  and  O_10
REMARK    5  A    between atoms: C_11  and  C_12
REMARK    6  A    between atoms: C_14  and  O_15
REMARK    7  A    between atoms: C_28  and  C_29
REMARK                            x       y       z     vdW  Elec       q    Type
REMARK                         _______ _______ _______ _____ _____    ______ ____
ROOT
ATOM      1  C   UNL     1      -8.200   1.295 126.131  0.00  0.00    +0.000 C 
ATOM      2  C   UNL     1      -7.067   2.146 126.127  0.00  0.00    +0.000 C 
ATOM      3  C   UNL     1      -6.859   0.771 125.575  0.00  0.00    +0.000 C 
ATOM      4  C   UNL     1      -8.575  -0.309 125.016  0.00  0.00    +0.000 C 
ATOM      5  C   UNL     1      -7.813   0.647 124.368  0.00  0.00    +0.000 C 
ATOM      6  C   UNL     1      -8.207   1.597 123.312  0.00  0.00    +0.000 C 
ATOM      7  C   UNL     1      -6.660  -0.848 124.219  0.00  0.00    +0.000 C 
ATOM      8  C   UNL     1      -6.754  -1.855 125.620  0.00  0.00    +0.000 C 
ATOM      9  C   UNL     1      -6.756  -1.196 127.145  0.00  0.00    +0.000 C 
ATOM     10  C   UNL     1      -8.017  -0.027 127.379  0.00  0.00    +0.000 C 
ATOM     11  C   UNL     1      -7.855   0.681 128.708  0.00  0.00    +0.000 C 
ATOM     12  C   UNL     1      -7.691  -0.287 129.848  0.00  0.00    +0.000 C 
ATOM     13  C   UNL     1      -6.641  -1.343 129.674  0.00  0.00    +0.000 C 
ATOM     14  C   UNL     1      -5.849  -1.669 130.705  0.00  0.00    +0.000 C 
ATOM     15  C   UNL     1      -5.144  -2.939 130.537  0.00  0.00    +0.000 C 
ATOM     16  O   UNL     1      -5.649  -4.058 130.613  0.00  0.00    +0.000 OA
ATOM     17  C   UNL     1      -3.931  -2.777 129.775  0.00  0.00    +0.000 C 
ATOM     18  C   UNL     1      -4.902  -2.817 128.360  0.00  0.00    +0.000 C 
ATOM     19  C   UNL     1      -6.549  -2.144 128.378  0.00  0.00    +0.000 C 
ATOM     20  C   UNL     1      -7.800  -3.054 128.342  0.00  0.00    +0.000 C 
ENDROOT
BRANCH   4  21
ATOM     21  O   UNL     1      -9.917   0.306 125.230  0.00  0.00    +0.000 OA
ATOM     22  H   UNL     1     -10.490  -0.229 125.799  0.00  0.00    +0.000 HD
ENDBRANCH   4  21
BRANCH   4  23
ATOM     23  C   UNL     1      -9.148  -1.151 123.494  0.00  0.00    +0.000 C 
ATOM     24  O   UNL     1      -9.852  -0.613 122.617  0.00  0.00    +0.000 OA
BRANCH  23  25
ATOM     25  C   UNL     1      -8.938  -2.713 123.191  0.00  0.00    +0.000 C 
BRANCH  25  26
ATOM     26  O   UNL     1     -10.130  -3.494 123.493  0.00  0.00    +0.000 OA
ATOM     27  H   UNL     1     -10.834  -3.227 122.868  0.00  0.00    +0.000 HD
ENDBRANCH  25  26
ENDBRANCH  23  25
ENDBRANCH   4  23
BRANCH   8  28
ATOM     28  O   UNL     1      -7.936  -2.660 125.430  0.00  0.00    +0.000 OA
ATOM     29  H   UNL     1      -8.257  -3.003 126.284  0.00  0.00    +0.000 HD
ENDBRANCH   8  28
TORSDOF 5
ENDMDL
MODEL 8
REMARK VINA RESULT:      -7.3      6.445      9.422
REMARK  Name = Hydrocortisone
REMARK  7 active torsions:
REMARK  status: ('A' for Active; 'I' for Inactive)
REMARK    1  A    between atoms: C_5  and  O_6
REMARK    2  A    between atoms: C_5  and  C_7
REMARK    3  A    between atoms: C_7  and  C_9
REMARK    4  A    between atoms: C_9  and  O_10
REMARK    5  A    between atoms: C_11  and  C_12
REMARK    6  A    between atoms: C_14  and  O_15
REMARK    7  A    between atoms: C_28  and  C_29
REMARK                            x       y       z     vdW  Elec       q    Type
REMARK                         _______ _______ _______ _____ _____    ______ ____
ROOT
ATOM      1  C   UNL     1      -7.749   3.524 129.857  0.00  0.00    +0.000 C 
ATOM      2  C   UNL     1      -7.771   2.548 130.884  0.00  0.00    +0.000 C 
ATOM      3  C   UNL     1      -7.930   3.969 131.324  0.00  0.00    +0.000 C 
ATOM      4  C   UNL     1      -8.486   5.371 129.859  0.00  0.00    +0.000 C 
ATOM      5  C   UNL     1      -9.212   4.488 130.639  0.00  0.00    +0.000 C 
ATOM      6  C   UNL     1     -10.517   3.859 130.369  0.00  0.00    +0.000 C 
ATOM      7  C   UNL     1      -8.799   5.805 131.934  0.00  0.00    +0.000 C 
ATOM      8  C   UNL     1      -7.231   6.480 131.666  0.00  0.00    +0.000 C 
ATOM      9  C   UNL     1      -5.934   5.506 131.306  0.00  0.00    +0.000 C 
ATOM     10  C   UNL     1      -6.204   4.499 129.918  0.00  0.00    +0.000 C 
ATOM     11  C   UNL     1      -5.079   3.499 129.752  0.00  0.00    +0.000 C 
ATOM     12  C   UNL     1      -3.728   4.157 129.782  0.00  0.00    +0.000 C 
ATOM     13  C   UNL     1      -3.462   5.071 130.941  0.00  0.00    +0.000 C 
ATOM     14  C   UNL     1      -2.266   5.049 131.545  0.00  0.00    +0.000 C 
ATOM     15  C   UNL     1      -2.000   6.215 132.387  0.00  0.00    +0.000 C 
ATOM     16  O   UNL     1      -1.739   7.347 131.985  0.00  0.00    +0.000 OA
ATOM     17  C   UNL     1      -2.566   6.060 133.703  0.00  0.00    +0.000 C 
ATOM     18  C   UNL     1      -4.070   6.546 133.034  0.00  0.00    +0.000 C 
ATOM     19  C   UNL     1      -4.491   6.119 131.359  0.00  0.00    +0.000 C 
ATOM     20  C   UNL     1      -4.511   7.178 130.230  0.00  0.00    +0.000 C 
ENDROOT
BRANCH   4  21
ATOM     21  O   UNL     1      -8.655   4.915 128.449  0.00  0.00    +0.000 OA
ATOM     22  H   UNL     1      -9.005   5.607 127.869  0.00  0.00    +0.000 HD
ENDBRANCH   4  21
BRANCH   4  23
ATOM     23  C   UNL     1      -9.832   6.600 129.674  0.00  0.00    +0.000 C 
ATOM     24  O   UNL     1      -9.893   7.441 128.756  0.00  0.00    +0.000 OA
BRANCH  23  25
ATOM     25  C   UNL     1     -10.998   6.833 130.753  0.00  0.00    +0.000 C 
BRANCH  25  26
ATOM     26  O   UNL     1     -12.315   6.883 130.132  0.00  0.00    +0.000 OA
ATOM     27  H   UNL     1     -12.233   7.366 129.285  0.00  0.00    +0.000 HD
ENDBRANCH  25  26
ENDBRANCH  23  25
ENDBRANCH   4  23
BRANCH   8  28
ATOM     28  O   UNL     1      -7.413   7.462 130.625  0.00  0.00    +0.000 OA
ATOM     29  H   UNL     1      -7.047   8.323 130.899  0.00  0.00    +0.000 HD
ENDBRANCH   8  28
TORSDOF 5
ENDMDL
MODEL 9
REMARK VINA RESULT:      -7.3      2.617      6.749
REMARK  Name = Hydrocortisone
REMARK  7 active torsions:
REMARK  status: ('A' for Active; 'I' for Inactive)
REMARK    1  A    between atoms: C_5  and  O_6
REMARK    2  A    between atoms: C_5  and  C_7
REMARK    3  A    between atoms: C_7  and  C_9
REMARK    4  A    between atoms: C_9  and  O_10
REMARK    5  A    between atoms: C_11  and  C_12
REMARK    6  A    between atoms: C_14  and  O_15
REMARK    7  A    between atoms: C_28  and  C_29
REMARK                            x       y       z     vdW  Elec       q    Type
REMARK                         _______ _______ _______ _____ _____    ______ ____
ROOT
ATOM      1  C   UNL     1      -7.799  -1.229 123.897  0.00  0.00    +0.000 C 
ATOM      2  C   UNL     1      -8.739  -2.286 123.986  0.00  0.00    +0.000 C 
ATOM      3  C   UNL     1      -9.006  -1.094 124.850  0.00  0.00    +0.000 C 
ATOM      4  C   UNL     1      -8.021   0.695 124.348  0.00  0.00    +0.000 C 
ATOM      5  C   UNL     1      -9.183   0.099 123.888  0.00  0.00    +0.000 C 
ATOM      6  C   UNL     1      -9.841   0.228 122.576  0.00  0.00    +0.000 C 
ATOM      7  C   UNL     1      -9.786   0.745 125.563  0.00  0.00    +0.000 C 
ATOM      8  C   UNL     1      -8.541   0.655 126.757  0.00  0.00    +0.000 C 
ATOM      9  C   UNL     1      -7.590  -0.701 126.897  0.00  0.00    +0.000 C 
ATOM     10  C   UNL     1      -6.789  -1.126 125.417  0.00  0.00    +0.000 C 
ATOM     11  C   UNL     1      -6.099  -2.468 125.544  0.00  0.00    +0.000 C 
ATOM     12  C   UNL     1      -5.221  -2.538 126.763  0.00  0.00    +0.000 C 
ATOM     13  C   UNL     1      -5.857  -2.139 128.061  0.00  0.00    +0.000 C 
ATOM     14  C   UNL     1      -5.607  -2.849 129.170  0.00  0.00    +0.000 C 
ATOM     15  C   UNL     1      -5.962  -2.163 130.412  0.00  0.00    +0.000 C 
ATOM     16  O   UNL     1      -5.349  -1.224 130.914  0.00  0.00    +0.000 OA
ATOM     17  C   UNL     1      -7.358  -2.329 130.729  0.00  0.00    +0.000 C 
ATOM     18  C   UNL     1      -7.686  -1.064 129.617  0.00  0.00    +0.000 C 
ATOM     19  C   UNL     1      -6.680  -0.857 128.164  0.00  0.00    +0.000 C 
ATOM     20  C   UNL     1      -5.676   0.313 128.029  0.00  0.00    +0.000 C 
ENDROOT
BRANCH   4  21
ATOM     21  O   UNL     1      -7.074   0.699 123.197  0.00  0.00    +0.000 OA
ATOM     22  H   UNL     1      -6.175   0.439 123.448  0.00  0.00    +0.000 HD
ENDBRANCH   4  21
BRANCH   4  23
ATOM     23  C   UNL     1      -8.542   2.414 123.990  0.00  0.00    +0.000 C 
ATOM     24  O   UNL     1      -9.246   3.107 124.751  0.00  0.00    +0.000 OA
BRANCH  23  25
ATOM     25  C   UNL     1      -8.280   3.167 122.596  0.00  0.00    +0.000 C 
BRANCH  25  26
ATOM     26  O   UNL     1      -6.958   3.777 122.545  0.00  0.00    +0.000 OA
ATOM     27  H   UNL     1      -6.693   4.005 123.459  0.00  0.00    +0.000 HD
ENDBRANCH  25  26
ENDBRANCH  23  25
ENDBRANCH   4  23
BRANCH   8  28
ATOM     28  O   UNL     1      -7.713   1.815 126.530  0.00  0.00    +0.000 OA
ATOM     29  H   UNL     1      -8.207   2.496 126.038  0.00  0.00    +0.000 HD
ENDBRANCH   8  28
TORSDOF 5
ENDMDL
