MODEL 1
REMARK VINA RESULT:      -8.3      0.000      0.000
REMARK  Name = Hydrocortisone acetate
REMARK  9 active torsions:
REMARK  status: ('A' for Active; 'I' for Inactive)
REMARK    1  A    between atoms: C_5  and  O_6
REMARK    2  A    between atoms: C_5  and  C_7
REMARK    3  A    between atoms: C_7  and  C_9
REMARK    4  A    between atoms: C_9  and  O_10
REMARK    5  A    between atoms: O_10  and  C_11
REMARK    6  A    between atoms: C_11  and  C_12
REMARK    7  A    between atoms: C_14  and  C_15
REMARK    8  A    between atoms: C_17  and  O_18
REMARK    9  A    between atoms: C_31  and  C_32
REMARK                            x       y       z     vdW  Elec       q    Type
REMARK                         _______ _______ _______ _____ _____    ______ ____
ROOT
ATOM      1  C   UNL     1      -6.970  -3.409 130.581  0.00  0.00    +0.000 C 
ATOM      2  C   UNL     1      -6.065  -4.476 130.365  0.00  0.00    +0.000 C 
ATOM      3  C   UNL     1      -5.598  -3.116 129.947  0.00  0.00    +0.000 C 
ATOM      4  C   UNL     1      -6.608  -1.456 130.754  0.00  0.00    +0.000 C 
ATOM      5  C   UNL     1      -5.580  -2.253 131.224  0.00  0.00    +0.000 C 
ATOM      6  C   UNL     1      -5.189  -2.552 132.614  0.00  0.00    +0.000 C 
ATOM      7  C   UNL     1      -4.630  -1.231 129.944  0.00  0.00    +0.000 C 
ATOM      8  C   UNL     1      -5.614  -0.880 128.570  0.00  0.00    +0.000 C 
ATOM      9  C   UNL     1      -6.558  -2.058 127.873  0.00  0.00    +0.000 C 
ATOM     10  C   UNL     1      -7.652  -2.805 128.997  0.00  0.00    +0.000 C 
ATOM     11  C   UNL     1      -8.343  -3.995 128.365  0.00  0.00    +0.000 C 
ATOM     12  C   UNL     1      -8.962  -3.651 127.039  0.00  0.00    +0.000 C 
ATOM     13  C   UNL     1      -8.068  -2.965 126.049  0.00  0.00    +0.000 C 
ATOM     14  C   UNL     1      -8.112  -3.317 124.756  0.00  0.00    +0.000 C 
ATOM     15  C   UNL     1      -7.495  -2.349 123.851  0.00  0.00    +0.000 C 
ATOM     16  O   UNL     1      -7.966  -1.257 123.538  0.00  0.00    +0.000 OA
ATOM     17  C   UNL     1      -6.070  -2.541 123.759  0.00  0.00    +0.000 C 
ATOM     18  C   UNL     1      -5.931  -1.664 125.229  0.00  0.00    +0.000 C 
ATOM     19  C   UNL     1      -7.202  -1.781 126.470  0.00  0.00    +0.000 C 
ATOM     20  C   UNL     1      -8.175  -0.611 126.750  0.00  0.00    +0.000 C 
ENDROOT
BRANCH   4  21
ATOM     21  O   UNL     1      -7.768  -1.692 131.654  0.00  0.00    +0.000 OA
ATOM     22  H   UNL     1      -8.568  -1.230 131.369  0.00  0.00    +0.000 HD
ENDBRANCH   4  21
BRANCH   4  23
ATOM     23  C   UNL     1      -6.122   0.067 131.675  0.00  0.00    +0.000 C 
ATOM     24  O   UNL     1      -5.210   0.824 131.295  0.00  0.00    +0.000 OA
BRANCH  23  25
ATOM     25  C   UNL     1      -6.726   0.519 133.138  0.00  0.00    +0.000 C 
BRANCH  25  26
ATOM     26  O   UNL     1      -8.013   1.288 132.937  0.00  0.00    +0.000 OA
BRANCH  26  27
ATOM     27  C   UNL     1      -8.939   1.250 131.939  0.00  0.00    +0.000 C 
ATOM     28  C   UNL     1      -8.920   2.309 130.879  0.00  0.00    +0.000 C 
ATOM     29  O   UNL     1      -9.797   0.367 131.885  0.00  0.00    +0.000 OA
ENDBRANCH  26  27
ENDBRANCH  25  26
ENDBRANCH  23  25
ENDBRANCH   4  23
BRANCH   8  30
ATOM     30  O   UNL     1      -6.439   0.238 128.967  0.00  0.00    +0.000 OA
ATOM     31  H   UNL     1      -5.958   1.073 128.828  0.00  0.00    +0.000 HD
ENDBRANCH   8  30
TORSDOF 6
ENDMDL
MODEL 2
REMARK VINA RESULT:      -8.2      1.524      2.285
REMARK  Name = Hydrocortisone acetate
REMARK  9 active torsions:
REMARK  status: ('A' for Active; 'I' for Inactive)
REMARK    1  A    between atoms: C_5  and  O_6
REMARK    2  A    between atoms: C_5  and  C_7
REMARK    3  A    between atoms: C_7  and  C_9
REMARK    4  A    between atoms: C_9  and  O_10
REMARK    5  A    between atoms: O_10  and  C_11
REMARK    6  A    between atoms: C_11  and  C_12
REMARK    7  A    between atoms: C_14  and  C_15
REMARK    8  A    between atoms: C_17  and  O_18
REMARK    9  A    between atoms: C_31  and  C_32
REMARK                            x       y       z     vdW  Elec       q    Type
REMARK                         _______ _______ _______ _____ _____    ______ ____
ROOT
ATOM      1  C   UNL     1      -7.057  -3.178 130.483  0.00  0.00    +0.000 C 
ATOM      2  C   UNL     1      -6.196  -4.297 130.367  0.00  0.00    +0.000 C 
ATOM      3  C   UNL     1      -5.657  -2.992 129.868  0.00  0.00    +0.000 C 
ATOM      4  C   UNL     1      -6.611  -1.236 130.527  0.00  0.00    +0.000 C 
ATOM      5  C   UNL     1      -5.633  -2.042 131.081  0.00  0.00    +0.000 C 
ATOM      6  C   UNL     1      -5.290  -2.256 132.500  0.00  0.00    +0.000 C 
ATOM      7  C   UNL     1      -4.605  -1.156 129.760  0.00  0.00    +0.000 C 
ATOM      8  C   UNL     1      -5.538  -0.861 128.337  0.00  0.00    +0.000 C 
ATOM      9  C   UNL     1      -6.516  -2.045 127.699  0.00  0.00    +0.000 C 
ATOM     10  C   UNL     1      -7.671  -2.660 128.841  0.00  0.00    +0.000 C 
ATOM     11  C   UNL     1      -8.399  -3.862 128.275  0.00  0.00    +0.000 C 
ATOM     12  C   UNL     1      -8.968  -3.587 126.911  0.00  0.00    +0.000 C 
ATOM     13  C   UNL     1      -8.019  -3.013 125.901  0.00  0.00    +0.000 C 
ATOM     14  C   UNL     1      -8.047  -3.455 124.635  0.00  0.00    +0.000 C 
ATOM     15  C   UNL     1      -7.364  -2.582 123.682  0.00  0.00    +0.000 C 
ATOM     16  O   UNL     1      -7.777  -1.496 123.280  0.00  0.00    +0.000 OA
ATOM     17  C   UNL     1      -5.947  -2.842 123.644  0.00  0.00    +0.000 C 
ATOM     18  C   UNL     1      -5.806  -1.869 125.052  0.00  0.00    +0.000 C 
ATOM     19  C   UNL     1      -7.111  -1.841 126.262  0.00  0.00    +0.000 C 
ATOM     20  C   UNL     1      -8.037  -0.612 126.431  0.00  0.00    +0.000 C 
ENDROOT
BRANCH   4  21
ATOM     21  O   UNL     1      -7.803  -1.356 131.409  0.00  0.00    +0.000 OA
ATOM     22  H   UNL     1      -8.428  -0.626 131.302  0.00  0.00    +0.000 HD
ENDBRANCH   4  21
BRANCH   4  23
ATOM     23  C   UNL     1      -6.080   0.327 131.353  0.00  0.00    +0.000 C 
ATOM     24  O   UNL     1      -6.852   1.028 132.032  0.00  0.00    +0.000 OA
BRANCH  23  25
ATOM     25  C   UNL     1      -4.602   1.030 131.180  0.00  0.00    +0.000 C 
BRANCH  25  26
ATOM     26  O   UNL     1      -4.747   2.332 130.426  0.00  0.00    +0.000 OA
BRANCH  26  27
ATOM     27  C   UNL     1      -4.051   2.846 129.374  0.00  0.00    +0.000 C 
ATOM     28  C   UNL     1      -3.326   4.147 129.538  0.00  0.00    +0.000 C 
ATOM     29  O   UNL     1      -4.004   2.270 128.285  0.00  0.00    +0.000 OA
ENDBRANCH  26  27
ENDBRANCH  25  26
ENDBRANCH  23  25
ENDBRANCH   4  23
BRANCH   8  30
ATOM     30  O   UNL     1      -6.321   0.317 128.631  0.00  0.00    +0.000 OA
ATOM     31  H   UNL     1      -7.060   0.391 128.002  0.00  0.00    +0.000 HD
ENDBRANCH   8  30
TORSDOF 6
ENDMDL
MODEL 3
REMARK VINA RESULT:      -8.0      5.481      9.114
REMARK  Name = Hydrocortisone acetate
REMARK  9 active torsions:
REMARK  status: ('A' for Active; 'I' for Inactive)
REMARK    1  A    between atoms: C_5  and  O_6
REMARK    2  A    between atoms: C_5  and  C_7
REMARK    3  A    between atoms: C_7  and  C_9
REMARK    4  A    between atoms: C_9  and  O_10
REMARK    5  A    between atoms: O_10  and  C_11
REMARK    6  A    between atoms: C_11  and  C_12
REMARK    7  A    between atoms: C_14  and  C_15
REMARK    8  A    between atoms: C_17  and  O_18
REMARK    9  A    between atoms: C_31  and  C_32
REMARK                            x       y       z     vdW  Elec       q    Type
REMARK                         _______ _______ _______ _____ _____    ______ ____
ROOT
ATOM      1  C   UNL     1      -3.890   4.235 126.459  0.00  0.00    +0.000 C 
ATOM      2  C   UNL     1      -2.983   3.148 126.490  0.00  0.00    +0.000 C 
ATOM      3  C   UNL     1      -4.155   3.059 127.418  0.00  0.00    +0.000 C 
ATOM      4  C   UNL     1      -5.803   4.305 127.016  0.00  0.00    +0.000 C 
ATOM      5  C   UNL     1      -5.413   3.071 126.527  0.00  0.00    +0.000 C 
ATOM      6  C   UNL     1      -5.710   2.444 125.225  0.00  0.00    +0.000 C 
ATOM      7  C   UNL     1      -6.043   2.552 128.236  0.00  0.00    +0.000 C 
ATOM      8  C   UNL     1      -5.702   3.761 129.420  0.00  0.00    +0.000 C 
ATOM      9  C   UNL     1      -4.212   4.496 129.484  0.00  0.00    +0.000 C 
ATOM     10  C   UNL     1      -3.755   5.237 127.981  0.00  0.00    +0.000 C 
ATOM     11  C   UNL     1      -2.320   5.717 128.033  0.00  0.00    +0.000 C 
ATOM     12  C   UNL     1      -2.051   6.565 129.245  0.00  0.00    +0.000 C 
ATOM     13  C   UNL     1      -2.467   5.987 130.564  0.00  0.00    +0.000 C 
ATOM     14  C   UNL     1      -1.668   6.119 131.632  0.00  0.00    +0.000 C 
ATOM     15  C   UNL     1      -2.328   5.860 132.910  0.00  0.00    +0.000 C 
ATOM     16  O   UNL     1      -3.138   6.602 133.463  0.00  0.00    +0.000 OA
ATOM     17  C   UNL     1      -2.355   4.453 133.219  0.00  0.00    +0.000 C 
ATOM     18  C   UNL     1      -3.716   4.326 132.180  0.00  0.00    +0.000 C 
ATOM     19  C   UNL     1      -3.850   5.363 130.741  0.00  0.00    +0.000 C 
ATOM     20  C   UNL     1      -4.863   6.531 130.671  0.00  0.00    +0.000 C 
ENDROOT
BRANCH   4  21
ATOM     21  O   UNL     1      -5.722   5.254 125.873  0.00  0.00    +0.000 OA
ATOM     22  H   UNL     1      -4.813   5.470 125.625  0.00  0.00    +0.000 HD
ENDBRANCH   4  21
BRANCH   4  23
ATOM     23  C   UNL     1      -7.615   4.060 126.766  0.00  0.00    +0.000 C 
ATOM     24  O   UNL     1      -8.449   4.967 126.941  0.00  0.00    +0.000 OA
BRANCH  23  25
ATOM     25  C   UNL     1      -8.335   2.620 126.424  0.00  0.00    +0.000 C 
BRANCH  25  26
ATOM     26  O   UNL     1      -9.153   2.751 125.159  0.00  0.00    +0.000 OA
BRANCH  26  27
ATOM     27  C   UNL     1      -9.659   1.812 124.313  0.00  0.00    +0.000 C 
ATOM     28  C   UNL     1      -9.316   1.877 122.855  0.00  0.00    +0.000 C 
ATOM     29  O   UNL     1     -10.396   0.909 124.712  0.00  0.00    +0.000 OA
ENDBRANCH  26  27
ENDBRANCH  25  26
ENDBRANCH  23  25
ENDBRANCH   4  23
BRANCH   8  30
ATOM     30  O   UNL     1      -6.735   4.758 129.256  0.00  0.00    +0.000 OA
ATOM     31  H   UNL     1      -6.494   5.372 128.540  0.00  0.00    +0.000 HD
ENDBRANCH   8  30
TORSDOF 6
ENDMDL
MODEL 4
REMARK VINA RESULT:      -7.9      4.249      5.895
REMARK  Name = Hydrocortisone acetate
REMARK  9 active torsions:
REMARK  status: ('A' for Active; 'I' for Inactive)
REMARK    1  A    between atoms: C_5  and  O_6
REMARK    2  A    between atoms: C_5  and  C_7
REMARK    3  A    between atoms: C_7  and  C_9
REMARK    4  A    between atoms: C_9  and  O_10
REMARK    5  A    between atoms: O_10  and  C_11
REMARK    6  A    between atoms: C_11  and  C_12
REMARK    7  A    between atoms: C_14  and  C_15
REMARK    8  A    between atoms: C_17  and  O_18
REMARK    9  A    between atoms: C_31  and  C_32
REMARK                            x       y       z     vdW  Elec       q    Type
REMARK                         _______ _______ _______ _____ _____    ______ ____
ROOT
ATOM      1  C   UNL     1      -5.323   1.973 127.147  0.00  0.00    +0.000 C 
ATOM      2  C   UNL     1      -4.226   1.923 126.254  0.00  0.00    +0.000 C 
ATOM      3  C   UNL     1      -5.531   2.375 125.676  0.00  0.00    +0.000 C 
ATOM      4  C   UNL     1      -7.013   3.023 127.022  0.00  0.00    +0.000 C 
ATOM      5  C   UNL     1      -5.926   3.652 126.443  0.00  0.00    +0.000 C 
ATOM      6  C   UNL     1      -5.134   4.794 126.938  0.00  0.00    +0.000 C 
ATOM      7  C   UNL     1      -7.097   3.609 124.956  0.00  0.00    +0.000 C 
ATOM      8  C   UNL     1      -8.047   2.167 124.951  0.00  0.00    +0.000 C 
ATOM      9  C   UNL     1      -7.354   0.688 125.263  0.00  0.00    +0.000 C 
ATOM     10  C   UNL     1      -6.516   0.637 126.783  0.00  0.00    +0.000 C 
ATOM     11  C   UNL     1      -5.744  -0.658 126.928  0.00  0.00    +0.000 C 
ATOM     12  C   UNL     1      -6.602  -1.862 126.657  0.00  0.00    +0.000 C 
ATOM     13  C   UNL     1      -7.379  -1.845 125.375  0.00  0.00    +0.000 C 
ATOM     14  C   UNL     1      -7.469  -2.961 124.637  0.00  0.00    +0.000 C 
ATOM     15  C   UNL     1      -8.535  -2.932 123.637  0.00  0.00    +0.000 C 
ATOM     16  O   UNL     1      -9.740  -3.025 123.869  0.00  0.00    +0.000 OA
ATOM     17  C   UNL     1      -8.112  -2.275 122.426  0.00  0.00    +0.000 C 
ATOM     18  C   UNL     1      -8.435  -0.782 123.211  0.00  0.00    +0.000 C 
ATOM     19  C   UNL     1      -8.180  -0.612 124.964  0.00  0.00    +0.000 C 
ATOM     20  C   UNL     1      -9.365  -0.516 125.953  0.00  0.00    +0.000 C 
ENDROOT
BRANCH   4  21
ATOM     21  O   UNL     1      -6.733   2.957 128.481  0.00  0.00    +0.000 OA
ATOM     22  H   UNL     1      -5.791   3.014 128.689  0.00  0.00    +0.000 HD
ENDBRANCH   4  21
BRANCH   4  23
ATOM     23  C   UNL     1      -8.043   4.540 127.224  0.00  0.00    +0.000 C 
ATOM     24  O   UNL     1      -8.581   4.853 128.302  0.00  0.00    +0.000 OA
BRANCH  23  25
ATOM     25  C   UNL     1      -8.474   5.558 126.004  0.00  0.00    +0.000 C 
BRANCH  25  26
ATOM     26  O   UNL     1      -9.890   6.039 126.223  0.00  0.00    +0.000 OA
BRANCH  26  27
ATOM     27  C   UNL     1     -10.401   7.290 126.391  0.00  0.00    +0.000 C 
ATOM     28  C   UNL     1     -10.567   7.834 127.778  0.00  0.00    +0.000 C 
ATOM     29  O   UNL     1     -10.735   7.988 125.433  0.00  0.00    +0.000 OA
ENDBRANCH  26  27
ENDBRANCH  25  26
ENDBRANCH  23  25
ENDBRANCH   4  23
BRANCH   8  30
ATOM     30  O   UNL     1      -9.119   2.414 125.888  0.00  0.00    +0.000 OA
ATOM     31  H   UNL     1      -9.752   3.049 125.511  0.00  0.00    +0.000 HD
ENDBRANCH   8  30
TORSDOF 6
ENDMDL
MODEL 5
REMARK VINA RESULT:      -7.8      3.316      7.493
REMARK  Name = Hydrocortisone acetate
REMARK  9 active torsions:
REMARK  status: ('A' for Active; 'I' for Inactive)
REMARK    1  A    between atoms: C_5  and  O_6
REMARK    2  A    between atoms: C_5  and  C_7
REMARK    3  A    between atoms: C_7  and  C_9
REMARK    4  A    between atoms: C_9  and  O_10
REMARK    5  A    between atoms: O_10  and  C_11
REMARK    6  A    between atoms: C_11  and  C_12
REMARK    7  A    between atoms: C_14  and  C_15
REMARK    8  A    between atoms: C_17  and  O_18
REMARK    9  A    between atoms: C_31  and  C_32
REMARK                            x       y       z     vdW  Elec       q    Type
REMARK                         _______ _______ _______ _____ _____    ______ ____
ROOT
ATOM      1  C   UNL     1      -7.825  -1.250 123.897  0.00  0.00    +0.000 C 
ATOM      2  C   UNL     1      -8.773  -2.295 124.016  0.00  0.00    +0.000 C 
ATOM      3  C   UNL     1      -9.024  -1.075 124.847  0.00  0.00    +0.000 C 
ATOM      4  C   UNL     1      -8.025   0.692 124.297  0.00  0.00    +0.000 C 
ATOM      5  C   UNL     1      -9.192   0.095 123.858  0.00  0.00    +0.000 C 
ATOM      6  C   UNL     1      -9.857   0.193 122.545  0.00  0.00    +0.000 C 
ATOM      7  C   UNL     1      -9.791   0.783 125.517  0.00  0.00    +0.000 C 
ATOM      8  C   UNL     1      -8.544   0.714 126.709  0.00  0.00    +0.000 C 
ATOM      9  C   UNL     1      -7.606  -0.648 126.883  0.00  0.00    +0.000 C 
ATOM     10  C   UNL     1      -6.811  -1.118 125.412  0.00  0.00    +0.000 C 
ATOM     11  C   UNL     1      -6.133  -2.463 125.574  0.00  0.00    +0.000 C 
ATOM     12  C   UNL     1      -5.253  -2.510 126.791  0.00  0.00    +0.000 C 
ATOM     13  C   UNL     1      -5.882  -2.072 128.080  0.00  0.00    +0.000 C 
ATOM     14  C   UNL     1      -5.637  -2.755 129.207  0.00  0.00    +0.000 C 
ATOM     15  C   UNL     1      -5.984  -2.035 130.431  0.00  0.00    +0.000 C 
ATOM     16  O   UNL     1      -5.361  -1.087 130.907  0.00  0.00    +0.000 OA
ATOM     17  C   UNL     1      -7.380  -2.181 130.756  0.00  0.00    +0.000 C 
ATOM     18  C   UNL     1      -7.700  -0.941 129.612  0.00  0.00    +0.000 C 
ATOM     19  C   UNL     1      -6.694  -0.781 128.153  0.00  0.00    +0.000 C 
ATOM     20  C   UNL     1      -5.681   0.377 127.985  0.00  0.00    +0.000 C 
ENDROOT
BRANCH   4  21
ATOM     21  O   UNL     1      -7.076   0.652 123.152  0.00  0.00    +0.000 OA
ATOM     22  H   UNL     1      -6.662  -0.213 123.034  0.00  0.00    +0.000 HD
ENDBRANCH   4  21
BRANCH   4  23
ATOM     23  C   UNL     1      -8.523   2.425 123.904  0.00  0.00    +0.000 C 
ATOM     24  O   UNL     1      -9.130   3.153 124.712  0.00  0.00    +0.000 OA
BRANCH  23  25
ATOM     25  C   UNL     1      -8.351   3.147 122.435  0.00  0.00    +0.000 C 
BRANCH  25  26
ATOM     26  O   UNL     1      -6.882   3.356 122.144  0.00  0.00    +0.000 OA
BRANCH  26  27
ATOM     27  C   UNL     1      -6.224   3.639 120.985  0.00  0.00    +0.000 C 
ATOM     28  C   UNL     1      -7.003   4.120 119.799  0.00  0.00    +0.000 C 
ATOM     29  O   UNL     1      -5.003   3.508 120.884  0.00  0.00    +0.000 OA
ENDBRANCH  26  27
ENDBRANCH  25  26
ENDBRANCH  23  25
ENDBRANCH   4  23
BRANCH   8  30
ATOM     30  O   UNL     1      -7.703   1.859 126.448  0.00  0.00    +0.000 OA
ATOM     31  H   UNL     1      -7.633   2.410 127.247  0.00  0.00    +0.000 HD
ENDBRANCH   8  30
TORSDOF 6
ENDMDL
MODEL 6
REMARK VINA RESULT:      -7.8      1.553      2.307
REMARK  Name = Hydrocortisone acetate
REMARK  9 active torsions:
REMARK  status: ('A' for Active; 'I' for Inactive)
REMARK    1  A    between atoms: C_5  and  O_6
REMARK    2  A    between atoms: C_5  and  C_7
REMARK    3  A    between atoms: C_7  and  C_9
REMARK    4  A    between atoms: C_9  and  O_10
REMARK    5  A    between atoms: O_10  and  C_11
REMARK    6  A    between atoms: C_11  and  C_12
REMARK    7  A    between atoms: C_14  and  C_15
REMARK    8  A    between atoms: C_17  and  O_18
REMARK    9  A    between atoms: C_31  and  C_32
REMARK                            x       y       z     vdW  Elec       q    Type
REMARK                         _______ _______ _______ _____ _____    ______ ____
ROOT
ATOM      1  C   UNL     1      -7.283  -2.854 130.523  0.00  0.00    +0.000 C 
ATOM      2  C   UNL     1      -6.437  -3.989 130.538  0.00  0.00    +0.000 C 
ATOM      3  C   UNL     1      -5.851  -2.733 129.970  0.00  0.00    +0.000 C 
ATOM      4  C   UNL     1      -6.808  -0.920 130.443  0.00  0.00    +0.000 C 
ATOM      5  C   UNL     1      -5.873  -1.693 131.107  0.00  0.00    +0.000 C 
ATOM      6  C   UNL     1      -5.608  -1.803 132.554  0.00  0.00    +0.000 C 
ATOM      7  C   UNL     1      -4.764  -0.925 129.779  0.00  0.00    +0.000 C 
ATOM      8  C   UNL     1      -5.617  -0.728 128.290  0.00  0.00    +0.000 C 
ATOM      9  C   UNL     1      -6.581  -1.945 127.693  0.00  0.00    +0.000 C 
ATOM     10  C   UNL     1      -7.803  -2.456 128.816  0.00  0.00    +0.000 C 
ATOM     11  C   UNL     1      -8.521  -3.688 128.305  0.00  0.00    +0.000 C 
ATOM     12  C   UNL     1      -9.015  -3.511 126.897  0.00  0.00    +0.000 C 
ATOM     13  C   UNL     1      -8.006  -3.029 125.897  0.00  0.00    +0.000 C 
ATOM     14  C   UNL     1      -7.976  -3.566 124.669  0.00  0.00    +0.000 C 
ATOM     15  C   UNL     1      -7.229  -2.778 123.689  0.00  0.00    +0.000 C 
ATOM     16  O   UNL     1      -7.603  -1.720 123.185  0.00  0.00    +0.000 OA
ATOM     17  C   UNL     1      -5.817  -3.058 123.746  0.00  0.00    +0.000 C 
ATOM     18  C   UNL     1      -5.733  -1.981 125.082  0.00  0.00    +0.000 C 
ATOM     19  C   UNL     1      -7.097  -1.844 126.215  0.00  0.00    +0.000 C 
ATOM     20  C   UNL     1      -8.010  -0.594 126.242  0.00  0.00    +0.000 C 
ENDROOT
BRANCH   4  21
ATOM     21  O   UNL     1      -8.045  -0.956 131.267  0.00  0.00    +0.000 OA
ATOM     22  H   UNL     1      -8.231  -1.832 131.632  0.00  0.00    +0.000 HD
ENDBRANCH   4  21
BRANCH   4  23
ATOM     23  C   UNL     1      -6.293   0.695 131.174  0.00  0.00    +0.000 C 
ATOM     24  O   UNL     1      -7.085   1.639 131.350  0.00  0.00    +0.000 OA
BRANCH  23  25
ATOM     25  C   UNL     1      -4.745   1.114 131.541  0.00  0.00    +0.000 C 
BRANCH  25  26
ATOM     26  O   UNL     1      -4.736   1.982 132.779  0.00  0.00    +0.000 OA
BRANCH  26  27
ATOM     27  C   UNL     1      -3.718   2.391 133.586  0.00  0.00    +0.000 C 
ATOM     28  C   UNL     1      -2.598   3.199 133.002  0.00  0.00    +0.000 C 
ATOM     29  O   UNL     1      -3.689   2.111 134.785  0.00  0.00    +0.000 OA
ENDBRANCH  26  27
ENDBRANCH  25  26
ENDBRANCH  23  25
ENDBRANCH   4  23
BRANCH   8  30
ATOM     30  O   UNL     1      -6.394   0.479 128.452  0.00  0.00    +0.000 OA
ATOM     31  H   UNL     1      -6.534   0.903 127.588  0.00  0.00    +0.000 HD
ENDBRANCH   8  30
TORSDOF 6
ENDMDL
MODEL 7
REMARK VINA RESULT:      -7.7      7.104      9.471
REMARK  Name = Hydrocortisone acetate
REMARK  9 active torsions:
REMARK  status: ('A' for Active; 'I' for Inactive)
REMARK    1  A    between atoms: C_5  and  O_6
REMARK    2  A    between atoms: C_5  and  C_7
REMARK    3  A    between atoms: C_7  and  C_9
REMARK    4  A    between atoms: C_9  and  O_10
REMARK    5  A    between atoms: O_10  and  C_11
REMARK    6  A    between atoms: C_11  and  C_12
REMARK    7  A    between atoms: C_14  and  C_15
REMARK    8  A    between atoms: C_17  and  O_18
REMARK    9  A    between atoms: C_31  and  C_32
REMARK                            x       y       z     vdW  Elec       q    Type
REMARK                         _______ _______ _______ _____ _____    ______ ____
ROOT
ATOM      1  C   UNL     1      -7.497   4.375 133.235  0.00  0.00    +0.000 C 
ATOM      2  C   UNL     1      -7.665   5.177 134.390  0.00  0.00    +0.000 C 
ATOM      3  C   UNL     1      -7.471   5.909 133.098  0.00  0.00    +0.000 C 
ATOM      4  C   UNL     1      -7.799   4.834 131.319  0.00  0.00    +0.000 C 
ATOM      5  C   UNL     1      -8.645   5.499 132.188  0.00  0.00    +0.000 C 
ATOM      6  C   UNL     1     -10.075   5.266 132.463  0.00  0.00    +0.000 C 
ATOM      7  C   UNL     1      -7.858   6.982 131.313  0.00  0.00    +0.000 C 
ATOM      8  C   UNL     1      -6.203   6.675 130.930  0.00  0.00    +0.000 C 
ATOM      9  C   UNL     1      -5.185   5.976 132.044  0.00  0.00    +0.000 C 
ATOM     10  C   UNL     1      -5.771   4.453 132.637  0.00  0.00    +0.000 C 
ATOM     11  C   UNL     1      -4.915   3.957 133.784  0.00  0.00    +0.000 C 
ATOM     12  C   UNL     1      -3.451   3.962 133.439  0.00  0.00    +0.000 C 
ATOM     13  C   UNL     1      -2.907   5.243 132.882  0.00  0.00    +0.000 C 
ATOM     14  C   UNL     1      -1.707   5.687 133.282  0.00  0.00    +0.000 C 
ATOM     15  C   UNL     1      -1.127   6.711 132.415  0.00  0.00    +0.000 C 
ATOM     16  O   UNL     1      -0.650   6.520 131.298  0.00  0.00    +0.000 OA
ATOM     17  C   UNL     1      -1.620   8.025 132.742  0.00  0.00    +0.000 C 
ATOM     18  C   UNL     1      -3.020   7.650 131.821  0.00  0.00    +0.000 C 
ATOM     19  C   UNL     1      -3.641   5.983 131.767  0.00  0.00    +0.000 C 
ATOM     20  C   UNL     1      -3.503   5.104 130.500  0.00  0.00    +0.000 C 
ENDROOT
BRANCH   4  21
ATOM     21  O   UNL     1      -8.154   3.392 131.408  0.00  0.00    +0.000 OA
ATOM     22  H   UNL     1      -8.669   3.178 132.197  0.00  0.00    +0.000 HD
ENDBRANCH   4  21
BRANCH   4  23
ATOM     23  C   UNL     1      -8.837   5.061 129.810  0.00  0.00    +0.000 C 
ATOM     24  O   UNL     1      -8.930   4.198 128.918  0.00  0.00    +0.000 OA
BRANCH  23  25
ATOM     25  C   UNL     1      -9.631   6.446 129.410  0.00  0.00    +0.000 C 
BRANCH  25  26
ATOM     26  O   UNL     1     -11.022   6.108 128.923  0.00  0.00    +0.000 OA
BRANCH  26  27
ATOM     27  C   UNL     1     -12.245   6.589 129.284  0.00  0.00    +0.000 C 
ATOM     28  C   UNL     1     -12.361   7.461 130.497  0.00  0.00    +0.000 C 
ATOM     29  O   UNL     1     -13.262   6.322 128.642  0.00  0.00    +0.000 OA
ENDBRANCH  26  27
ENDBRANCH  25  26
ENDBRANCH  23  25
ENDBRANCH   4  23
BRANCH   8  30
ATOM     30  O   UNL     1      -6.232   5.879 129.724  0.00  0.00    +0.000 OA
ATOM     31  H   UNL     1      -5.905   4.981 129.910  0.00  0.00    +0.000 HD
ENDBRANCH   8  30
TORSDOF 6
ENDMDL
MODEL 8
REMARK VINA RESULT:      -7.6      2.374      3.054
REMARK  Name = Hydrocortisone acetate
REMARK  9 active torsions:
REMARK  status: ('A' for Active; 'I' for Inactive)
REMARK    1  A    between atoms: C_5  and  O_6
REMARK    2  A    between atoms: C_5  and  C_7
REMARK    3  A    between atoms: C_7  and  C_9
REMARK    4  A    between atoms: C_9  and  O_10
REMARK    5  A    between atoms: O_10  and  C_11
REMARK    6  A    between atoms: C_11  and  C_12
REMARK    7  A    between atoms: C_14  and  C_15
REMARK    8  A    between atoms: C_17  and  O_18
REMARK    9  A    between atoms: C_31  and  C_32
REMARK                            x       y       z     vdW  Elec       q    Type
REMARK                         _______ _______ _______ _____ _____    ______ ____
ROOT
ATOM      1  C   UNL     1      -6.663  -2.013 129.501  0.00  0.00    +0.000 C 
ATOM      2  C   UNL     1      -5.560  -2.829 129.150  0.00  0.00    +0.000 C 
ATOM      3  C   UNL     1      -5.612  -1.475 128.512  0.00  0.00    +0.000 C 
ATOM      4  C   UNL     1      -6.852  -0.031 129.408  0.00  0.00    +0.000 C 
ATOM      5  C   UNL     1      -5.560  -0.452 129.664  0.00  0.00    +0.000 C 
ATOM      6  C   UNL     1      -4.798  -0.421 130.926  0.00  0.00    +0.000 C 
ATOM      7  C   UNL     1      -5.257   0.573 128.100  0.00  0.00    +0.000 C 
ATOM      8  C   UNL     1      -6.583   0.441 127.001  0.00  0.00    +0.000 C 
ATOM      9  C   UNL     1      -7.275  -1.034 126.674  0.00  0.00    +0.000 C 
ATOM     10  C   UNL     1      -7.826  -1.857 128.101  0.00  0.00    +0.000 C 
ATOM     11  C   UNL     1      -8.266  -3.269 127.771  0.00  0.00    +0.000 C 
ATOM     12  C   UNL     1      -9.239  -3.305 126.625  0.00  0.00    +0.000 C 
ATOM     13  C   UNL     1      -8.826  -2.571 125.384  0.00  0.00    +0.000 C 
ATOM     14  C   UNL     1      -9.055  -3.117 124.181  0.00  0.00    +0.000 C 
ATOM     15  C   UNL     1      -8.963  -2.173 123.068  0.00  0.00    +0.000 C 
ATOM     16  O   UNL     1      -9.787  -1.302 122.796  0.00  0.00    +0.000 OA
ATOM     17  C   UNL     1      -7.601  -2.000 122.629  0.00  0.00    +0.000 C 
ATOM     18  C   UNL     1      -7.398  -0.902 123.934  0.00  0.00    +0.000 C 
ATOM     19  C   UNL     1      -8.269  -1.152 125.465  0.00  0.00    +0.000 C 
ATOM     20  C   UNL     1      -9.451  -0.247 125.886  0.00  0.00    +0.000 C 
ENDROOT
BRANCH   4  21
ATOM     21  O   UNL     1      -7.663  -0.418 130.594  0.00  0.00    +0.000 OA
ATOM     22  H   UNL     1      -7.194  -1.014 131.194  0.00  0.00    +0.000 HD
ENDBRANCH   4  21
BRANCH   4  23
ATOM     23  C   UNL     1      -6.635   1.689 130.040  0.00  0.00    +0.000 C 
ATOM     24  O   UNL     1      -7.486   2.262 130.746  0.00  0.00    +0.000 OA
BRANCH  23  25
ATOM     25  C   UNL     1      -5.390   2.690 129.645  0.00  0.00    +0.000 C 
BRANCH  25  26
ATOM     26  O   UNL     1      -5.911   3.841 128.815  0.00  0.00    +0.000 OA
BRANCH  26  27
ATOM     27  C   UNL     1      -5.617   4.243 127.547  0.00  0.00    +0.000 C 
ATOM     28  C   UNL     1      -4.379   5.052 127.302  0.00  0.00    +0.000 C 
ATOM     29  O   UNL     1      -6.345   3.962 126.593  0.00  0.00    +0.000 OA
ENDBRANCH  26  27
ENDBRANCH  25  26
ENDBRANCH  23  25
ENDBRANCH   4  23
BRANCH   8  30
ATOM     30  O   UNL     1      -7.585   1.354 127.501  0.00  0.00    +0.000 OA
ATOM     31  H   UNL     1      -7.546   2.194 127.010  0.00  0.00    +0.000 HD
ENDBRANCH   8  30
TORSDOF 6
ENDMDL
MODEL 9
REMARK VINA RESULT:      -7.6      2.535      6.188
REMARK  Name = Hydrocortisone acetate
REMARK  9 active torsions:
REMARK  status: ('A' for Active; 'I' for Inactive)
REMARK    1  A    between atoms: C_5  and  O_6
REMARK    2  A    between atoms: C_5  and  C_7
REMARK    3  A    between atoms: C_7  and  C_9
REMARK    4  A    between atoms: C_9  and  O_10
REMARK    5  A    between atoms: O_10  and  C_11
REMARK    6  A    between atoms: C_11  and  C_12
REMARK    7  A    between atoms: C_14  and  C_15
REMARK    8  A    between atoms: C_17  and  O_18
REMARK    9  A    between atoms: C_31  and  C_32
REMARK                            x       y       z     vdW  Elec       q    Type
REMARK                         _______ _______ _______ _____ _____    ______ ____
ROOT
ATOM      1  C   UNL     1      -6.593  -2.791 129.289  0.00  0.00    +0.000 C 
ATOM      2  C   UNL     1      -7.757  -3.530 128.966  0.00  0.00    +0.000 C 
ATOM      3  C   UNL     1      -7.921  -2.449 129.989  0.00  0.00    +0.000 C 
ATOM      4  C   UNL     1      -6.428  -0.969 130.080  0.00  0.00    +0.000 C 
ATOM      5  C   UNL     1      -7.549  -1.128 129.286  0.00  0.00    +0.000 C 
ATOM      6  C   UNL     1      -7.811  -0.624 127.925  0.00  0.00    +0.000 C 
ATOM      7  C   UNL     1      -8.378  -0.592 130.902  0.00  0.00    +0.000 C 
ATOM      8  C   UNL     1      -7.533  -1.213 132.274  0.00  0.00    +0.000 C 
ATOM      9  C   UNL     1      -7.017  -2.793 132.314  0.00  0.00    +0.000 C 
ATOM     10  C   UNL     1      -6.003  -3.211 130.967  0.00  0.00    +0.000 C 
ATOM     11  C   UNL     1      -5.724  -4.700 130.946  0.00  0.00    +0.000 C 
ATOM     12  C   UNL     1      -5.224  -5.200 132.272  0.00  0.00    +0.000 C 
ATOM     13  C   UNL     1      -6.044  -4.828 133.472  0.00  0.00    +0.000 C 
ATOM     14  C   UNL     1      -6.264  -5.735 134.435  0.00  0.00    +0.000 C 
ATOM     15  C   UNL     1      -6.737  -5.165 135.696  0.00  0.00    +0.000 C 
ATOM     16  O   UNL     1      -6.054  -4.527 136.495  0.00  0.00    +0.000 OA
ATOM     17  C   UNL     1      -8.164  -4.963 135.686  0.00  0.00    +0.000 C 
ATOM     18  C   UNL     1      -7.878  -3.507 134.822  0.00  0.00    +0.000 C 
ATOM     19  C   UNL     1      -6.521  -3.393 133.676  0.00  0.00    +0.000 C 
ATOM     20  C   UNL     1      -5.257  -2.558 133.992  0.00  0.00    +0.000 C 
ENDROOT
BRANCH   4  21
ATOM     21  O   UNL     1      -5.253  -1.080 129.175  0.00  0.00    +0.000 OA
ATOM     22  H   UNL     1      -5.165  -1.956 128.776  0.00  0.00    +0.000 HD
ENDBRANCH   4  21
BRANCH   4  23
ATOM     23  C   UNL     1      -6.388   0.875 130.009  0.00  0.00    +0.000 C 
ATOM     24  O   UNL     1      -5.369   1.516 129.692  0.00  0.00    +0.000 OA
BRANCH  23  25
ATOM     25  C   UNL     1      -7.618   1.864 130.473  0.00  0.00    +0.000 C 
BRANCH  25  26
ATOM     26  O   UNL     1      -7.256   2.544 131.774  0.00  0.00    +0.000 OA
BRANCH  26  27
ATOM     27  C   UNL     1      -7.834   2.498 133.006  0.00  0.00    +0.000 C 
ATOM     28  C   UNL     1      -9.206   3.071 133.195  0.00  0.00    +0.000 C 
ATOM     29  O   UNL     1      -7.258   1.999 133.975  0.00  0.00    +0.000 OA
ENDBRANCH  26  27
ENDBRANCH  25  26
ENDBRANCH  23  25
ENDBRANCH   4  23
BRANCH   8  30
ATOM     30  O   UNL     1      -6.408  -0.325 132.463  0.00  0.00    +0.000 OA
ATOM     31  H   UNL     1      -6.642   0.378 133.094  0.00  0.00    +0.000 HD
ENDBRANCH   8  30
TORSDOF 6
ENDMDL
