MODEL 1
REMARK VINA RESULT:      -7.1      0.000      0.000
REMARK  Name = Hydromorphone
REMARK  2 active torsions:
REMARK  status: ('A' for Active; 'I' for Inactive)
REMARK    1  A    between atoms: C_5  and  O_6
REMARK    2  A    between atoms: N_14  and  C_15
REMARK                            x       y       z     vdW  Elec       q    Type
REMARK                         _______ _______ _______ _____ _____    ______ ____
ROOT
ATOM      1  C   UNL     1      -6.168   4.373 125.192  0.00  0.00    +0.000 C 
ATOM      2  O   UNL     1      -5.348   5.278 124.227  0.00  0.00    +0.000 OA
ATOM      3  C   UNL     1      -5.362   4.602 123.030  0.00  0.00    +0.000 A 
ATOM      4  C   UNL     1      -4.810   4.916 121.740  0.00  0.00    +0.000 A 
ATOM      5  C   UNL     1      -5.327   4.203 120.641  0.00  0.00    +0.000 A 
ATOM      6  C   UNL     1      -6.170   3.132 120.846  0.00  0.00    +0.000 A 
ATOM      7  C   UNL     1      -6.454   2.764 122.117  0.00  0.00    +0.000 A 
ATOM      8  C   UNL     1      -6.267   3.547 123.144  0.00  0.00    +0.000 A 
ATOM      9  C   UNL     1      -7.309   3.174 124.270  0.00  0.00    +0.000 C 
ATOM     10  C   UNL     1      -9.083   1.942 123.840  0.00  0.00    +0.000 C 
ATOM     11  C   UNL     1      -8.609   0.078 123.711  0.00  0.00    +0.000 C 
ATOM     12  N   UNL     1      -7.572   0.107 124.703  0.00  0.00    +0.000 NA
ATOM     13  C   UNL     1      -6.363  -0.567 124.354  0.00  0.00    +0.000 C 
ATOM     14  C   UNL     1      -7.326   1.447 124.513  0.00  0.00    +0.000 C 
ATOM     15  C   UNL     1      -7.177   1.640 122.614  0.00  0.00    +0.000 C 
ATOM     16  C   UNL     1      -6.542   2.229 125.336  0.00  0.00    +0.000 C 
ATOM     17  C   UNL     1      -7.231   2.328 126.727  0.00  0.00    +0.000 C 
ATOM     18  C   UNL     1      -6.446   3.165 127.632  0.00  0.00    +0.000 C 
ATOM     19  C   UNL     1      -6.006   4.388 126.855  0.00  0.00    +0.000 C 
ATOM     20  O   UNL     1      -5.331   5.217 127.476  0.00  0.00    +0.000 OA
ENDROOT
BRANCH   4  21
ATOM     21  O   UNL     1      -3.952   5.893 121.295  0.00  0.00    +0.000 OA
ATOM     22  H   UNL     1      -3.931   6.047 120.341  0.00  0.00    +0.000 HD
ENDBRANCH   4  21
TORSDOF 1
ENDMDL
MODEL 2
REMARK VINA RESULT:      -6.9      7.092      8.179
REMARK  Name = Hydromorphone
REMARK  2 active torsions:
REMARK  status: ('A' for Active; 'I' for Inactive)
REMARK    1  A    between atoms: C_5  and  O_6
REMARK    2  A    between atoms: N_14  and  C_15
REMARK                            x       y       z     vdW  Elec       q    Type
REMARK                         _______ _______ _______ _____ _____    ______ ____
ROOT
ATOM      1  C   UNL     1      -7.681   6.921 130.815  0.00  0.00    +0.000 C 
ATOM      2  O   UNL     1      -8.520   7.961 130.016  0.00  0.00    +0.000 OA
ATOM      3  C   UNL     1      -9.714   7.325 129.776  0.00  0.00    +0.000 A 
ATOM      4  C   UNL     1     -10.918   7.750 129.113  0.00  0.00    +0.000 A 
ATOM      5  C   UNL     1     -12.082   7.003 129.375  0.00  0.00    +0.000 A 
ATOM      6  C   UNL     1     -12.001   5.818 130.073  0.00  0.00    +0.000 A 
ATOM      7  C   UNL     1     -10.783   5.378 130.464  0.00  0.00    +0.000 A 
ATOM      8  C   UNL     1      -9.733   6.149 130.527  0.00  0.00    +0.000 A 
ATOM      9  C   UNL     1      -8.757   5.600 131.641  0.00  0.00    +0.000 C 
ATOM     10  C   UNL     1      -9.432   4.142 133.148  0.00  0.00    +0.000 C 
ATOM     11  C   UNL     1      -9.515   2.368 132.397  0.00  0.00    +0.000 C 
ATOM     12  N   UNL     1      -8.394   2.515 131.512  0.00  0.00    +0.000 NA
ATOM     13  C   UNL     1      -8.587   2.029 130.184  0.00  0.00    +0.000 C 
ATOM     14  C   UNL     1      -8.536   3.881 131.440  0.00  0.00    +0.000 C 
ATOM     15  C   UNL     1     -10.397   4.148 131.075  0.00  0.00    +0.000 C 
ATOM     16  C   UNL     1      -7.610   4.743 130.891  0.00  0.00    +0.000 C 
ATOM     17  C   UNL     1      -6.321   4.703 131.761  0.00  0.00    +0.000 C 
ATOM     18  C   UNL     1      -5.311   5.616 131.230  0.00  0.00    +0.000 C 
ATOM     19  C   UNL     1      -6.012   6.911 130.873  0.00  0.00    +0.000 C 
ATOM     20  O   UNL     1      -5.299   7.809 130.412  0.00  0.00    +0.000 OA
ENDROOT
BRANCH   4  21
ATOM     21  O   UNL     1     -11.235   8.852 128.355  0.00  0.00    +0.000 OA
ATOM     22  H   UNL     1     -10.839   8.899 127.474  0.00  0.00    +0.000 HD
ENDBRANCH   4  21
TORSDOF 1
ENDMDL
MODEL 3
REMARK VINA RESULT:      -6.9      3.625      4.795
REMARK  Name = Hydromorphone
REMARK  2 active torsions:
REMARK  status: ('A' for Active; 'I' for Inactive)
REMARK    1  A    between atoms: C_5  and  O_6
REMARK    2  A    between atoms: N_14  and  C_15
REMARK                            x       y       z     vdW  Elec       q    Type
REMARK                         _______ _______ _______ _____ _____    ______ ____
ROOT
ATOM      1  C   UNL     1      -7.856   0.162 127.559  0.00  0.00    +0.000 C 
ATOM      2  O   UNL     1      -8.185   1.632 127.166  0.00  0.00    +0.000 OA
ATOM      3  C   UNL     1      -8.461   1.572 125.821  0.00  0.00    +0.000 A 
ATOM      4  C   UNL     1      -8.858   2.578 124.873  0.00  0.00    +0.000 A 
ATOM      5  C   UNL     1      -9.431   2.122 123.670  0.00  0.00    +0.000 A 
ATOM      6  C   UNL     1      -9.416   0.779 123.362  0.00  0.00    +0.000 A 
ATOM      7  C   UNL     1      -8.811  -0.076 124.219  0.00  0.00    +0.000 A 
ATOM      8  C   UNL     1      -8.545   0.227 125.460  0.00  0.00    +0.000 A 
ATOM      9  C   UNL     1      -8.555  -1.094 126.325  0.00  0.00    +0.000 C 
ATOM     10  C   UNL     1      -9.449  -2.960 125.572  0.00  0.00    +0.000 C 
ATOM     11  C   UNL     1      -8.268  -3.830 124.321  0.00  0.00    +0.000 C 
ATOM     12  N   UNL     1      -7.043  -3.441 124.959  0.00  0.00    +0.000 NA
ATOM     13  C   UNL     1      -6.019  -2.957 124.089  0.00  0.00    +0.000 C 
ATOM     14  C   UNL     1      -7.609  -2.327 125.533  0.00  0.00    +0.000 C 
ATOM     15  C   UNL     1      -8.540  -1.471 124.095  0.00  0.00    +0.000 C 
ATOM     16  C   UNL     1      -7.016  -1.554 126.509  0.00  0.00    +0.000 C 
ATOM     17  C   UNL     1      -6.868  -2.414 127.798  0.00  0.00    +0.000 C 
ATOM     18  C   UNL     1      -6.259  -1.632 128.871  0.00  0.00    +0.000 C 
ATOM     19  C   UNL     1      -6.921  -0.269 128.874  0.00  0.00    +0.000 C 
ATOM     20  O   UNL     1      -6.528   0.528 129.734  0.00  0.00    +0.000 OA
ENDROOT
BRANCH   4  21
ATOM     21  O   UNL     1      -8.935   3.949 124.931  0.00  0.00    +0.000 OA
ATOM     22  H   UNL     1      -9.807   4.326 125.111  0.00  0.00    +0.000 HD
ENDBRANCH   4  21
TORSDOF 1
ENDMDL
MODEL 4
REMARK VINA RESULT:      -6.8      3.615      6.123
REMARK  Name = Hydromorphone
REMARK  2 active torsions:
REMARK  status: ('A' for Active; 'I' for Inactive)
REMARK    1  A    between atoms: C_5  and  O_6
REMARK    2  A    between atoms: N_14  and  C_15
REMARK                            x       y       z     vdW  Elec       q    Type
REMARK                         _______ _______ _______ _____ _____    ______ ____
ROOT
ATOM      1  C   UNL     1      -9.125   1.084 124.136  0.00  0.00    +0.000 C 
ATOM      2  O   UNL     1      -9.658  -0.257 123.552  0.00  0.00    +0.000 OA
ATOM      3  C   UNL     1      -9.234  -1.211 124.446  0.00  0.00    +0.000 A 
ATOM      4  C   UNL     1      -9.420  -2.636 124.496  0.00  0.00    +0.000 A 
ATOM      5  C   UNL     1      -9.189  -3.261 125.736  0.00  0.00    +0.000 A 
ATOM      6  C   UNL     1      -8.624  -2.552 126.774  0.00  0.00    +0.000 A 
ATOM      7  C   UNL     1      -8.268  -1.264 126.560  0.00  0.00    +0.000 A 
ATOM      8  C   UNL     1      -8.725  -0.553 125.566  0.00  0.00    +0.000 A 
ATOM      9  C   UNL     1      -8.741   0.969 125.986  0.00  0.00    +0.000 C 
ATOM     10  C   UNL     1      -8.560   1.586 128.093  0.00  0.00    +0.000 C 
ATOM     11  C   UNL     1      -6.728   1.478 128.685  0.00  0.00    +0.000 C 
ATOM     12  N   UNL     1      -6.133   1.848 127.432  0.00  0.00    +0.000 NA
ATOM     13  C   UNL     1      -5.022   1.052 127.017  0.00  0.00    +0.000 C 
ATOM     14  C   UNL     1      -7.210   1.401 126.704  0.00  0.00    +0.000 C 
ATOM     15  C   UNL     1      -7.562  -0.349 127.397  0.00  0.00    +0.000 C 
ATOM     16  C   UNL     1      -7.414   1.650 125.362  0.00  0.00    +0.000 C 
ATOM     17  C   UNL     1      -7.638   3.178 125.172  0.00  0.00    +0.000 C 
ATOM     18  C   UNL     1      -7.877   3.492 123.765  0.00  0.00    +0.000 C 
ATOM     19  C   UNL     1      -8.840   2.455 123.224  0.00  0.00    +0.000 C 
ATOM     20  O   UNL     1      -9.163   2.574 122.036  0.00  0.00    +0.000 OA
ENDROOT
BRANCH   4  21
ATOM     21  O   UNL     1      -9.927  -3.551 123.604  0.00  0.00    +0.000 OA
ATOM     22  H   UNL     1     -10.824  -3.389 123.282  0.00  0.00    +0.000 HD
ENDBRANCH   4  21
TORSDOF 1
ENDMDL
MODEL 5
REMARK VINA RESULT:      -6.8      5.317      7.409
REMARK  Name = Hydromorphone
REMARK  2 active torsions:
REMARK  status: ('A' for Active; 'I' for Inactive)
REMARK    1  A    between atoms: C_5  and  O_6
REMARK    2  A    between atoms: N_14  and  C_15
REMARK                            x       y       z     vdW  Elec       q    Type
REMARK                         _______ _______ _______ _____ _____    ______ ____
ROOT
ATOM      1  C   UNL     1      -6.779   0.098 128.096  0.00  0.00    +0.000 C 
ATOM      2  O   UNL     1      -7.622  -0.034 126.793  0.00  0.00    +0.000 OA
ATOM      3  C   UNL     1      -8.044  -1.342 126.791  0.00  0.00    +0.000 A 
ATOM      4  C   UNL     1      -8.874  -2.085 125.882  0.00  0.00    +0.000 A 
ATOM      5  C   UNL     1      -9.423  -3.288 126.367  0.00  0.00    +0.000 A 
ATOM      6  C   UNL     1      -9.011  -3.798 127.578  0.00  0.00    +0.000 A 
ATOM      7  C   UNL     1      -8.049  -3.140 128.265  0.00  0.00    +0.000 A 
ATOM      8  C   UNL     1      -7.731  -1.896 128.032  0.00  0.00    +0.000 A 
ATOM      9  C   UNL     1      -7.189  -1.246 129.365  0.00  0.00    +0.000 C 
ATOM     10  C   UNL     1      -7.515  -2.193 131.327  0.00  0.00    +0.000 C 
ATOM     11  C   UNL     1      -6.297  -3.664 131.590  0.00  0.00    +0.000 C 
ATOM     12  N   UNL     1      -5.191  -3.086 130.879  0.00  0.00    +0.000 NA
ATOM     13  C   UNL     1      -4.512  -3.959 129.977  0.00  0.00    +0.000 C 
ATOM     14  C   UNL     1      -6.008  -2.299 130.101  0.00  0.00    +0.000 C 
ATOM     15  C   UNL     1      -7.355  -3.500 129.458  0.00  0.00    +0.000 C 
ATOM     16  C   UNL     1      -5.574  -1.273 129.287  0.00  0.00    +0.000 C 
ATOM     17  C   UNL     1      -4.978  -0.150 130.184  0.00  0.00    +0.000 C 
ATOM     18  C   UNL     1      -4.519   0.972 129.368  0.00  0.00    +0.000 C 
ATOM     19  C   UNL     1      -5.584   1.242 128.326  0.00  0.00    +0.000 C 
ATOM     20  O   UNL     1      -5.361   2.176 127.546  0.00  0.00    +0.000 OA
ENDROOT
BRANCH   4  21
ATOM     21  O   UNL     1      -9.387  -1.811 124.637  0.00  0.00    +0.000 OA
ATOM     22  H   UNL     1      -8.946  -1.115 124.131  0.00  0.00    +0.000 HD
ENDBRANCH   4  21
TORSDOF 1
ENDMDL
MODEL 6
REMARK VINA RESULT:      -6.8      3.173      5.296
REMARK  Name = Hydromorphone
REMARK  2 active torsions:
REMARK  status: ('A' for Active; 'I' for Inactive)
REMARK    1  A    between atoms: C_5  and  O_6
REMARK    2  A    between atoms: N_14  and  C_15
REMARK                            x       y       z     vdW  Elec       q    Type
REMARK                         _______ _______ _______ _____ _____    ______ ____
ROOT
ATOM      1  C   UNL     1      -8.577   0.581 123.735  0.00  0.00    +0.000 C 
ATOM      2  O   UNL     1      -8.873   2.107 123.828  0.00  0.00    +0.000 OA
ATOM      3  C   UNL     1      -8.261   2.503 124.993  0.00  0.00    +0.000 A 
ATOM      4  C   UNL     1      -8.141   3.787 125.631  0.00  0.00    +0.000 A 
ATOM      5  C   UNL     1      -7.132   3.916 126.605  0.00  0.00    +0.000 A 
ATOM      6  C   UNL     1      -6.446   2.805 127.043  0.00  0.00    +0.000 A 
ATOM      7  C   UNL     1      -6.789   1.594 126.546  0.00  0.00    +0.000 A 
ATOM      8  C   UNL     1      -7.477   1.443 125.448  0.00  0.00    +0.000 A 
ATOM      9  C   UNL     1      -7.086   0.065 124.782  0.00  0.00    +0.000 C 
ATOM     10  C   UNL     1      -5.271  -1.031 125.379  0.00  0.00    +0.000 C 
ATOM     11  C   UNL     1      -5.548  -1.957 127.048  0.00  0.00    +0.000 C 
ATOM     12  N   UNL     1      -6.933  -2.266 126.833  0.00  0.00    +0.000 NA
ATOM     13  C   UNL     1      -7.798  -2.031 127.944  0.00  0.00    +0.000 C 
ATOM     14  C   UNL     1      -7.114  -1.201 125.981  0.00  0.00    +0.000 C 
ATOM     15  C   UNL     1      -6.345   0.288 126.908  0.00  0.00    +0.000 C 
ATOM     16  C   UNL     1      -8.228  -1.004 125.191  0.00  0.00    +0.000 C 
ATOM     17  C   UNL     1      -8.293  -2.144 124.134  0.00  0.00    +0.000 C 
ATOM     18  C   UNL     1      -9.449  -1.969 123.258  0.00  0.00    +0.000 C 
ATOM     19  C   UNL     1      -9.515  -0.504 122.879  0.00  0.00    +0.000 C 
ATOM     20  O   UNL     1     -10.438  -0.175 122.125  0.00  0.00    +0.000 OA
ENDROOT
BRANCH   4  21
ATOM     21  O   UNL     1      -8.722   5.011 125.400  0.00  0.00    +0.000 OA
ATOM     22  H   UNL     1      -8.836   5.587 126.168  0.00  0.00    +0.000 HD
ENDBRANCH   4  21
TORSDOF 1
ENDMDL
MODEL 7
REMARK VINA RESULT:      -6.7      3.655      6.359
REMARK  Name = Hydromorphone
REMARK  2 active torsions:
REMARK  status: ('A' for Active; 'I' for Inactive)
REMARK    1  A    between atoms: C_5  and  O_6
REMARK    2  A    between atoms: N_14  and  C_15
REMARK                            x       y       z     vdW  Elec       q    Type
REMARK                         _______ _______ _______ _____ _____    ______ ____
ROOT
ATOM      1  C   UNL     1      -5.947  -0.085 126.961  0.00  0.00    +0.000 C 
ATOM      2  O   UNL     1      -6.017  -1.013 128.209  0.00  0.00    +0.000 OA
ATOM      3  C   UNL     1      -7.136  -1.783 128.000  0.00  0.00    +0.000 A 
ATOM      4  C   UNL     1      -7.733  -2.844 128.766  0.00  0.00    +0.000 A 
ATOM      5  C   UNL     1      -8.646  -3.675 128.090  0.00  0.00    +0.000 A 
ATOM      6  C   UNL     1      -9.075  -3.346 126.823  0.00  0.00    +0.000 A 
ATOM      7  C   UNL     1      -8.629  -2.196 126.266  0.00  0.00    +0.000 A 
ATOM      8  C   UNL     1      -7.574  -1.558 126.695  0.00  0.00    +0.000 A 
ATOM      9  C   UNL     1      -6.924  -0.772 125.490  0.00  0.00    +0.000 C 
ATOM     10  C   UNL     1      -7.449  -1.224 123.399  0.00  0.00    +0.000 C 
ATOM     11  C   UNL     1      -9.153  -0.451 122.938  0.00  0.00    +0.000 C 
ATOM     12  N   UNL     1      -9.023   0.724 123.753  0.00  0.00    +0.000 NA
ATOM     13  C   UNL     1     -10.173   1.073 124.523  0.00  0.00    +0.000 C 
ATOM     14  C   UNL     1      -8.155   0.112 124.626  0.00  0.00    +0.000 C 
ATOM     15  C   UNL     1      -8.999  -1.555 125.047  0.00  0.00    +0.000 C 
ATOM     16  C   UNL     1      -7.422   0.762 125.597  0.00  0.00    +0.000 C 
ATOM     17  C   UNL     1      -6.401   1.704 124.897  0.00  0.00    +0.000 C 
ATOM     18  C   UNL     1      -5.585   2.406 125.886  0.00  0.00    +0.000 C 
ATOM     19  C   UNL     1      -5.172   1.394 126.935  0.00  0.00    +0.000 C 
ATOM     20  O   UNL     1      -4.462   1.818 127.855  0.00  0.00    +0.000 OA
ENDROOT
BRANCH   4  21
ATOM     21  O   UNL     1      -7.503  -3.339 130.028  0.00  0.00    +0.000 OA
ATOM     22  H   UNL     1      -6.581  -3.505 130.265  0.00  0.00    +0.000 HD
ENDBRANCH   4  21
TORSDOF 1
ENDMDL
MODEL 8
REMARK VINA RESULT:      -6.7      3.906      5.314
REMARK  Name = Hydromorphone
REMARK  2 active torsions:
REMARK  status: ('A' for Active; 'I' for Inactive)
REMARK    1  A    between atoms: C_5  and  O_6
REMARK    2  A    between atoms: N_14  and  C_15
REMARK                            x       y       z     vdW  Elec       q    Type
REMARK                         _______ _______ _______ _____ _____    ______ ____
ROOT
ATOM      1  C   UNL     1      -6.323  -0.877 127.078  0.00  0.00    +0.000 C 
ATOM      2  O   UNL     1      -5.714  -2.207 126.546  0.00  0.00    +0.000 OA
ATOM      3  C   UNL     1      -5.977  -2.187 125.197  0.00  0.00    +0.000 A 
ATOM      4  C   UNL     1      -5.656  -3.106 124.139  0.00  0.00    +0.000 A 
ATOM      5  C   UNL     1      -5.733  -2.608 122.824  0.00  0.00    +0.000 A 
ATOM      6  C   UNL     1      -6.280  -1.366 122.585  0.00  0.00    +0.000 A 
ATOM      7  C   UNL     1      -6.770  -0.662 123.632  0.00  0.00    +0.000 A 
ATOM      8  C   UNL     1      -6.458  -0.919 124.872  0.00  0.00    +0.000 A 
ATOM      9  C   UNL     1      -6.552   0.415 125.712  0.00  0.00    +0.000 C 
ATOM     10  C   UNL     1      -6.628   2.390 124.739  0.00  0.00    +0.000 C 
ATOM     11  C   UNL     1      -8.392   2.744 124.044  0.00  0.00    +0.000 C 
ATOM     12  N   UNL     1      -9.113   2.060 125.080  0.00  0.00    +0.000 NA
ATOM     13  C   UNL     1     -10.173   1.212 124.638  0.00  0.00    +0.000 C 
ATOM     14  C   UNL     1      -8.057   1.227 125.367  0.00  0.00    +0.000 C 
ATOM     15  C   UNL     1      -7.492   0.568 123.660  0.00  0.00    +0.000 C 
ATOM     16  C   UNL     1      -7.981   0.402 126.470  0.00  0.00    +0.000 C 
ATOM     17  C   UNL     1      -7.915   1.288 127.747  0.00  0.00    +0.000 C 
ATOM     18  C   UNL     1      -7.814   0.458 128.945  0.00  0.00    +0.000 C 
ATOM     19  C   UNL     1      -6.803  -0.633 128.659  0.00  0.00    +0.000 C 
ATOM     20  O   UNL     1      -6.585  -1.431 129.579  0.00  0.00    +0.000 OA
ENDROOT
BRANCH   4  21
ATOM     21  O   UNL     1      -5.135  -4.378 124.122  0.00  0.00    +0.000 OA
ATOM     22  H   UNL     1      -5.740  -5.096 124.352  0.00  0.00    +0.000 HD
ENDBRANCH   4  21
TORSDOF 1
ENDMDL
MODEL 9
REMARK VINA RESULT:      -6.7      3.960      5.686
REMARK  Name = Hydromorphone
REMARK  2 active torsions:
REMARK  status: ('A' for Active; 'I' for Inactive)
REMARK    1  A    between atoms: C_5  and  O_6
REMARK    2  A    between atoms: N_14  and  C_15
REMARK                            x       y       z     vdW  Elec       q    Type
REMARK                         _______ _______ _______ _____ _____    ______ ____
ROOT
ATOM      1  C   UNL     1      -8.333  -1.506 125.919  0.00  0.00    +0.000 C 
ATOM      2  O   UNL     1      -9.301  -1.368 124.708  0.00  0.00    +0.000 OA
ATOM      3  C   UNL     1      -9.231  -0.039 124.364  0.00  0.00    +0.000 A 
ATOM      4  C   UNL     1      -9.860   0.721 123.318  0.00  0.00    +0.000 A 
ATOM      5  C   UNL     1      -9.283   1.967 123.006  0.00  0.00    +0.000 A 
ATOM      6  C   UNL     1      -8.293   2.491 123.809  0.00  0.00    +0.000 A 
ATOM      7  C   UNL     1      -7.921   1.802 124.912  0.00  0.00    +0.000 A 
ATOM      8  C   UNL     1      -8.184   0.536 125.084  0.00  0.00    +0.000 A 
ATOM      9  C   UNL     1      -7.065  -0.101 126.000  0.00  0.00    +0.000 C 
ATOM     10  C   UNL     1      -5.150   0.924 126.364  0.00  0.00    +0.000 C 
ATOM     11  C   UNL     1      -5.363   2.332 127.665  0.00  0.00    +0.000 C 
ATOM     12  N   UNL     1      -6.362   1.670 128.455  0.00  0.00    +0.000 NA
ATOM     13  C   UNL     1      -7.475   2.476 128.844  0.00  0.00    +0.000 C 
ATOM     14  C   UNL     1      -6.799   0.907 127.398  0.00  0.00    +0.000 C 
ATOM     15  C   UNL     1      -7.032   2.160 125.969  0.00  0.00    +0.000 C 
ATOM     16  C   UNL     1      -7.659  -0.167 127.502  0.00  0.00    +0.000 C 
ATOM     17  C   UNL     1      -6.947  -1.293 128.307  0.00  0.00    +0.000 C 
ATOM     18  C   UNL     1      -7.813  -2.464 128.430  0.00  0.00    +0.000 C 
ATOM     19  C   UNL     1      -8.444  -2.707 127.075  0.00  0.00    +0.000 C 
ATOM     20  O   UNL     1      -9.209  -3.676 126.993  0.00  0.00    +0.000 OA
ENDROOT
BRANCH   4  21
ATOM     21  O   UNL     1     -10.860   0.436 122.419  0.00  0.00    +0.000 OA
ATOM     22  H   UNL     1     -11.767   0.586 122.718  0.00  0.00    +0.000 HD
ENDBRANCH   4  21
TORSDOF 1
ENDMDL
