MODEL 1
REMARK VINA RESULT:      -7.0      0.000      0.000
REMARK  Name = Hydrocodone
REMARK  3 active torsions:
REMARK  status: ('A' for Active; 'I' for Inactive)
REMARK    1  A    between atoms: C_5  and  O_6
REMARK    2  A    between atoms: O_6  and  C_7
REMARK    3  A    between atoms: N_15  and  C_16
REMARK                            x       y       z     vdW  Elec       q    Type
REMARK                         _______ _______ _______ _____ _____    ______ ____
ROOT
ATOM      1  C   UNL     1      -6.893   0.198 127.861  0.00  0.00    +0.000 C 
ATOM      2  O   UNL     1      -7.731  -0.065 126.571  0.00  0.00    +0.000 OA
ATOM      3  C   UNL     1      -8.106  -1.393 126.650  0.00  0.00    +0.000 A 
ATOM      4  C   UNL     1      -8.927  -2.246 125.782  0.00  0.00    +0.000 A 
ATOM      5  C   UNL     1      -9.393  -3.427 126.385  0.00  0.00    +0.000 A 
ATOM      6  C   UNL     1      -8.944  -3.820 127.623  0.00  0.00    +0.000 A 
ATOM      7  C   UNL     1      -8.014  -3.072 128.250  0.00  0.00    +0.000 A 
ATOM      8  C   UNL     1      -7.756  -1.835 127.929  0.00  0.00    +0.000 A 
ATOM      9  C   UNL     1      -7.243  -1.074 129.217  0.00  0.00    +0.000 C 
ATOM     10  C   UNL     1      -7.531  -1.903 131.238  0.00  0.00    +0.000 C 
ATOM     11  C   UNL     1      -6.250  -3.300 131.596  0.00  0.00    +0.000 C 
ATOM     12  N   UNL     1      -5.168  -2.723 130.848  0.00  0.00    +0.000 NA
ATOM     13  C   UNL     1      -4.451  -3.623 130.004  0.00  0.00    +0.000 C 
ATOM     14  C   UNL     1      -6.016  -2.024 130.021  0.00  0.00    +0.000 C 
ATOM     15  C   UNL     1      -7.306  -3.321 129.462  0.00  0.00    +0.000 C 
ATOM     16  C   UNL     1      -5.627  -1.035 129.140  0.00  0.00    +0.000 C 
ATOM     17  C   UNL     1      -5.081   0.167 129.964  0.00  0.00    +0.000 C 
ATOM     18  C   UNL     1      -4.670   1.252 129.076  0.00  0.00    +0.000 C 
ATOM     19  C   UNL     1      -5.744   1.409 128.018  0.00  0.00    +0.000 C 
ATOM     20  O   UNL     1      -5.558   2.301 127.183  0.00  0.00    +0.000 OA
ENDROOT
BRANCH   4  21
ATOM     21  O   UNL     1      -9.401  -1.981 124.494  0.00  0.00    +0.000 OA
ATOM     22  C   UNL     1      -9.389  -3.098 123.523  0.00  0.00    +0.000 C 
ENDBRANCH   4  21
TORSDOF 1
ENDMDL
MODEL 2
REMARK VINA RESULT:      -7.0      3.877      5.704
REMARK  Name = Hydrocodone
REMARK  3 active torsions:
REMARK  status: ('A' for Active; 'I' for Inactive)
REMARK    1  A    between atoms: C_5  and  O_6
REMARK    2  A    between atoms: O_6  and  C_7
REMARK    3  A    between atoms: N_15  and  C_16
REMARK                            x       y       z     vdW  Elec       q    Type
REMARK                         _______ _______ _______ _____ _____    ______ ____
ROOT
ATOM      1  C   UNL     1      -6.105  -0.063 126.915  0.00  0.00    +0.000 C 
ATOM      2  O   UNL     1      -5.440  -1.435 126.578  0.00  0.00    +0.000 OA
ATOM      3  C   UNL     1      -5.792  -1.694 125.268  0.00  0.00    +0.000 A 
ATOM      4  C   UNL     1      -5.464  -2.792 124.350  0.00  0.00    +0.000 A 
ATOM      5  C   UNL     1      -5.695  -2.516 122.992  0.00  0.00    +0.000 A 
ATOM      6  C   UNL     1      -6.353  -1.375 122.598  0.00  0.00    +0.000 A 
ATOM      7  C   UNL     1      -6.814  -0.527 123.541  0.00  0.00    +0.000 A 
ATOM      8  C   UNL     1      -6.393  -0.532 124.774  0.00  0.00    +0.000 A 
ATOM      9  C   UNL     1      -6.526   0.931 125.361  0.00  0.00    +0.000 C 
ATOM     10  C   UNL     1      -6.816   2.678 124.049  0.00  0.00    +0.000 C 
ATOM     11  C   UNL     1      -8.645   2.789 123.449  0.00  0.00    +0.000 C 
ATOM     12  N   UNL     1      -9.241   2.274 124.649  0.00  0.00    +0.000 NA
ATOM     13  C   UNL     1     -10.263   1.296 124.462  0.00  0.00    +0.000 C 
ATOM     14  C   UNL     1      -8.109   1.575 124.999  0.00  0.00    +0.000 C 
ATOM     15  C   UNL     1      -7.620   0.640 123.403  0.00  0.00    +0.000 C 
ATOM     16  C   UNL     1      -7.893   0.979 126.224  0.00  0.00    +0.000 C 
ATOM     17  C   UNL     1      -7.805   2.096 127.304  0.00  0.00    +0.000 C 
ATOM     18  C   UNL     1      -7.559   1.517 128.623  0.00  0.00    +0.000 C 
ATOM     19  C   UNL     1      -6.492   0.452 128.463  0.00  0.00    +0.000 C 
ATOM     20  O   UNL     1      -6.153  -0.137 129.495  0.00  0.00    +0.000 OA
ENDROOT
BRANCH   4  21
ATOM     21  O   UNL     1      -4.846  -4.013 124.636  0.00  0.00    +0.000 OA
ATOM     22  C   UNL     1      -4.197  -4.725 123.513  0.00  0.00    +0.000 C 
ENDBRANCH   4  21
TORSDOF 1
ENDMDL
MODEL 3
REMARK VINA RESULT:      -6.9      6.378      8.056
REMARK  Name = Hydrocodone
REMARK  3 active torsions:
REMARK  status: ('A' for Active; 'I' for Inactive)
REMARK    1  A    between atoms: C_5  and  O_6
REMARK    2  A    between atoms: O_6  and  C_7
REMARK    3  A    between atoms: N_15  and  C_16
REMARK                            x       y       z     vdW  Elec       q    Type
REMARK                         _______ _______ _______ _____ _____    ______ ____
ROOT
ATOM      1  C   UNL     1      -7.425   6.584 131.087  0.00  0.00    +0.000 C 
ATOM      2  O   UNL     1      -8.325   7.612 130.331  0.00  0.00    +0.000 OA
ATOM      3  C   UNL     1      -9.497   6.933 130.060  0.00  0.00    +0.000 A 
ATOM      4  C   UNL     1     -10.751   7.337 129.411  0.00  0.00    +0.000 A 
ATOM      5  C   UNL     1     -11.843   6.488 129.658  0.00  0.00    +0.000 A 
ATOM      6  C   UNL     1     -11.680   5.284 130.300  0.00  0.00    +0.000 A 
ATOM      7  C   UNL     1     -10.440   4.900 130.665  0.00  0.00    +0.000 A 
ATOM      8  C   UNL     1      -9.435   5.725 130.761  0.00  0.00    +0.000 A 
ATOM      9  C   UNL     1      -8.431   5.176 131.853  0.00  0.00    +0.000 C 
ATOM     10  C   UNL     1      -9.032   3.622 133.295  0.00  0.00    +0.000 C 
ATOM     11  C   UNL     1      -9.027   1.880 132.466  0.00  0.00    +0.000 C 
ATOM     12  N   UNL     1      -7.914   2.119 131.592  0.00  0.00    +0.000 NA
ATOM     13  C   UNL     1      -8.083   1.685 130.243  0.00  0.00    +0.000 C 
ATOM     14  C   UNL     1      -8.122   3.479 131.579  0.00  0.00    +0.000 C 
ATOM     15  C   UNL     1      -9.993   3.667 131.223  0.00  0.00    +0.000 C 
ATOM     16  C   UNL     1      -7.241   4.410 131.070  0.00  0.00    +0.000 C 
ATOM     17  C   UNL     1      -5.951   4.393 131.942  0.00  0.00    +0.000 C 
ATOM     18  C   UNL     1      -4.989   5.377 131.454  0.00  0.00    +0.000 C 
ATOM     19  C   UNL     1      -5.751   6.652 131.151  0.00  0.00    +0.000 C 
ATOM     20  O   UNL     1      -5.079   7.602 130.734  0.00  0.00    +0.000 OA
ENDROOT
BRANCH   4  21
ATOM     21  O   UNL     1     -11.025   8.504 128.692  0.00  0.00    +0.000 OA
ATOM     22  C   UNL     1     -12.447   8.868 128.504  0.00  0.00    +0.000 C 
ENDBRANCH   4  21
TORSDOF 1
ENDMDL
MODEL 4
REMARK VINA RESULT:      -6.9      5.372      7.638
REMARK  Name = Hydrocodone
REMARK  3 active torsions:
REMARK  status: ('A' for Active; 'I' for Inactive)
REMARK    1  A    between atoms: C_5  and  O_6
REMARK    2  A    between atoms: O_6  and  C_7
REMARK    3  A    between atoms: N_15  and  C_16
REMARK                            x       y       z     vdW  Elec       q    Type
REMARK                         _______ _______ _______ _____ _____    ______ ____
ROOT
ATOM      1  C   UNL     1      -8.437   1.739 123.001  0.00  0.00    +0.000 C 
ATOM      2  O   UNL     1      -8.128   2.366 121.605  0.00  0.00    +0.000 OA
ATOM      3  C   UNL     1      -7.111   3.273 121.835  0.00  0.00    +0.000 A 
ATOM      4  C   UNL     1      -6.349   4.157 120.945  0.00  0.00    +0.000 A 
ATOM      5  C   UNL     1      -5.148   4.648 121.486  0.00  0.00    +0.000 A 
ATOM      6  C   UNL     1      -4.831   4.454 122.810  0.00  0.00    +0.000 A 
ATOM      7  C   UNL     1      -5.709   3.811 123.606  0.00  0.00    +0.000 A 
ATOM      8  C   UNL     1      -6.677   3.068 123.149  0.00  0.00    +0.000 A 
ATOM      9  C   UNL     1      -7.001   1.945 124.215  0.00  0.00    +0.000 C 
ATOM     10  C   UNL     1      -5.602   1.470 125.850  0.00  0.00    +0.000 C 
ATOM     11  C   UNL     1      -5.716   2.788 127.254  0.00  0.00    +0.000 C 
ATOM     12  N   UNL     1      -7.123   3.042 127.124  0.00  0.00    +0.000 NA
ATOM     13  C   UNL     1      -7.507   4.417 127.138  0.00  0.00    +0.000 C 
ATOM     14  C   UNL     1      -7.145   2.657 125.804  0.00  0.00    +0.000 C 
ATOM     15  C   UNL     1      -5.676   3.595 125.014  0.00  0.00    +0.000 C 
ATOM     16  C   UNL     1      -8.287   2.442 125.061  0.00  0.00    +0.000 C 
ATOM     17  C   UNL     1      -9.039   1.218 125.660  0.00  0.00    +0.000 C 
ATOM     18  C   UNL     1     -10.252   0.936 124.896  0.00  0.00    +0.000 C 
ATOM     19  C   UNL     1      -9.899   1.037 123.425  0.00  0.00    +0.000 C 
ATOM     20  O   UNL     1     -10.818   0.814 122.629  0.00  0.00    +0.000 OA
ENDROOT
BRANCH   4  21
ATOM     21  O   UNL     1      -6.598   4.472 119.606  0.00  0.00    +0.000 OA
ATOM     22  C   UNL     1      -5.772   5.537 118.994  0.00  0.00    +0.000 C 
ENDBRANCH   4  21
TORSDOF 1
ENDMDL
MODEL 5
REMARK VINA RESULT:      -6.7      3.202      5.561
REMARK  Name = Hydrocodone
REMARK  3 active torsions:
REMARK  status: ('A' for Active; 'I' for Inactive)
REMARK    1  A    between atoms: C_5  and  O_6
REMARK    2  A    between atoms: O_6  and  C_7
REMARK    3  A    between atoms: N_15  and  C_16
REMARK                            x       y       z     vdW  Elec       q    Type
REMARK                         _______ _______ _______ _____ _____    ______ ____
ROOT
ATOM      1  C   UNL     1      -7.975  -0.838 124.335  0.00  0.00    +0.000 C 
ATOM      2  O   UNL     1      -7.935   0.183 123.155  0.00  0.00    +0.000 OA
ATOM      3  C   UNL     1      -7.348   1.318 123.681  0.00  0.00    +0.000 A 
ATOM      4  C   UNL     1      -6.990   2.614 123.093  0.00  0.00    +0.000 A 
ATOM      5  C   UNL     1      -6.072   3.370 123.842  0.00  0.00    +0.000 A 
ATOM      6  C   UNL     1      -5.703   2.989 125.110  0.00  0.00    +0.000 A 
ATOM      7  C   UNL     1      -6.263   1.888 125.652  0.00  0.00    +0.000 A 
ATOM      8  C   UNL     1      -6.867   0.973 124.948  0.00  0.00    +0.000 A 
ATOM      9  C   UNL     1      -6.729  -0.414 125.694  0.00  0.00    +0.000 C 
ATOM     10  C   UNL     1      -5.253  -0.717 127.302  0.00  0.00    +0.000 C 
ATOM     11  C   UNL     1      -5.867   0.070 128.953  0.00  0.00    +0.000 C 
ATOM     12  N   UNL     1      -7.262  -0.199 128.752  0.00  0.00    +0.000 NA
ATOM     13  C   UNL     1      -8.149   0.881 129.043  0.00  0.00    +0.000 C 
ATOM     14  C   UNL     1      -7.136  -0.226 127.383  0.00  0.00    +0.000 C 
ATOM     15  C   UNL     1      -6.146   1.359 126.970  0.00  0.00    +0.000 C 
ATOM     16  C   UNL     1      -8.107  -0.663 126.506  0.00  0.00    +0.000 C 
ATOM     17  C   UNL     1      -8.324  -2.187 126.736  0.00  0.00    +0.000 C 
ATOM     18  C   UNL     1      -9.334  -2.706 125.816  0.00  0.00    +0.000 C 
ATOM     19  C   UNL     1      -9.050  -2.120 124.447  0.00  0.00    +0.000 C 
ATOM     20  O   UNL     1      -9.812  -2.468 123.538  0.00  0.00    +0.000 OA
ENDROOT
BRANCH   4  21
ATOM     21  O   UNL     1      -7.343   3.132 121.843  0.00  0.00    +0.000 OA
ATOM     22  C   UNL     1      -6.289   3.836 121.078  0.00  0.00    +0.000 C 
ENDBRANCH   4  21
TORSDOF 1
ENDMDL
MODEL 6
REMARK VINA RESULT:      -6.6      3.832      5.432
REMARK  Name = Hydrocodone
REMARK  3 active torsions:
REMARK  status: ('A' for Active; 'I' for Inactive)
REMARK    1  A    between atoms: C_5  and  O_6
REMARK    2  A    between atoms: O_6  and  C_7
REMARK    3  A    between atoms: N_15  and  C_16
REMARK                            x       y       z     vdW  Elec       q    Type
REMARK                         _______ _______ _______ _____ _____    ______ ____
ROOT
ATOM      1  C   UNL     1      -7.373   2.478 123.233  0.00  0.00    +0.000 C 
ATOM      2  O   UNL     1      -8.149   1.179 122.847  0.00  0.00    +0.000 OA
ATOM      3  C   UNL     1      -8.226   0.446 124.015  0.00  0.00    +0.000 A 
ATOM      4  C   UNL     1      -8.853  -0.841 124.340  0.00  0.00    +0.000 A 
ATOM      5  C   UNL     1      -9.045  -1.076 125.712  0.00  0.00    +0.000 A 
ATOM      6  C   UNL     1      -8.508  -0.238 126.660  0.00  0.00    +0.000 A 
ATOM      7  C   UNL     1      -7.755   0.806 126.259  0.00  0.00    +0.000 A 
ATOM      8  C   UNL     1      -7.774   1.278 125.045  0.00  0.00    +0.000 A 
ATOM      9  C   UNL     1      -7.424   2.819 125.093  0.00  0.00    +0.000 C 
ATOM     10  C   UNL     1      -7.503   3.961 126.976  0.00  0.00    +0.000 C 
ATOM     11  C   UNL     1      -5.946   3.609 128.058  0.00  0.00    +0.000 C 
ATOM     12  N   UNL     1      -5.024   3.454 126.969  0.00  0.00    +0.000 NA
ATOM     13  C   UNL     1      -4.138   2.339 127.062  0.00  0.00    +0.000 C 
ATOM     14  C   UNL     1      -6.012   3.078 126.089  0.00  0.00    +0.000 C 
ATOM     15  C   UNL     1      -6.997   1.735 127.031  0.00  0.00    +0.000 C 
ATOM     16  C   UNL     1      -5.856   2.967 124.722  0.00  0.00    +0.000 C 
ATOM     17  C   UNL     1      -5.575   4.385 124.145  0.00  0.00    +0.000 C 
ATOM     18  C   UNL     1      -5.419   4.327 122.694  0.00  0.00    +0.000 C 
ATOM     19  C   UNL     1      -6.512   3.428 122.152  0.00  0.00    +0.000 C 
ATOM     20  O   UNL     1      -6.534   3.276 120.925  0.00  0.00    +0.000 OA
ENDROOT
BRANCH   4  21
ATOM     21  O   UNL     1      -9.387  -1.796 123.469  0.00  0.00    +0.000 OA
ATOM     22  C   UNL     1      -9.222  -3.220 123.838  0.00  0.00    +0.000 C 
ENDBRANCH   4  21
TORSDOF 1
ENDMDL
MODEL 7
REMARK VINA RESULT:      -6.6      7.633      8.763
REMARK  Name = Hydrocodone
REMARK  3 active torsions:
REMARK  status: ('A' for Active; 'I' for Inactive)
REMARK    1  A    between atoms: C_5  and  O_6
REMARK    2  A    between atoms: O_6  and  C_7
REMARK    3  A    between atoms: N_15  and  C_16
REMARK                            x       y       z     vdW  Elec       q    Type
REMARK                         _______ _______ _______ _____ _____    ______ ____
ROOT
ATOM      1  C   UNL     1      -4.984   7.037 130.689  0.00  0.00    +0.000 C 
ATOM      2  O   UNL     1      -6.476   7.399 130.409  0.00  0.00    +0.000 OA
ATOM      3  C   UNL     1      -7.201   6.681 131.340  0.00  0.00    +0.000 A 
ATOM      4  C   UNL     1      -8.637   6.603 131.635  0.00  0.00    +0.000 A 
ATOM      5  C   UNL     1      -8.954   6.061 132.892  0.00  0.00    +0.000 A 
ATOM      6  C   UNL     1      -7.989   5.482 133.682  0.00  0.00    +0.000 A 
ATOM      7  C   UNL     1      -6.725   5.406 133.221  0.00  0.00    +0.000 A 
ATOM      8  C   UNL     1      -6.278   6.134 132.236  0.00  0.00    +0.000 A 
ATOM      9  C   UNL     1      -4.725   6.358 132.436  0.00  0.00    +0.000 C 
ATOM     10  C   UNL     1      -3.743   5.971 134.370  0.00  0.00    +0.000 C 
ATOM     11  C   UNL     1      -3.468   4.080 134.633  0.00  0.00    +0.000 C 
ATOM     12  N   UNL     1      -3.224   3.759 133.255  0.00  0.00    +0.000 NA
ATOM     13  C   UNL     1      -3.897   2.601 132.761  0.00  0.00    +0.000 C 
ATOM     14  C   UNL     1      -3.945   4.838 132.800  0.00  0.00    +0.000 C 
ATOM     15  C   UNL     1      -5.586   4.757 133.781  0.00  0.00    +0.000 C 
ATOM     16  C   UNL     1      -3.960   5.288 131.495  0.00  0.00    +0.000 C 
ATOM     17  C   UNL     1      -2.536   5.808 131.141  0.00  0.00    +0.000 C 
ATOM     18  C   UNL     1      -2.501   6.314 129.771  0.00  0.00    +0.000 C 
ATOM     19  C   UNL     1      -3.751   7.146 129.558  0.00  0.00    +0.000 C 
ATOM     20  O   UNL     1      -3.876   7.664 128.443  0.00  0.00    +0.000 OA
ENDROOT
BRANCH   4  21
ATOM     21  O   UNL     1      -9.709   7.105 130.890  0.00  0.00    +0.000 OA
ATOM     22  C   UNL     1      -9.850   6.628 129.496  0.00  0.00    +0.000 C 
ENDBRANCH   4  21
TORSDOF 1
ENDMDL
MODEL 8
REMARK VINA RESULT:      -6.6      2.679      6.018
REMARK  Name = Hydrocodone
REMARK  3 active torsions:
REMARK  status: ('A' for Active; 'I' for Inactive)
REMARK    1  A    between atoms: C_5  and  O_6
REMARK    2  A    between atoms: O_6  and  C_7
REMARK    3  A    between atoms: N_15  and  C_16
REMARK                            x       y       z     vdW  Elec       q    Type
REMARK                         _______ _______ _______ _____ _____    ______ ____
ROOT
ATOM      1  C   UNL     1      -7.538  -1.460 128.461  0.00  0.00    +0.000 C 
ATOM      2  O   UNL     1      -6.557  -0.533 129.245  0.00  0.00    +0.000 OA
ATOM      3  C   UNL     1      -5.886   0.185 128.275  0.00  0.00    +0.000 A 
ATOM      4  C   UNL     1      -4.867   1.239 128.346  0.00  0.00    +0.000 A 
ATOM      5  C   UNL     1      -4.705   1.985 127.166  0.00  0.00    +0.000 A 
ATOM      6  C   UNL     1      -5.327   1.614 125.997  0.00  0.00    +0.000 A 
ATOM      7  C   UNL     1      -6.075   0.493 125.982  0.00  0.00    +0.000 A 
ATOM      8  C   UNL     1      -6.529  -0.079 127.061  0.00  0.00    +0.000 A 
ATOM      9  C   UNL     1      -7.877  -0.828 126.710  0.00  0.00    +0.000 C 
ATOM     10  C   UNL     1      -8.982  -0.402 124.852  0.00  0.00    +0.000 C 
ATOM     11  C   UNL     1      -8.149  -1.268 123.344  0.00  0.00    +0.000 C 
ATOM     12  N   UNL     1      -7.707  -2.436 124.051  0.00  0.00    +0.000 NA
ATOM     13  C   UNL     1      -6.367  -2.850 123.787  0.00  0.00    +0.000 C 
ATOM     14  C   UNL     1      -7.669  -1.780 125.259  0.00  0.00    +0.000 C 
ATOM     15  C   UNL     1      -6.711  -0.165 124.889  0.00  0.00    +0.000 C 
ATOM     16  C   UNL     1      -7.515  -2.390 126.487  0.00  0.00    +0.000 C 
ATOM     17  C   UNL     1      -8.768  -3.272 126.756  0.00  0.00    +0.000 C 
ATOM     18  C   UNL     1      -8.664  -3.929 128.057  0.00  0.00    +0.000 C 
ATOM     19  C   UNL     1      -8.163  -2.900 129.051  0.00  0.00    +0.000 C 
ATOM     20  O   UNL     1      -8.027  -3.289 130.216  0.00  0.00    +0.000 OA
ENDROOT
BRANCH   4  21
ATOM     21  O   UNL     1      -4.135   1.671 129.456  0.00  0.00    +0.000 OA
ATOM     22  C   UNL     1      -4.020   3.132 129.667  0.00  0.00    +0.000 C 
ENDBRANCH   4  21
TORSDOF 1
ENDMDL
MODEL 9
REMARK VINA RESULT:      -6.5      1.959      4.563
REMARK  Name = Hydrocodone
REMARK  3 active torsions:
REMARK  status: ('A' for Active; 'I' for Inactive)
REMARK    1  A    between atoms: C_5  and  O_6
REMARK    2  A    between atoms: O_6  and  C_7
REMARK    3  A    between atoms: N_15  and  C_16
REMARK                            x       y       z     vdW  Elec       q    Type
REMARK                         _______ _______ _______ _____ _____    ______ ____
ROOT
ATOM      1  C   UNL     1      -7.726  -1.651 125.800  0.00  0.00    +0.000 C 
ATOM      2  O   UNL     1      -7.632  -0.463 124.792  0.00  0.00    +0.000 OA
ATOM      3  C   UNL     1      -6.869   0.493 125.433  0.00  0.00    +0.000 A 
ATOM      4  C   UNL     1      -6.384   1.817 125.022  0.00  0.00    +0.000 A 
ATOM      5  C   UNL     1      -5.328   2.326 125.796  0.00  0.00    +0.000 A 
ATOM      6  C   UNL     1      -4.927   1.703 126.954  0.00  0.00    +0.000 A 
ATOM      7  C   UNL     1      -5.589   0.602 127.367  0.00  0.00    +0.000 A 
ATOM      8  C   UNL     1      -6.353  -0.108 126.586  0.00  0.00    +0.000 A 
ATOM      9  C   UNL     1      -6.348  -1.605 127.096  0.00  0.00    +0.000 C 
ATOM     10  C   UNL     1      -4.821  -2.338 128.505  0.00  0.00    +0.000 C 
ATOM     11  C   UNL     1      -5.215  -1.763 130.303  0.00  0.00    +0.000 C 
ATOM     12  N   UNL     1      -6.644  -1.829 130.185  0.00  0.00    +0.000 NA
ATOM     13  C   UNL     1      -7.361  -0.714 130.714  0.00  0.00    +0.000 C 
ATOM     14  C   UNL     1      -6.613  -1.647 128.822  0.00  0.00    +0.000 C 
ATOM     15  C   UNL     1      -5.454  -0.144 128.574  0.00  0.00    +0.000 C 
ATOM     16  C   UNL     1      -7.689  -1.817 127.976  0.00  0.00    +0.000 C 
ATOM     17  C   UNL     1      -8.088  -3.322 127.987  0.00  0.00    +0.000 C 
ATOM     18  C   UNL     1      -9.216  -3.561 127.090  0.00  0.00    +0.000 C 
ATOM     19  C   UNL     1      -8.950  -2.798 125.808  0.00  0.00    +0.000 C 
ATOM     20  O   UNL     1      -9.809  -2.900 124.925  0.00  0.00    +0.000 OA
ENDROOT
BRANCH   4  21
ATOM     21  O   UNL     1      -6.749   2.570 123.902  0.00  0.00    +0.000 OA
ATOM     22  C   UNL     1      -8.152   3.033 123.822  0.00  0.00    +0.000 C 
ENDBRANCH   4  21
TORSDOF 1
ENDMDL
