MODEL 1
REMARK VINA RESULT:      -6.5      0.000      0.000
REMARK  Name = Hydrochlorothiazide
REMARK  2 active torsions:
REMARK  status: ('A' for Active; 'I' for Inactive)
REMARK    1  A    between atoms: N_1  and  S_2
REMARK    2  A    between atoms: S_2  and  C_5
REMARK                            x       y       z     vdW  Elec       q    Type
REMARK                         _______ _______ _______ _____ _____    ______ ____
ROOT
ATOM      1  C   UNL     1     -10.684   6.674 129.394  0.00  0.00    +0.000 A 
ATOM      2  C   UNL     1     -11.467   7.064 130.482  0.00  0.00    +0.000 A 
ATOM      3 CL   UNL     1     -12.759   8.202 130.422  0.00  0.00    +0.000 Cl
ATOM      4  C   UNL     1     -11.228   6.499 131.752  0.00  0.00    +0.000 A 
ATOM      5  C   UNL     1     -10.208   5.565 131.971  0.00  0.00    +0.000 A 
ATOM      6  N   UNL     1     -10.068   4.967 133.218  0.00  0.00    +0.000 N 
ATOM      7  C   UNL     1      -8.799   4.394 133.580  0.00  0.00    +0.000 C 
ATOM      8  N   UNL     1      -8.515   3.376 132.605  0.00  0.00    +0.000 NA
ATOM      9  S   UNL     1      -8.135   4.030 131.110  0.00  0.00    +0.000 S 
ATOM     10  O   UNL     1      -6.904   4.773 131.233  0.00  0.00    +0.000 OA
ATOM     11  O   UNL     1      -8.310   2.975 130.136  0.00  0.00    +0.000 OA
ATOM     12  C   UNL     1      -9.428   5.209 130.871  0.00  0.00    +0.000 A 
ATOM     13  C   UNL     1      -9.664   5.724 129.590  0.00  0.00    +0.000 A 
ATOM     14  H   UNL     1     -10.638   5.311 133.983  0.00  0.00    +0.000 HD
ATOM     15  H   UNL     1      -9.251   2.680 132.522  0.00  0.00    +0.000 HD
ENDROOT
BRANCH   1  16
ATOM     16  S   UNL     1     -10.936   7.235 127.730  0.00  0.00    +0.000 S 
ATOM     17  O   UNL     1     -10.593   8.629 127.571  0.00  0.00    +0.000 OA
ATOM     18  O   UNL     1     -12.197   6.708 127.273  0.00  0.00    +0.000 OA
BRANCH  16  19
ATOM     19  N   UNL     1      -9.752   6.393 126.872  0.00  0.00    +0.000 NA
ATOM     20  H   UNL     1     -10.224   5.713 126.266  0.00  0.00    +0.000 HD
ATOM     21  H   UNL     1      -9.082   5.926 127.481  0.00  0.00    +0.000 HD
ENDBRANCH  16  19
ENDBRANCH   1  16
TORSDOF 2
ENDMDL
MODEL 2
REMARK VINA RESULT:      -6.3      7.582      8.454
REMARK  Name = Hydrochlorothiazide
REMARK  2 active torsions:
REMARK  status: ('A' for Active; 'I' for Inactive)
REMARK    1  A    between atoms: N_1  and  S_2
REMARK    2  A    between atoms: S_2  and  C_5
REMARK                            x       y       z     vdW  Elec       q    Type
REMARK                         _______ _______ _______ _____ _____    ______ ____
ROOT
ATOM      1  C   UNL     1      -8.114   1.881 125.248  0.00  0.00    +0.000 A 
ATOM      2  C   UNL     1      -8.073   1.390 126.553  0.00  0.00    +0.000 A 
ATOM      3 CL   UNL     1      -7.691   2.319 127.955  0.00  0.00    +0.000 Cl
ATOM      4  C   UNL     1      -8.373   0.034 126.799  0.00  0.00    +0.000 A 
ATOM      5  C   UNL     1      -8.694  -0.855 125.767  0.00  0.00    +0.000 A 
ATOM      6  N   UNL     1      -9.073  -2.159 126.065  0.00  0.00    +0.000 N 
ATOM      7  C   UNL     1      -8.949  -3.172 125.050  0.00  0.00    +0.000 C 
ATOM      8  N   UNL     1      -9.771  -2.751 123.948  0.00  0.00    +0.000 NA
ATOM      9  S   UNL     1      -9.113  -1.436 123.144  0.00  0.00    +0.000 S 
ATOM     10  O   UNL     1      -7.869  -1.845 122.538  0.00  0.00    +0.000 OA
ATOM     11  O   UNL     1     -10.185  -0.833 122.383  0.00  0.00    +0.000 OA
ATOM     12  C   UNL     1      -8.708  -0.343 124.470  0.00  0.00    +0.000 A 
ATOM     13  C   UNL     1      -8.451   1.007 124.197  0.00  0.00    +0.000 A 
ATOM     14  H   UNL     1      -8.991  -2.477 127.025  0.00  0.00    +0.000 HD
ATOM     15  H   UNL     1     -10.737  -2.572 124.210  0.00  0.00    +0.000 HD
ENDROOT
BRANCH   1  16
ATOM     16  S   UNL     1      -7.849   3.580 124.810  0.00  0.00    +0.000 S 
ATOM     17  O   UNL     1      -6.453   3.946 124.882  0.00  0.00    +0.000 OA
ATOM     18  O   UNL     1      -8.872   4.366 125.451  0.00  0.00    +0.000 OA
BRANCH  16  19
ATOM     19  N   UNL     1      -8.221   3.601 123.164  0.00  0.00    +0.000 NA
ATOM     20  H   UNL     1      -7.730   4.394 122.739  0.00  0.00    +0.000 HD
ATOM     21  H   UNL     1      -9.223   3.664 122.989  0.00  0.00    +0.000 HD
ENDBRANCH  16  19
ENDBRANCH   1  16
TORSDOF 2
ENDMDL
MODEL 3
REMARK VINA RESULT:      -5.9      7.028      8.435
REMARK  Name = Hydrochlorothiazide
REMARK  2 active torsions:
REMARK  status: ('A' for Active; 'I' for Inactive)
REMARK    1  A    between atoms: N_1  and  S_2
REMARK    2  A    between atoms: S_2  and  C_5
REMARK                            x       y       z     vdW  Elec       q    Type
REMARK                         _______ _______ _______ _____ _____    ______ ____
ROOT
ATOM      1  C   UNL     1      -7.215   3.116 125.364  0.00  0.00    +0.000 A 
ATOM      2  C   UNL     1      -6.187   2.186 125.524  0.00  0.00    +0.000 A 
ATOM      3 CL   UNL     1      -4.688   2.487 126.322  0.00  0.00    +0.000 Cl
ATOM      4  C   UNL     1      -6.343   0.878 125.020  0.00  0.00    +0.000 A 
ATOM      5  C   UNL     1      -7.497   0.477 124.338  0.00  0.00    +0.000 A 
ATOM      6  N   UNL     1      -7.646  -0.847 123.940  0.00  0.00    +0.000 N 
ATOM      7  C   UNL     1      -8.561  -1.158 122.874  0.00  0.00    +0.000 C 
ATOM      8  N   UNL     1      -9.859  -0.714 123.305  0.00  0.00    +0.000 NA
ATOM      9  S   UNL     1      -9.974   0.958 123.323  0.00  0.00    +0.000 S 
ATOM     10  O   UNL     1      -9.852   1.441 121.969  0.00  0.00    +0.000 OA
ATOM     11  O   UNL     1     -11.102   1.290 124.167  0.00  0.00    +0.000 OA
ATOM     12  C   UNL     1      -8.502   1.431 124.175  0.00  0.00    +0.000 A 
ATOM     13  C   UNL     1      -8.392   2.727 124.696  0.00  0.00    +0.000 A 
ATOM     14  H   UNL     1      -6.855  -1.473 124.047  0.00  0.00    +0.000 HD
ATOM     15  H   UNL     1     -10.146  -1.108 124.197  0.00  0.00    +0.000 HD
ENDROOT
BRANCH   1  16
ATOM     16  S   UNL     1      -7.188   4.761 126.027  0.00  0.00    +0.000 S 
ATOM     17  O   UNL     1      -6.290   5.625 125.295  0.00  0.00    +0.000 OA
ATOM     18  O   UNL     1      -7.135   4.657 127.463  0.00  0.00    +0.000 OA
BRANCH  16  19
ATOM     19  N   UNL     1      -8.734   5.332 125.667  0.00  0.00    +0.000 NA
ATOM     20  H   UNL     1      -8.660   5.954 124.855  0.00  0.00    +0.000 HD
ATOM     21  H   UNL     1      -9.168   5.816 126.452  0.00  0.00    +0.000 HD
ENDBRANCH  16  19
ENDBRANCH   1  16
TORSDOF 2
ENDMDL
MODEL 4
REMARK VINA RESULT:      -5.8      2.959      5.638
REMARK  Name = Hydrochlorothiazide
REMARK  2 active torsions:
REMARK  status: ('A' for Active; 'I' for Inactive)
REMARK    1  A    between atoms: N_1  and  S_2
REMARK    2  A    between atoms: S_2  and  C_5
REMARK                            x       y       z     vdW  Elec       q    Type
REMARK                         _______ _______ _______ _____ _____    ______ ____
ROOT
ATOM      1  C   UNL     1      -8.665   5.179 132.294  0.00  0.00    +0.000 A 
ATOM      2  C   UNL     1      -7.748   6.128 131.839  0.00  0.00    +0.000 A 
ATOM      3 CL   UNL     1      -6.115   6.271 132.373  0.00  0.00    +0.000 Cl
ATOM      4  C   UNL     1      -8.138   7.059 130.854  0.00  0.00    +0.000 A 
ATOM      5  C   UNL     1      -9.433   7.083 130.323  0.00  0.00    +0.000 A 
ATOM      6  N   UNL     1      -9.746   7.957 129.290  0.00  0.00    +0.000 N 
ATOM      7  C   UNL     1     -11.122   8.314 129.067  0.00  0.00    +0.000 C 
ATOM      8  N   UNL     1     -11.824   7.089 128.792  0.00  0.00    +0.000 NA
ATOM      9  S   UNL     1     -11.976   6.134 130.159  0.00  0.00    +0.000 S 
ATOM     10  O   UNL     1     -12.809   6.827 131.113  0.00  0.00    +0.000 OA
ATOM     11  O   UNL     1     -12.270   4.793 129.702  0.00  0.00    +0.000 OA
ATOM     12  C   UNL     1     -10.335   6.136 130.810  0.00  0.00    +0.000 A 
ATOM     13  C   UNL     1      -9.968   5.175 131.761  0.00  0.00    +0.000 A 
ATOM     14  H   UNL     1      -9.056   8.651 129.021  0.00  0.00    +0.000 HD
ATOM     15  H   UNL     1     -11.425   6.560 128.020  0.00  0.00    +0.000 HD
ENDROOT
BRANCH   1  16
ATOM     16  S   UNL     1      -8.281   3.897 133.458  0.00  0.00    +0.000 S 
ATOM     17  O   UNL     1      -8.272   4.385 134.818  0.00  0.00    +0.000 OA
ATOM     18  O   UNL     1      -7.186   3.128 132.922  0.00  0.00    +0.000 OA
BRANCH  16  19
ATOM     19  N   UNL     1      -9.634   2.893 133.363  0.00  0.00    +0.000 NA
ATOM     20  H   UNL     1     -10.204   3.206 132.570  0.00  0.00    +0.000 HD
ATOM     21  H   UNL     1     -10.183   2.890 134.221  0.00  0.00    +0.000 HD
ENDBRANCH  16  19
ENDBRANCH   1  16
TORSDOF 2
ENDMDL
MODEL 5
REMARK VINA RESULT:      -5.8      3.401      5.347
REMARK  Name = Hydrochlorothiazide
REMARK  2 active torsions:
REMARK  status: ('A' for Active; 'I' for Inactive)
REMARK    1  A    between atoms: N_1  and  S_2
REMARK    2  A    between atoms: S_2  and  C_5
REMARK                            x       y       z     vdW  Elec       q    Type
REMARK                         _______ _______ _______ _____ _____    ______ ____
ROOT
ATOM      1  C   UNL     1      -6.580   6.073 131.862  0.00  0.00    +0.000 A 
ATOM      2  C   UNL     1      -7.084   5.730 133.117  0.00  0.00    +0.000 A 
ATOM      3 CL   UNL     1      -6.134   5.271 134.479  0.00  0.00    +0.000 Cl
ATOM      4  C   UNL     1      -8.476   5.758 133.341  0.00  0.00    +0.000 A 
ATOM      5  C   UNL     1      -9.386   6.101 132.334  0.00  0.00    +0.000 A 
ATOM      6  N   UNL     1     -10.741   6.205 132.626  0.00  0.00    +0.000 N 
ATOM      7  C   UNL     1     -11.697   6.093 131.556  0.00  0.00    +0.000 C 
ATOM      8  N   UNL     1     -11.398   7.149 130.627  0.00  0.00    +0.000 NA
ATOM      9  S   UNL     1      -9.974   6.863 129.791  0.00  0.00    +0.000 S 
ATOM     10  O   UNL     1     -10.153   5.691 128.968  0.00  0.00    +0.000 OA
ATOM     11  O   UNL     1      -9.546   8.134 129.248  0.00  0.00    +0.000 OA
ATOM     12  C   UNL     1      -8.856   6.421 131.084  0.00  0.00    +0.000 A 
ATOM     13  C   UNL     1      -7.477   6.438 130.839  0.00  0.00    +0.000 A 
ATOM     14  H   UNL     1     -11.060   5.909 133.542  0.00  0.00    +0.000 HD
ATOM     15  H   UNL     1     -11.391   8.072 131.053  0.00  0.00    +0.000 HD
ENDROOT
BRANCH   1  16
ATOM     16  S   UNL     1      -4.852   6.169 131.470  0.00  0.00    +0.000 S 
ATOM     17  O   UNL     1      -4.267   4.862 131.284  0.00  0.00    +0.000 OA
ATOM     18  O   UNL     1      -4.256   7.149 132.343  0.00  0.00    +0.000 OA
BRANCH  16  19
ATOM     19  N   UNL     1      -4.858   6.868 129.935  0.00  0.00    +0.000 NA
ATOM     20  H   UNL     1      -3.885   6.957 129.624  0.00  0.00    +0.000 HD
ATOM     21  H   UNL     1      -5.324   7.774 129.917  0.00  0.00    +0.000 HD
ENDBRANCH  16  19
ENDBRANCH   1  16
TORSDOF 2
ENDMDL
MODEL 6
REMARK VINA RESULT:      -5.8      7.711      9.336
REMARK  Name = Hydrochlorothiazide
REMARK  2 active torsions:
REMARK  status: ('A' for Active; 'I' for Inactive)
REMARK    1  A    between atoms: N_1  and  S_2
REMARK    2  A    between atoms: S_2  and  C_5
REMARK                            x       y       z     vdW  Elec       q    Type
REMARK                         _______ _______ _______ _____ _____    ______ ____
ROOT
ATOM      1  C   UNL     1      -7.742  -0.718 124.827  0.00  0.00    +0.000 A 
ATOM      2  C   UNL     1      -6.522  -0.801 125.499  0.00  0.00    +0.000 A 
ATOM      3 CL   UNL     1      -5.815  -2.253 126.102  0.00  0.00    +0.000 Cl
ATOM      4  C   UNL     1      -5.764   0.368 125.717  0.00  0.00    +0.000 A 
ATOM      5  C   UNL     1      -6.203   1.629 125.298  0.00  0.00    +0.000 A 
ATOM      6  N   UNL     1      -5.382   2.739 125.451  0.00  0.00    +0.000 N 
ATOM      7  C   UNL     1      -5.973   4.050 125.465  0.00  0.00    +0.000 C 
ATOM      8  N   UNL     1      -6.643   4.211 124.202  0.00  0.00    +0.000 NA
ATOM      9  S   UNL     1      -8.018   3.260 124.099  0.00  0.00    +0.000 S 
ATOM     10  O   UNL     1      -8.971   3.722 125.080  0.00  0.00    +0.000 OA
ATOM     11  O   UNL     1      -8.345   3.149 122.693  0.00  0.00    +0.000 OA
ATOM     12  C   UNL     1      -7.435   1.686 124.646  0.00  0.00    +0.000 A 
ATOM     13  C   UNL     1      -8.195   0.539 124.381  0.00  0.00    +0.000 A 
ATOM     14  H   UNL     1      -4.522   2.632 125.979  0.00  0.00    +0.000 HD
ATOM     15  H   UNL     1      -6.035   4.062 123.401  0.00  0.00    +0.000 HD
ENDROOT
BRANCH   1  16
ATOM     16  S   UNL     1      -8.750  -2.117 124.407  0.00  0.00    +0.000 S 
ATOM     17  O   UNL     1      -9.677  -2.452 125.462  0.00  0.00    +0.000 OA
ATOM     18  O   UNL     1      -7.897  -3.109 123.803  0.00  0.00    +0.000 OA
BRANCH  16  19
ATOM     19  N   UNL     1      -9.710  -1.519 123.155  0.00  0.00    +0.000 NA
ATOM     20  H   UNL     1      -9.398  -1.955 122.281  0.00  0.00    +0.000 HD
ATOM     21  H   UNL     1      -9.674  -0.503 123.082  0.00  0.00    +0.000 HD
ENDBRANCH  16  19
ENDBRANCH   1  16
TORSDOF 2
ENDMDL
MODEL 7
REMARK VINA RESULT:      -5.7      8.277      9.234
REMARK  Name = Hydrochlorothiazide
REMARK  2 active torsions:
REMARK  status: ('A' for Active; 'I' for Inactive)
REMARK    1  A    between atoms: N_1  and  S_2
REMARK    2  A    between atoms: S_2  and  C_5
REMARK                            x       y       z     vdW  Elec       q    Type
REMARK                         _______ _______ _______ _____ _____    ______ ____
ROOT
ATOM      1  C   UNL     1      -7.177   1.309 125.362  0.00  0.00    +0.000 A 
ATOM      2  C   UNL     1      -5.900   1.032 125.852  0.00  0.00    +0.000 A 
ATOM      3 CL   UNL     1      -4.865   2.168 126.632  0.00  0.00    +0.000 Cl
ATOM      4  C   UNL     1      -5.376  -0.272 125.735  0.00  0.00    +0.000 A 
ATOM      5  C   UNL     1      -6.087  -1.308 125.119  0.00  0.00    +0.000 A 
ATOM      6  N   UNL     1      -5.569  -2.597 125.109  0.00  0.00    +0.000 N 
ATOM      7  C   UNL     1      -6.034  -3.530 124.116  0.00  0.00    +0.000 C 
ATOM      8  N   UNL     1      -7.453  -3.662 124.310  0.00  0.00    +0.000 NA
ATOM      9  S   UNL     1      -8.280  -2.282 123.840  0.00  0.00    +0.000 S 
ATOM     10  O   UNL     1      -8.119  -2.114 122.416  0.00  0.00    +0.000 OA
ATOM     11  O   UNL     1      -9.580  -2.338 124.473  0.00  0.00    +0.000 OA
ATOM     12  C   UNL     1      -7.352  -0.999 124.620  0.00  0.00    +0.000 A 
ATOM     13  C   UNL     1      -7.916   0.277 124.753  0.00  0.00    +0.000 A 
ATOM     14  H   UNL     1      -4.623  -2.739 125.445  0.00  0.00    +0.000 HD
ATOM     15  H   UNL     1      -7.708  -3.935 125.256  0.00  0.00    +0.000 HD
ENDROOT
BRANCH   1  16
ATOM     16  S   UNL     1      -7.991   2.877 125.524  0.00  0.00    +0.000 S 
ATOM     17  O   UNL     1      -7.331   3.912 124.762  0.00  0.00    +0.000 OA
ATOM     18  O   UNL     1      -8.328   3.057 126.913  0.00  0.00    +0.000 OA
BRANCH  16  19
ATOM     19  N   UNL     1      -9.457   2.617 124.730  0.00  0.00    +0.000 NA
ATOM     20  H   UNL     1      -9.731   3.495 124.275  0.00  0.00    +0.000 HD
ATOM     21  H   UNL     1     -10.192   2.293 125.356  0.00  0.00    +0.000 HD
ENDBRANCH  16  19
ENDBRANCH   1  16
TORSDOF 2
ENDMDL
MODEL 8
REMARK VINA RESULT:      -5.5      8.725     10.256
REMARK  Name = Hydrochlorothiazide
REMARK  2 active torsions:
REMARK  status: ('A' for Active; 'I' for Inactive)
REMARK    1  A    between atoms: N_1  and  S_2
REMARK    2  A    between atoms: S_2  and  C_5
REMARK                            x       y       z     vdW  Elec       q    Type
REMARK                         _______ _______ _______ _____ _____    ______ ____
ROOT
ATOM      1  C   UNL     1      -6.942  -1.546 127.423  0.00  0.00    +0.000 A 
ATOM      2  C   UNL     1      -7.683  -2.662 127.814  0.00  0.00    +0.000 A 
ATOM      3 CL   UNL     1      -7.619  -3.406 129.367  0.00  0.00    +0.000 Cl
ATOM      4  C   UNL     1      -8.580  -3.259 126.903  0.00  0.00    +0.000 A 
ATOM      5  C   UNL     1      -8.743  -2.780 125.597  0.00  0.00    +0.000 A 
ATOM      6  N   UNL     1      -9.704  -3.341 124.765  0.00  0.00    +0.000 N 
ATOM      7  C   UNL     1      -9.567  -3.194 123.340  0.00  0.00    +0.000 C 
ATOM      8  N   UNL     1      -9.570  -1.781 123.072  0.00  0.00    +0.000 NA
ATOM      9  S   UNL     1      -8.158  -1.044 123.589  0.00  0.00    +0.000 S 
ATOM     10  O   UNL     1      -7.058  -1.562 122.811  0.00  0.00    +0.000 OA
ATOM     11  O   UNL     1      -8.438   0.372 123.688  0.00  0.00    +0.000 OA
ATOM     12  C   UNL     1      -7.975  -1.676 125.227  0.00  0.00    +0.000 A 
ATOM     13  C   UNL     1      -7.103  -1.039 126.120  0.00  0.00    +0.000 A 
ATOM     14  H   UNL     1     -10.190  -4.173 125.083  0.00  0.00    +0.000 HD
ATOM     15  H   UNL     1     -10.388  -1.302 123.441  0.00  0.00    +0.000 HD
ENDROOT
BRANCH   1  16
ATOM     16  S   UNL     1      -5.851  -0.647 128.493  0.00  0.00    +0.000 S 
ATOM     17  O   UNL     1      -6.405  -0.481 129.817  0.00  0.00    +0.000 OA
ATOM     18  O   UNL     1      -5.323   0.468 127.749  0.00  0.00    +0.000 OA
BRANCH  16  19
ATOM     19  N   UNL     1      -4.560  -1.716 128.691  0.00  0.00    +0.000 NA
ATOM     20  H   UNL     1      -3.715  -1.261 128.330  0.00  0.00    +0.000 HD
ATOM     21  H   UNL     1      -4.714  -2.608 128.224  0.00  0.00    +0.000 HD
ENDBRANCH  16  19
ENDBRANCH   1  16
TORSDOF 2
ENDMDL
MODEL 9
REMARK VINA RESULT:      -5.4      4.734      5.544
REMARK  Name = Hydrochlorothiazide
REMARK  2 active torsions:
REMARK  status: ('A' for Active; 'I' for Inactive)
REMARK    1  A    between atoms: N_1  and  S_2
REMARK    2  A    between atoms: S_2  and  C_5
REMARK                            x       y       z     vdW  Elec       q    Type
REMARK                         _______ _______ _______ _____ _____    ______ ____
ROOT
ATOM      1  C   UNL     1      -7.395   6.230 131.861  0.00  0.00    +0.000 A 
ATOM      2  C   UNL     1      -6.883   5.786 133.081  0.00  0.00    +0.000 A 
ATOM      3 CL   UNL     1      -7.816   5.132 134.374  0.00  0.00    +0.000 Cl
ATOM      4  C   UNL     1      -5.494   5.847 133.318  0.00  0.00    +0.000 A 
ATOM      5  C   UNL     1      -4.599   6.360 132.372  0.00  0.00    +0.000 A 
ATOM      6  N   UNL     1      -3.231   6.315 132.612  0.00  0.00    +0.000 N 
ATOM      7  C   UNL     1      -2.367   7.222 131.905  0.00  0.00    +0.000 C 
ATOM      8  N   UNL     1      -2.544   6.951 130.504  0.00  0.00    +0.000 NA
ATOM      9  S   UNL     1      -4.040   7.465 129.952  0.00  0.00    +0.000 S 
ATOM     10  O   UNL     1      -4.097   8.904 130.056  0.00  0.00    +0.000 OA
ATOM     11  O   UNL     1      -4.289   6.767 128.709  0.00  0.00    +0.000 OA
ATOM     12  C   UNL     1      -5.140   6.815 131.170  0.00  0.00    +0.000 A 
ATOM     13  C   UNL     1      -6.511   6.735 130.889  0.00  0.00    +0.000 A 
ATOM     14  H   UNL     1      -2.912   6.017 133.528  0.00  0.00    +0.000 HD
ATOM     15  H   UNL     1      -2.380   5.978 130.257  0.00  0.00    +0.000 HD
ENDROOT
BRANCH   1  16
ATOM     16  S   UNL     1      -9.105   6.127 131.398  0.00  0.00    +0.000 S 
ATOM     17  O   UNL     1      -9.978   6.622 132.437  0.00  0.00    +0.000 OA
ATOM     18  O   UNL     1      -9.317   4.844 130.777  0.00  0.00    +0.000 OA
BRANCH  16  19
ATOM     19  N   UNL     1      -9.221   7.260 130.154  0.00  0.00    +0.000 NA
ATOM     20  H   UNL     1      -8.649   6.929 129.370  0.00  0.00    +0.000 HD
ATOM     21  H   UNL     1      -8.928   8.193 130.442  0.00  0.00    +0.000 HD
ENDBRANCH  16  19
ENDBRANCH   1  16
TORSDOF 2
ENDMDL
