MODEL 1
REMARK VINA RESULT:      -3.5      0.000      0.000
REMARK  Name = Hydroxyurea
REMARK  1 active torsions:
REMARK  status: ('A' for Active; 'I' for Inactive)
REMARK    1  A    between atoms: N_4  and  O_5
REMARK                            x       y       z     vdW  Elec       q    Type
REMARK                         _______ _______ _______ _____ _____    ______ ____
ROOT
ATOM      1  N   UNL     1     -13.887  12.888 130.723  0.00  0.00    +0.000 N 
ATOM      2  C   UNL     1     -13.582  11.637 130.305  0.00  0.00    +0.000 C 
ATOM      3  O   UNL     1     -13.142  10.787 131.070  0.00  0.00    +0.000 OA
ATOM      4  N   UNL     1     -13.806  11.413 128.983  0.00  0.00    +0.000 N 
ATOM      5  H   UNL     1     -13.739  13.103 131.700  0.00  0.00    +0.000 HD
ATOM      6  H   UNL     1     -14.251  13.608 130.118  0.00  0.00    +0.000 HD
ATOM      7  H   UNL     1     -14.168  12.096 128.334  0.00  0.00    +0.000 HD
ENDROOT
BRANCH   4   8
ATOM      8  O   UNL     1     -13.512  10.130 128.472  0.00  0.00    +0.000 OA
ATOM      9  H   UNL     1     -13.550   9.569 129.276  0.00  0.00    +0.000 HD
ENDBRANCH   4   8
TORSDOF 1
ENDMDL
MODEL 2
REMARK VINA RESULT:      -3.4     14.162     14.373
REMARK  Name = Hydroxyurea
REMARK  1 active torsions:
REMARK  status: ('A' for Active; 'I' for Inactive)
REMARK    1  A    between atoms: N_4  and  O_5
REMARK                            x       y       z     vdW  Elec       q    Type
REMARK                         _______ _______ _______ _____ _____    ______ ____
ROOT
ATOM      1  N   UNL     1      -5.724   5.788 118.451  0.00  0.00    +0.000 N 
ATOM      2  C   UNL     1      -5.382   5.466 119.721  0.00  0.00    +0.000 C 
ATOM      3  O   UNL     1      -4.651   6.181 120.397  0.00  0.00    +0.000 OA
ATOM      4  N   UNL     1      -5.916   4.299 120.171  0.00  0.00    +0.000 N 
ATOM      5  H   UNL     1      -5.352   6.648 118.072  0.00  0.00    +0.000 HD
ATOM      6  H   UNL     1      -6.323   5.221 117.872  0.00  0.00    +0.000 HD
ATOM      7  H   UNL     1      -6.520   3.695 119.634  0.00  0.00    +0.000 HD
ENDROOT
BRANCH   4   8
ATOM      8  O   UNL     1      -5.604   3.896 121.488  0.00  0.00    +0.000 OA
ATOM      9  H   UNL     1      -6.471   3.974 121.942  0.00  0.00    +0.000 HD
ENDBRANCH   4   8
TORSDOF 1
ENDMDL
MODEL 3
REMARK VINA RESULT:      -3.3      1.320      2.396
REMARK  Name = Hydroxyurea
REMARK  1 active torsions:
REMARK  status: ('A' for Active; 'I' for Inactive)
REMARK    1  A    between atoms: N_4  and  O_5
REMARK                            x       y       z     vdW  Elec       q    Type
REMARK                         _______ _______ _______ _____ _____    ______ ____
ROOT
ATOM      1  N   UNL     1     -13.632  10.576 128.814  0.00  0.00    +0.000 N 
ATOM      2  C   UNL     1     -13.526  11.249 129.984  0.00  0.00    +0.000 C 
ATOM      3  O   UNL     1     -13.135  10.708 131.011  0.00  0.00    +0.000 OA
ATOM      4  N   UNL     1     -13.887  12.559 129.916  0.00  0.00    +0.000 N 
ATOM      5  H   UNL     1     -13.374   9.598 128.814  0.00  0.00    +0.000 HD
ATOM      6  H   UNL     1     -13.950  10.993 127.954  0.00  0.00    +0.000 HD
ATOM      7  H   UNL     1     -14.212  13.026 129.082  0.00  0.00    +0.000 HD
ENDROOT
BRANCH   4   8
ATOM      8  O   UNL     1     -13.804  13.328 131.097  0.00  0.00    +0.000 OA
ATOM      9  H   UNL     1     -13.587  14.221 130.751  0.00  0.00    +0.000 HD
ENDBRANCH   4   8
TORSDOF 1
ENDMDL
MODEL 4
REMARK VINA RESULT:      -3.2      4.304      4.805
REMARK  Name = Hydroxyurea
REMARK  1 active torsions:
REMARK  status: ('A' for Active; 'I' for Inactive)
REMARK    1  A    between atoms: N_4  and  O_5
REMARK                            x       y       z     vdW  Elec       q    Type
REMARK                         _______ _______ _______ _____ _____    ______ ____
ROOT
ATOM      1  N   UNL     1     -12.214   9.119 128.469  0.00  0.00    +0.000 N 
ATOM      2  C   UNL     1     -11.299   8.323 127.867  0.00  0.00    +0.000 C 
ATOM      3  O   UNL     1     -10.107   8.378 128.146  0.00  0.00    +0.000 OA
ATOM      4  N   UNL     1     -11.814   7.470 126.941  0.00  0.00    +0.000 N 
ATOM      5  H   UNL     1     -11.878   9.770 129.166  0.00  0.00    +0.000 HD
ATOM      6  H   UNL     1     -13.199   9.096 128.261  0.00  0.00    +0.000 HD
ATOM      7  H   UNL     1     -12.791   7.407 126.695  0.00  0.00    +0.000 HD
ENDROOT
BRANCH   4   8
ATOM      8  O   UNL     1     -10.921   6.607 126.270  0.00  0.00    +0.000 OA
ATOM      9  H   UNL     1     -10.980   6.924 125.343  0.00  0.00    +0.000 HD
ENDBRANCH   4   8
TORSDOF 1
ENDMDL
MODEL 5
REMARK VINA RESULT:      -3.2     14.094     14.384
REMARK  Name = Hydroxyurea
REMARK  1 active torsions:
REMARK  status: ('A' for Active; 'I' for Inactive)
REMARK    1  A    between atoms: N_4  and  O_5
REMARK                            x       y       z     vdW  Elec       q    Type
REMARK                         _______ _______ _______ _____ _____    ______ ____
ROOT
ATOM      1  N   UNL     1      -6.206   3.565 120.413  0.00  0.00    +0.000 N 
ATOM      2  C   UNL     1      -5.539   4.726 120.212  0.00  0.00    +0.000 C 
ATOM      3  O   UNL     1      -5.665   5.377 119.182  0.00  0.00    +0.000 OA
ATOM      4  N   UNL     1      -4.732   5.098 121.241  0.00  0.00    +0.000 N 
ATOM      5  H   UNL     1      -6.820   3.247 119.675  0.00  0.00    +0.000 HD
ATOM      6  H   UNL     1      -6.124   3.008 121.249  0.00  0.00    +0.000 HD
ATOM      7  H   UNL     1      -4.613   4.579 122.099  0.00  0.00    +0.000 HD
ENDROOT
BRANCH   4   8
ATOM      8  O   UNL     1      -4.003   6.299 121.107  0.00  0.00    +0.000 OA
ATOM      9  H   UNL     1      -3.146   5.985 120.746  0.00  0.00    +0.000 HD
ENDBRANCH   4   8
TORSDOF 1
ENDMDL
MODEL 6
REMARK VINA RESULT:      -3.0      5.825      5.842
REMARK  Name = Hydroxyurea
REMARK  1 active torsions:
REMARK  status: ('A' for Active; 'I' for Inactive)
REMARK    1  A    between atoms: N_4  and  O_5
REMARK                            x       y       z     vdW  Elec       q    Type
REMARK                         _______ _______ _______ _____ _____    ______ ____
ROOT
ATOM      1  N   UNL     1     -10.942   6.078 132.568  0.00  0.00    +0.000 N 
ATOM      2  C   UNL     1     -11.776   6.246 131.514  0.00  0.00    +0.000 C 
ATOM      3  O   UNL     1     -12.795   6.921 131.595  0.00  0.00    +0.000 OA
ATOM      4  N   UNL     1     -11.386   5.609 130.378  0.00  0.00    +0.000 N 
ATOM      5  H   UNL     1     -11.190   6.534 133.436  0.00  0.00    +0.000 HD
ATOM      6  H   UNL     1     -10.098   5.529 132.532  0.00  0.00    +0.000 HD
ATOM      7  H   UNL     1     -10.551   5.048 130.288  0.00  0.00    +0.000 HD
ENDROOT
BRANCH   4   8
ATOM      8  O   UNL     1     -12.204   5.737 129.235  0.00  0.00    +0.000 OA
ATOM      9  H   UNL     1     -13.073   5.973 129.625  0.00  0.00    +0.000 HD
ENDBRANCH   4   8
TORSDOF 1
ENDMDL
MODEL 7
REMARK VINA RESULT:      -3.0      4.820      5.483
REMARK  Name = Hydroxyurea
REMARK  1 active torsions:
REMARK  status: ('A' for Active; 'I' for Inactive)
REMARK    1  A    between atoms: N_4  and  O_5
REMARK                            x       y       z     vdW  Elec       q    Type
REMARK                         _______ _______ _______ _____ _____    ______ ____
ROOT
ATOM      1  N   UNL     1     -11.706   8.951 128.293  0.00  0.00    +0.000 N 
ATOM      2  C   UNL     1     -10.967   8.083 127.563  0.00  0.00    +0.000 C 
ATOM      3  O   UNL     1     -10.854   8.189 126.347  0.00  0.00    +0.000 OA
ATOM      4  N   UNL     1     -10.369   7.101 128.288  0.00  0.00    +0.000 N 
ATOM      5  H   UNL     1     -12.169   9.701 127.797  0.00  0.00    +0.000 HD
ATOM      6  H   UNL     1     -11.816   8.890 129.292  0.00  0.00    +0.000 HD
ATOM      7  H   UNL     1     -10.447   6.994 129.289  0.00  0.00    +0.000 HD
ENDROOT
BRANCH   4   8
ATOM      8  O   UNL     1      -9.580   6.157 127.597  0.00  0.00    +0.000 OA
ATOM      9  H   UNL     1      -8.851   6.710 127.243  0.00  0.00    +0.000 HD
ENDBRANCH   4   8
TORSDOF 1
ENDMDL
MODEL 8
REMARK VINA RESULT:      -2.9      6.576      7.062
REMARK  Name = Hydroxyurea
REMARK  1 active torsions:
REMARK  status: ('A' for Active; 'I' for Inactive)
REMARK    1  A    between atoms: N_4  and  O_5
REMARK                            x       y       z     vdW  Elec       q    Type
REMARK                         _______ _______ _______ _____ _____    ______ ____
ROOT
ATOM      1  N   UNL     1     -11.609   5.626 131.220  0.00  0.00    +0.000 N 
ATOM      2  C   UNL     1     -10.518   6.161 131.817  0.00  0.00    +0.000 C 
ATOM      3  O   UNL     1      -9.810   6.987 131.253  0.00  0.00    +0.000 OA
ATOM      4  N   UNL     1     -10.284   5.708 133.077  0.00  0.00    +0.000 N 
ATOM      5  H   UNL     1     -11.825   5.934 130.281  0.00  0.00    +0.000 HD
ATOM      6  H   UNL     1     -12.210   4.946 131.658  0.00  0.00    +0.000 HD
ATOM      7  H   UNL     1     -10.853   5.029 133.561  0.00  0.00    +0.000 HD
ENDROOT
BRANCH   4   8
ATOM      8  O   UNL     1      -9.163   6.220 133.765  0.00  0.00    +0.000 OA
ATOM      9  H   UNL     1      -8.752   5.408 134.132  0.00  0.00    +0.000 HD
ENDBRANCH   4   8
TORSDOF 1
ENDMDL
MODEL 9
REMARK VINA RESULT:      -2.9      4.021      4.769
REMARK  Name = Hydroxyurea
REMARK  1 active torsions:
REMARK  status: ('A' for Active; 'I' for Inactive)
REMARK    1  A    between atoms: N_4  and  O_5
REMARK                            x       y       z     vdW  Elec       q    Type
REMARK                         _______ _______ _______ _____ _____    ______ ____
ROOT
ATOM      1  N   UNL     1     -10.917   7.579 126.533  0.00  0.00    +0.000 N 
ATOM      2  C   UNL     1     -10.999   8.316 127.666  0.00  0.00    +0.000 C 
ATOM      3  O   UNL     1     -10.020   8.531 128.372  0.00  0.00    +0.000 OA
ATOM      4  N   UNL     1     -12.243   8.788 127.944  0.00  0.00    +0.000 N 
ATOM      5  H   UNL     1     -10.011   7.206 126.284  0.00  0.00    +0.000 HD
ATOM      6  H   UNL     1     -11.703   7.385 125.933  0.00  0.00    +0.000 HD
ATOM      7  H   UNL     1     -13.063   8.624 127.378  0.00  0.00    +0.000 HD
ENDROOT
BRANCH   4   8
ATOM      8  O   UNL     1     -12.408   9.566 129.110  0.00  0.00    +0.000 OA
ATOM      9  H   UNL     1     -13.189  10.118 128.886  0.00  0.00    +0.000 HD
ENDBRANCH   4   8
TORSDOF 1
ENDMDL
