MODEL 1
REMARK VINA RESULT:      -6.1      0.000      0.000
REMARK  Name = Hydralazine
REMARK  1 active torsions:
REMARK  status: ('A' for Active; 'I' for Inactive)
REMARK    1  A    between atoms: N_1  and  N_2
REMARK                            x       y       z     vdW  Elec       q    Type
REMARK                         _______ _______ _______ _____ _____    ______ ____
ROOT
ATOM      1  N   UNL     1      -9.598   5.205 130.550  0.00  0.00    +0.000 N 
ATOM      2  C   UNL     1     -10.034   5.902 129.388  0.00  0.00    +0.000 A 
ATOM      3  N   UNL     1      -9.382   5.629 128.229  0.00  0.00    +0.000 NA
ATOM      4  N   UNL     1      -9.649   6.334 127.085  0.00  0.00    +0.000 NA
ATOM      5  C   UNL     1     -10.556   7.331 127.120  0.00  0.00    +0.000 A 
ATOM      6  C   UNL     1     -11.281   7.649 128.265  0.00  0.00    +0.000 A 
ATOM      7  C   UNL     1     -12.225   8.699 128.285  0.00  0.00    +0.000 A 
ATOM      8  C   UNL     1     -12.943   8.987 129.448  0.00  0.00    +0.000 A 
ATOM      9  C   UNL     1     -12.709   8.261 130.603  0.00  0.00    +0.000 A 
ATOM     10  C   UNL     1     -11.749   7.254 130.599  0.00  0.00    +0.000 A 
ATOM     11  C   UNL     1     -11.029   6.906 129.432  0.00  0.00    +0.000 A 
ATOM     12  H   UNL     1      -8.801   4.625 130.280  0.00  0.00    +0.000 HD
ENDROOT
BRANCH   1  13
ATOM     13  N   UNL     1     -10.550   4.632 131.428  0.00  0.00    +0.000 NA
ATOM     14  H   UNL     1     -10.975   3.797 131.022  0.00  0.00    +0.000 HD
ATOM     15  H   UNL     1     -11.301   5.285 131.664  0.00  0.00    +0.000 HD
ENDBRANCH   1  13
TORSDOF 1
ENDMDL
MODEL 2
REMARK VINA RESULT:      -5.7      1.666      3.148
REMARK  Name = Hydralazine
REMARK  1 active torsions:
REMARK  status: ('A' for Active; 'I' for Inactive)
REMARK    1  A    between atoms: N_1  and  N_2
REMARK                            x       y       z     vdW  Elec       q    Type
REMARK                         _______ _______ _______ _____ _____    ______ ____
ROOT
ATOM      1  N   UNL     1     -10.723   4.896 131.303  0.00  0.00    +0.000 N 
ATOM      2  C   UNL     1     -11.400   6.121 131.046  0.00  0.00    +0.000 A 
ATOM      3  N   UNL     1     -12.283   6.544 131.987  0.00  0.00    +0.000 NA
ATOM      4  N   UNL     1     -13.068   7.646 131.775  0.00  0.00    +0.000 NA
ATOM      5  C   UNL     1     -12.979   8.305 130.603  0.00  0.00    +0.000 A 
ATOM      6  C   UNL     1     -12.078   7.946 129.604  0.00  0.00    +0.000 A 
ATOM      7  C   UNL     1     -12.001   8.646 128.380  0.00  0.00    +0.000 A 
ATOM      8  C   UNL     1     -11.079   8.266 127.401  0.00  0.00    +0.000 A 
ATOM      9  C   UNL     1     -10.255   7.174 127.614  0.00  0.00    +0.000 A 
ATOM     10  C   UNL     1     -10.359   6.455 128.801  0.00  0.00    +0.000 A 
ATOM     11  C   UNL     1     -11.251   6.832 129.832  0.00  0.00    +0.000 A 
ATOM     12  H   UNL     1     -11.084   4.525 132.185  0.00  0.00    +0.000 HD
ENDROOT
BRANCH   1  13
ATOM     13  N   UNL     1      -9.329   4.800 131.080  0.00  0.00    +0.000 NA
ATOM     14  H   UNL     1      -9.124   4.322 130.201  0.00  0.00    +0.000 HD
ATOM     15  H   UNL     1      -8.850   4.298 131.831  0.00  0.00    +0.000 HD
ENDBRANCH   1  13
TORSDOF 1
ENDMDL
MODEL 3
REMARK VINA RESULT:      -5.6      2.276      3.634
REMARK  Name = Hydralazine
REMARK  1 active torsions:
REMARK  status: ('A' for Active; 'I' for Inactive)
REMARK    1  A    between atoms: N_1  and  N_2
REMARK                            x       y       z     vdW  Elec       q    Type
REMARK                         _______ _______ _______ _____ _____    ______ ____
ROOT
ATOM      1  N   UNL     1     -10.464   7.163 126.591  0.00  0.00    +0.000 N 
ATOM      2  C   UNL     1     -11.435   7.091 127.629  0.00  0.00    +0.000 A 
ATOM      3  N   UNL     1     -12.717   7.386 127.293  0.00  0.00    +0.000 NA
ATOM      4  N   UNL     1     -13.699   7.460 128.244  0.00  0.00    +0.000 NA
ATOM      5  C   UNL     1     -13.381   7.261 129.539  0.00  0.00    +0.000 A 
ATOM      6  C   UNL     1     -12.094   6.928 129.955  0.00  0.00    +0.000 A 
ATOM      7  C   UNL     1     -11.777   6.726 131.316  0.00  0.00    +0.000 A 
ATOM      8  C   UNL     1     -10.479   6.384 131.700  0.00  0.00    +0.000 A 
ATOM      9  C   UNL     1      -9.482   6.273 130.746  0.00  0.00    +0.000 A 
ATOM     10  C   UNL     1      -9.781   6.513 129.409  0.00  0.00    +0.000 A 
ATOM     11  C   UNL     1     -11.092   6.823 128.975  0.00  0.00    +0.000 A 
ATOM     12  H   UNL     1     -10.942   7.482 125.746  0.00  0.00    +0.000 HD
ENDROOT
BRANCH   1  13
ATOM     13  N   UNL     1      -9.509   6.129 126.446  0.00  0.00    +0.000 NA
ATOM     14  H   UNL     1      -8.589   6.423 126.781  0.00  0.00    +0.000 HD
ATOM     15  H   UNL     1      -9.409   5.828 125.475  0.00  0.00    +0.000 HD
ENDBRANCH   1  13
TORSDOF 1
ENDMDL
MODEL 4
REMARK VINA RESULT:      -5.5     10.587     11.080
REMARK  Name = Hydralazine
REMARK  1 active torsions:
REMARK  status: ('A' for Active; 'I' for Inactive)
REMARK    1  A    between atoms: N_1  and  N_2
REMARK                            x       y       z     vdW  Elec       q    Type
REMARK                         _______ _______ _______ _____ _____    ______ ____
ROOT
ATOM      1  N   UNL     1      -8.410  -3.233 123.782  0.00  0.00    +0.000 N 
ATOM      2  C   UNL     1      -7.601  -2.620 124.779  0.00  0.00    +0.000 A 
ATOM      3  N   UNL     1      -6.558  -1.867 124.345  0.00  0.00    +0.000 NA
ATOM      4  N   UNL     1      -5.655  -1.335 125.227  0.00  0.00    +0.000 NA
ATOM      5  C   UNL     1      -5.790  -1.587 126.544  0.00  0.00    +0.000 A 
ATOM      6  C   UNL     1      -6.849  -2.328 127.064  0.00  0.00    +0.000 A 
ATOM      7  C   UNL     1      -6.974  -2.585 128.446  0.00  0.00    +0.000 A 
ATOM      8  C   UNL     1      -8.053  -3.325 128.937  0.00  0.00    +0.000 A 
ATOM      9  C   UNL     1      -8.993  -3.841 128.061  0.00  0.00    +0.000 A 
ATOM     10  C   UNL     1      -8.849  -3.626 126.694  0.00  0.00    +0.000 A 
ATOM     11  C   UNL     1      -7.793  -2.849 126.162  0.00  0.00    +0.000 A 
ATOM     12  H   UNL     1      -8.002  -3.007 122.873  0.00  0.00    +0.000 HD
ENDROOT
BRANCH   1  13
ATOM     13  N   UNL     1      -9.820  -3.186 123.890  0.00  0.00    +0.000 NA
ATOM     14  H   UNL     1     -10.152  -2.228 124.018  0.00  0.00    +0.000 HD
ATOM     15  H   UNL     1     -10.168  -3.746 124.672  0.00  0.00    +0.000 HD
ENDBRANCH   1  13
TORSDOF 1
ENDMDL
MODEL 5
REMARK VINA RESULT:      -5.3      3.746      5.211
REMARK  Name = Hydralazine
REMARK  1 active torsions:
REMARK  status: ('A' for Active; 'I' for Inactive)
REMARK    1  A    between atoms: N_1  and  N_2
REMARK                            x       y       z     vdW  Elec       q    Type
REMARK                         _______ _______ _______ _____ _____    ______ ____
ROOT
ATOM      1  N   UNL     1     -10.876   6.138 130.902  0.00  0.00    +0.000 N 
ATOM      2  C   UNL     1      -9.503   6.363 131.203  0.00  0.00    +0.000 A 
ATOM      3  N   UNL     1      -8.826   7.208 130.385  0.00  0.00    +0.000 NA
ATOM      4  N   UNL     1      -7.475   7.395 130.522  0.00  0.00    +0.000 NA
ATOM      5  C   UNL     1      -6.806   6.708 131.469  0.00  0.00    +0.000 A 
ATOM      6  C   UNL     1      -7.439   5.844 132.360  0.00  0.00    +0.000 A 
ATOM      7  C   UNL     1      -6.722   5.129 133.344  0.00  0.00    +0.000 A 
ATOM      8  C   UNL     1      -7.387   4.277 134.230  0.00  0.00    +0.000 A 
ATOM      9  C   UNL     1      -8.756   4.104 134.125  0.00  0.00    +0.000 A 
ATOM     10  C   UNL     1      -9.460   4.774 133.129  0.00  0.00    +0.000 A 
ATOM     11  C   UNL     1      -8.829   5.675 132.239  0.00  0.00    +0.000 A 
ATOM     12  H   UNL     1     -11.092   6.659 130.049  0.00  0.00    +0.000 HD
ENDROOT
BRANCH   1  13
ATOM     13  N   UNL     1     -11.838   6.161 131.939  0.00  0.00    +0.000 NA
ATOM     14  H   UNL     1     -11.483   6.642 132.767  0.00  0.00    +0.000 HD
ATOM     15  H   UNL     1     -12.127   5.221 132.220  0.00  0.00    +0.000 HD
ENDBRANCH   1  13
TORSDOF 1
ENDMDL
MODEL 6
REMARK VINA RESULT:      -5.3      9.866     11.065
REMARK  Name = Hydralazine
REMARK  1 active torsions:
REMARK  status: ('A' for Active; 'I' for Inactive)
REMARK    1  A    between atoms: N_1  and  N_2
REMARK                            x       y       z     vdW  Elec       q    Type
REMARK                         _______ _______ _______ _____ _____    ______ ____
ROOT
ATOM      1  N   UNL     1      -8.515  -2.553 126.973  0.00  0.00    +0.000 N 
ATOM      2  C   UNL     1      -8.446  -1.925 125.697  0.00  0.00    +0.000 A 
ATOM      3  N   UNL     1      -9.506  -1.159 125.333  0.00  0.00    +0.000 NA
ATOM      4  N   UNL     1      -9.585  -0.612 124.079  0.00  0.00    +0.000 NA
ATOM      5  C   UNL     1      -8.607  -0.862 123.187  0.00  0.00    +0.000 A 
ATOM      6  C   UNL     1      -7.478  -1.615 123.498  0.00  0.00    +0.000 A 
ATOM      7  C   UNL     1      -6.464  -1.870 122.550  0.00  0.00    +0.000 A 
ATOM      8  C   UNL     1      -5.339  -2.623 122.897  0.00  0.00    +0.000 A 
ATOM      9  C   UNL     1      -5.229  -3.154 124.170  0.00  0.00    +0.000 A 
ATOM     10  C   UNL     1      -6.247  -2.942 125.094  0.00  0.00    +0.000 A 
ATOM     11  C   UNL     1      -7.382  -2.152 124.794  0.00  0.00    +0.000 A 
ATOM     12  H   UNL     1      -9.424  -2.324 127.380  0.00  0.00    +0.000 HD
ENDROOT
BRANCH   1  13
ATOM     13  N   UNL     1      -7.392  -2.524 127.834  0.00  0.00    +0.000 NA
ATOM     14  H   UNL     1      -6.822  -1.692 127.676  0.00  0.00    +0.000 HD
ATOM     15  H   UNL     1      -6.793  -3.344 127.717  0.00  0.00    +0.000 HD
ENDBRANCH   1  13
TORSDOF 1
ENDMDL
MODEL 7
REMARK VINA RESULT:      -5.2     10.324     10.605
REMARK  Name = Hydralazine
REMARK  1 active torsions:
REMARK  status: ('A' for Active; 'I' for Inactive)
REMARK    1  A    between atoms: N_1  and  N_2
REMARK                            x       y       z     vdW  Elec       q    Type
REMARK                         _______ _______ _______ _____ _____    ______ ____
ROOT
ATOM      1  N   UNL     1      -4.838  -0.896 127.955  0.00  0.00    +0.000 N 
ATOM      2  C   UNL     1      -5.692  -1.486 126.982  0.00  0.00    +0.000 A 
ATOM      3  N   UNL     1      -5.471  -1.149 125.686  0.00  0.00    +0.000 NA
ATOM      4  N   UNL     1      -6.313  -1.571 124.691  0.00  0.00    +0.000 NA
ATOM      5  C   UNL     1      -7.393  -2.312 125.010  0.00  0.00    +0.000 A 
ATOM      6  C   UNL     1      -7.668  -2.718 126.314  0.00  0.00    +0.000 A 
ATOM      7  C   UNL     1      -8.806  -3.492 126.631  0.00  0.00    +0.000 A 
ATOM      8  C   UNL     1      -9.049  -3.891 127.948  0.00  0.00    +0.000 A 
ATOM      9  C   UNL     1      -8.188  -3.500 128.959  0.00  0.00    +0.000 A 
ATOM     10  C   UNL     1      -7.090  -2.702 128.656  0.00  0.00    +0.000 A 
ATOM     11  C   UNL     1      -6.788  -2.310 127.331  0.00  0.00    +0.000 A 
ATOM     12  H   UNL     1      -4.206  -0.259 127.464  0.00  0.00    +0.000 HD
ENDROOT
BRANCH   1  13
ATOM     13  N   UNL     1      -4.284  -1.694 128.984  0.00  0.00    +0.000 NA
ATOM     14  H   UNL     1      -4.776  -1.555 129.869  0.00  0.00    +0.000 HD
ATOM     15  H   UNL     1      -3.294  -1.493 129.140  0.00  0.00    +0.000 HD
ENDBRANCH   1  13
TORSDOF 1
ENDMDL
MODEL 8
REMARK VINA RESULT:      -5.1      2.510      4.491
REMARK  Name = Hydralazine
REMARK  1 active torsions:
REMARK  status: ('A' for Active; 'I' for Inactive)
REMARK    1  A    between atoms: N_1  and  N_2
REMARK                            x       y       z     vdW  Elec       q    Type
REMARK                         _______ _______ _______ _____ _____    ______ ____
ROOT
ATOM      1  N   UNL     1     -11.079   7.712 129.180  0.00  0.00    +0.000 N 
ATOM      2  C   UNL     1     -10.707   6.421 129.651  0.00  0.00    +0.000 A 
ATOM      3  N   UNL     1     -11.621   5.428 129.505  0.00  0.00    +0.000 NA
ATOM      4  N   UNL     1     -11.404   4.183 130.033  0.00  0.00    +0.000 NA
ATOM      5  C   UNL     1     -10.274   3.950 130.731  0.00  0.00    +0.000 A 
ATOM      6  C   UNL     1      -9.281   4.912 130.899  0.00  0.00    +0.000 A 
ATOM      7  C   UNL     1      -8.106   4.652 131.636  0.00  0.00    +0.000 A 
ATOM      8  C   UNL     1      -7.124   5.636 131.778  0.00  0.00    +0.000 A 
ATOM      9  C   UNL     1      -7.314   6.888 131.222  0.00  0.00    +0.000 A 
ATOM     10  C   UNL     1      -8.491   7.162 130.531  0.00  0.00    +0.000 A 
ATOM     11  C   UNL     1      -9.491   6.181 130.332  0.00  0.00    +0.000 A 
ATOM     12  H   UNL     1     -12.039   7.649 128.835  0.00  0.00    +0.000 HD
ENDROOT
BRANCH   1  13
ATOM     13  N   UNL     1     -10.163   8.474 128.415  0.00  0.00    +0.000 NA
ATOM     14  H   UNL     1      -9.327   7.933 128.188  0.00  0.00    +0.000 HD
ATOM     15  H   UNL     1      -9.867   9.323 128.900  0.00  0.00    +0.000 HD
ENDBRANCH   1  13
TORSDOF 1
ENDMDL
MODEL 9
REMARK VINA RESULT:      -5.1      4.356      5.876
REMARK  Name = Hydralazine
REMARK  1 active torsions:
REMARK  status: ('A' for Active; 'I' for Inactive)
REMARK    1  A    between atoms: N_1  and  N_2
REMARK                            x       y       z     vdW  Elec       q    Type
REMARK                         _______ _______ _______ _____ _____    ______ ____
ROOT
ATOM      1  N   UNL     1      -8.685   5.024 134.562  0.00  0.00    +0.000 N 
ATOM      2  C   UNL     1      -8.533   5.760 133.353  0.00  0.00    +0.000 A 
ATOM      3  N   UNL     1      -9.669   6.077 132.681  0.00  0.00    +0.000 NA
ATOM      4  N   UNL     1      -9.620   6.677 131.451  0.00  0.00    +0.000 NA
ATOM      5  C   UNL     1      -8.421   6.933 130.889  0.00  0.00    +0.000 A 
ATOM      6  C   UNL     1      -7.216   6.661 131.530  0.00  0.00    +0.000 A 
ATOM      7  C   UNL     1      -5.969   6.932 130.925  0.00  0.00    +0.000 A 
ATOM      8  C   UNL     1      -4.777   6.655 131.599  0.00  0.00    +0.000 A 
ATOM      9  C   UNL     1      -4.812   6.079 132.857  0.00  0.00    +0.000 A 
ATOM     10  C   UNL     1      -6.038   5.770 133.438  0.00  0.00    +0.000 A 
ATOM     11  C   UNL     1      -7.267   6.071 132.805  0.00  0.00    +0.000 A 
ATOM     12  H   UNL     1      -9.681   4.829 134.680  0.00  0.00    +0.000 HD
ENDROOT
BRANCH   1  13
ATOM     13  N   UNL     1      -7.956   5.404 135.714  0.00  0.00    +0.000 NA
ATOM     14  H   UNL     1      -7.175   4.769 135.887  0.00  0.00    +0.000 HD
ATOM     15  H   UNL     1      -8.540   5.421 136.553  0.00  0.00    +0.000 HD
ENDBRANCH   1  13
TORSDOF 1
ENDMDL
