MODEL 1
REMARK VINA RESULT:      -5.7      0.000      0.000
REMARK  Name = Hydroxyamphetamine
REMARK  5 active torsions:
REMARK  status: ('A' for Active; 'I' for Inactive)
REMARK    1  A    between atoms: C_1  and  C_2
REMARK    2  A    between atoms: C_2  and  N_3
REMARK    3  A    between atoms: C_2  and  C_4
REMARK    4  A    between atoms: C_4  and  C_5
REMARK    5  A    between atoms: C_8  and  O_9
REMARK                            x       y       z     vdW  Elec       q    Type
REMARK                         _______ _______ _______ _____ _____    ______ ____
ROOT
ATOM      1  C   UNL     1     -10.927   7.749 129.252  0.00  0.00    +0.000 A 
ATOM      2  C   UNL     1     -12.072   7.557 130.040  0.00  0.00    +0.000 A 
ATOM      3  C   UNL     1     -12.025   6.879 131.253  0.00  0.00    +0.000 A 
ATOM      4  C   UNL     1     -10.801   6.414 131.710  0.00  0.00    +0.000 A 
ATOM      5  C   UNL     1      -9.642   6.620 130.975  0.00  0.00    +0.000 A 
ATOM      6  C   UNL     1      -9.698   7.282 129.744  0.00  0.00    +0.000 A 
ENDROOT
BRANCH   4   7
ATOM      7  O   UNL     1     -10.715   5.742 132.893  0.00  0.00    +0.000 OA
ATOM      8  H   UNL     1      -9.879   5.991 133.317  0.00  0.00    +0.000 HD
ENDBRANCH   4   7
BRANCH   1   9
ATOM      9  C   UNL     1     -10.984   8.414 127.887  0.00  0.00    +0.000 C 
BRANCH   9  11
ATOM     10  C   UNL     1     -12.592   7.010 126.497  0.00  0.00    +0.000 C 
ATOM     11  C   UNL     1     -11.146   7.446 126.689  0.00  0.00    +0.000 C 
BRANCH  11  12
ATOM     12  N   UNL     1     -10.671   8.055 125.438  0.00  0.00    +0.000 NA
ATOM     13  H   UNL     1      -9.659   8.159 125.453  0.00  0.00    +0.000 HD
ATOM     14  H   UNL     1     -11.084   8.972 125.297  0.00  0.00    +0.000 HD
ENDBRANCH  11  12
ENDBRANCH   9  11
ENDBRANCH   1   9
TORSDOF 4
ENDMDL
MODEL 2
REMARK VINA RESULT:      -5.6      9.060     10.800
REMARK  Name = Hydroxyamphetamine
REMARK  5 active torsions:
REMARK  status: ('A' for Active; 'I' for Inactive)
REMARK    1  A    between atoms: C_1  and  C_2
REMARK    2  A    between atoms: C_2  and  N_3
REMARK    3  A    between atoms: C_2  and  C_4
REMARK    4  A    between atoms: C_4  and  C_5
REMARK    5  A    between atoms: C_8  and  O_9
REMARK                            x       y       z     vdW  Elec       q    Type
REMARK                         _______ _______ _______ _____ _____    ______ ____
ROOT
ATOM      1  C   UNL     1      -6.534   3.760 121.230  0.00  0.00    +0.000 A 
ATOM      2  C   UNL     1      -7.455   3.867 120.176  0.00  0.00    +0.000 A 
ATOM      3  C   UNL     1      -7.210   4.664 119.064  0.00  0.00    +0.000 A 
ATOM      4  C   UNL     1      -6.003   5.341 118.980  0.00  0.00    +0.000 A 
ATOM      5  C   UNL     1      -5.053   5.227 119.986  0.00  0.00    +0.000 A 
ATOM      6  C   UNL     1      -5.313   4.443 121.114  0.00  0.00    +0.000 A 
ENDROOT
BRANCH   4   7
ATOM      7  O   UNL     1      -5.727   6.135 117.907  0.00  0.00    +0.000 OA
ATOM      8  H   UNL     1      -4.849   5.892 117.574  0.00  0.00    +0.000 HD
ENDBRANCH   4   7
BRANCH   1   9
ATOM      9  C   UNL     1      -6.829   2.959 122.487  0.00  0.00    +0.000 C 
BRANCH   9  11
ATOM     10  C   UNL     1      -8.916   1.726 123.272  0.00  0.00    +0.000 C 
ATOM     11  C   UNL     1      -8.277   3.085 123.024  0.00  0.00    +0.000 C 
BRANCH  11  12
ATOM     12  N   UNL     1      -8.320   3.858 124.274  0.00  0.00    +0.000 NA
ATOM     13  H   UNL     1      -7.666   4.637 124.236  0.00  0.00    +0.000 HD
ATOM     14  H   UNL     1      -8.080   3.278 125.072  0.00  0.00    +0.000 HD
ENDBRANCH  11  12
ENDBRANCH   9  11
ENDBRANCH   1   9
TORSDOF 4
ENDMDL
MODEL 3
REMARK VINA RESULT:      -5.4      3.317      4.820
REMARK  Name = Hydroxyamphetamine
REMARK  5 active torsions:
REMARK  status: ('A' for Active; 'I' for Inactive)
REMARK    1  A    between atoms: C_1  and  C_2
REMARK    2  A    between atoms: C_2  and  N_3
REMARK    3  A    between atoms: C_2  and  C_4
REMARK    4  A    between atoms: C_4  and  C_5
REMARK    5  A    between atoms: C_8  and  O_9
REMARK                            x       y       z     vdW  Elec       q    Type
REMARK                         _______ _______ _______ _____ _____    ______ ____
ROOT
ATOM      1  C   UNL     1     -12.141   7.407 129.366  0.00  0.00    +0.000 A 
ATOM      2  C   UNL     1     -10.978   8.134 129.067  0.00  0.00    +0.000 A 
ATOM      3  C   UNL     1     -10.552   8.332 127.759  0.00  0.00    +0.000 A 
ATOM      4  C   UNL     1     -11.321   7.826 126.722  0.00  0.00    +0.000 A 
ATOM      5  C   UNL     1     -12.497   7.136 126.980  0.00  0.00    +0.000 A 
ATOM      6  C   UNL     1     -12.910   6.919 128.299  0.00  0.00    +0.000 A 
ENDROOT
BRANCH   4   7
ATOM      7  O   UNL     1     -10.934   7.997 125.426  0.00  0.00    +0.000 OA
ATOM      8  H   UNL     1     -11.247   8.867 125.134  0.00  0.00    +0.000 HD
ENDBRANCH   4   7
BRANCH   1   9
ATOM      9  C   UNL     1     -12.569   7.114 130.795  0.00  0.00    +0.000 C 
BRANCH   9  11
ATOM     10  C   UNL     1     -11.175   4.997 130.537  0.00  0.00    +0.000 C 
ATOM     11  C   UNL     1     -11.753   6.011 131.514  0.00  0.00    +0.000 C 
BRANCH  11  12
ATOM     12  N   UNL     1     -10.652   6.586 132.300  0.00  0.00    +0.000 NA
ATOM     13  H   UNL     1     -10.438   7.528 131.980  0.00  0.00    +0.000 HD
ATOM     14  H   UNL     1      -9.811   6.023 132.220  0.00  0.00    +0.000 HD
ENDBRANCH  11  12
ENDBRANCH   9  11
ENDBRANCH   1   9
TORSDOF 4
ENDMDL
MODEL 4
REMARK VINA RESULT:      -5.3      1.433      2.140
REMARK  Name = Hydroxyamphetamine
REMARK  5 active torsions:
REMARK  status: ('A' for Active; 'I' for Inactive)
REMARK    1  A    between atoms: C_1  and  C_2
REMARK    2  A    between atoms: C_2  and  N_3
REMARK    3  A    between atoms: C_2  and  C_4
REMARK    4  A    between atoms: C_4  and  C_5
REMARK    5  A    between atoms: C_8  and  O_9
REMARK                            x       y       z     vdW  Elec       q    Type
REMARK                         _______ _______ _______ _____ _____    ______ ____
ROOT
ATOM      1  C   UNL     1     -12.678   6.684 129.524  0.00  0.00    +0.000 A 
ATOM      2  C   UNL     1     -11.782   5.606 129.566  0.00  0.00    +0.000 A 
ATOM      3  C   UNL     1     -11.048   5.303 130.707  0.00  0.00    +0.000 A 
ATOM      4  C   UNL     1     -11.239   6.070 131.846  0.00  0.00    +0.000 A 
ATOM      5  C   UNL     1     -12.146   7.120 131.853  0.00  0.00    +0.000 A 
ATOM      6  C   UNL     1     -12.865   7.436 130.695  0.00  0.00    +0.000 A 
ENDROOT
BRANCH   4   7
ATOM      7  O   UNL     1     -10.535   5.807 132.983  0.00  0.00    +0.000 OA
ATOM      8  H   UNL     1     -10.012   5.004 132.831  0.00  0.00    +0.000 HD
ENDBRANCH   4   7
BRANCH   1   9
ATOM      9  C   UNL     1     -13.422   7.074 128.257  0.00  0.00    +0.000 C 
BRANCH   9  11
ATOM     10  C   UNL     1     -11.294   8.351 127.681  0.00  0.00    +0.000 C 
ATOM     11  C   UNL     1     -12.539   7.668 127.132  0.00  0.00    +0.000 C 
BRANCH  11  12
ATOM     12  N   UNL     1     -12.123   6.633 126.174  0.00  0.00    +0.000 NA
ATOM     13  H   UNL     1     -12.636   5.769 126.335  0.00  0.00    +0.000 HD
ATOM     14  H   UNL     1     -11.130   6.435 126.257  0.00  0.00    +0.000 HD
ENDBRANCH  11  12
ENDBRANCH   9  11
ENDBRANCH   1   9
TORSDOF 4
ENDMDL
MODEL 5
REMARK VINA RESULT:      -5.1      3.364      4.590
REMARK  Name = Hydroxyamphetamine
REMARK  5 active torsions:
REMARK  status: ('A' for Active; 'I' for Inactive)
REMARK    1  A    between atoms: C_1  and  C_2
REMARK    2  A    between atoms: C_2  and  N_3
REMARK    3  A    between atoms: C_2  and  C_4
REMARK    4  A    between atoms: C_4  and  C_5
REMARK    5  A    between atoms: C_8  and  O_9
REMARK                            x       y       z     vdW  Elec       q    Type
REMARK                         _______ _______ _______ _____ _____    ______ ____
ROOT
ATOM      1  C   UNL     1     -11.852   6.880 130.081  0.00  0.00    +0.000 A 
ATOM      2  C   UNL     1     -12.628   7.694 130.920  0.00  0.00    +0.000 A 
ATOM      3  C   UNL     1     -13.118   8.926 130.501  0.00  0.00    +0.000 A 
ATOM      4  C   UNL     1     -12.860   9.340 129.203  0.00  0.00    +0.000 A 
ATOM      5  C   UNL     1     -12.129   8.543 128.335  0.00  0.00    +0.000 A 
ATOM      6  C   UNL     1     -11.618   7.315 128.767  0.00  0.00    +0.000 A 
ENDROOT
BRANCH   4   7
ATOM      7  O   UNL     1     -13.320  10.543 128.757  0.00  0.00    +0.000 OA
ATOM      8  H   UNL     1     -12.640  10.927 128.181  0.00  0.00    +0.000 HD
ENDBRANCH   4   7
BRANCH   1   9
ATOM      9  C   UNL     1     -11.242   5.571 130.557  0.00  0.00    +0.000 C 
BRANCH   9  11
ATOM     10  C   UNL     1      -9.042   6.774 131.006  0.00  0.00    +0.000 C 
ATOM     11  C   UNL     1     -10.021   5.718 131.498  0.00  0.00    +0.000 C 
BRANCH  11  12
ATOM     12  N   UNL     1     -10.436   6.063 132.865  0.00  0.00    +0.000 NA
ATOM     13  H   UNL     1      -9.966   5.467 133.543  0.00  0.00    +0.000 HD
ATOM     14  H   UNL     1     -11.438   5.953 132.983  0.00  0.00    +0.000 HD
ENDBRANCH  11  12
ENDBRANCH   9  11
ENDBRANCH   1   9
TORSDOF 4
ENDMDL
MODEL 6
REMARK VINA RESULT:      -4.8     10.315     10.782
REMARK  Name = Hydroxyamphetamine
REMARK  5 active torsions:
REMARK  status: ('A' for Active; 'I' for Inactive)
REMARK    1  A    between atoms: C_1  and  C_2
REMARK    2  A    between atoms: C_2  and  N_3
REMARK    3  A    between atoms: C_2  and  C_4
REMARK    4  A    between atoms: C_4  and  C_5
REMARK    5  A    between atoms: C_8  and  O_9
REMARK                            x       y       z     vdW  Elec       q    Type
REMARK                         _______ _______ _______ _____ _____    ______ ____
ROOT
ATOM      1  C   UNL     1      -8.713  -2.772 127.086  0.00  0.00    +0.000 A 
ATOM      2  C   UNL     1      -7.959  -1.591 127.177  0.00  0.00    +0.000 A 
ATOM      3  C   UNL     1      -7.163  -1.310 128.281  0.00  0.00    +0.000 A 
ATOM      4  C   UNL     1      -7.085  -2.244 129.303  0.00  0.00    +0.000 A 
ATOM      5  C   UNL     1      -7.786  -3.439 129.229  0.00  0.00    +0.000 A 
ATOM      6  C   UNL     1      -8.604  -3.708 128.127  0.00  0.00    +0.000 A 
ENDROOT
BRANCH   4   7
ATOM      7  O   UNL     1      -6.317  -2.002 130.403  0.00  0.00    +0.000 OA
ATOM      8  H   UNL     1      -6.867  -2.153 131.188  0.00  0.00    +0.000 HD
ENDBRANCH   4   7
BRANCH   1   9
ATOM      9  C   UNL     1      -9.651  -3.049 125.923  0.00  0.00    +0.000 C 
BRANCH   9  11
ATOM     10  C   UNL     1      -7.776  -3.916 124.432  0.00  0.00    +0.000 C 
ATOM     11  C   UNL     1      -8.993  -3.006 124.522  0.00  0.00    +0.000 C 
BRANCH  11  12
ATOM     12  N   UNL     1      -9.945  -3.391 123.470  0.00  0.00    +0.000 NA
ATOM     13  H   UNL     1     -10.876  -3.519 123.860  0.00  0.00    +0.000 HD
ATOM     14  H   UNL     1      -9.665  -4.257 123.021  0.00  0.00    +0.000 HD
ENDBRANCH  11  12
ENDBRANCH   9  11
ENDBRANCH   1   9
TORSDOF 4
ENDMDL
MODEL 7
REMARK VINA RESULT:      -4.7      2.711      3.870
REMARK  Name = Hydroxyamphetamine
REMARK  5 active torsions:
REMARK  status: ('A' for Active; 'I' for Inactive)
REMARK    1  A    between atoms: C_1  and  C_2
REMARK    2  A    between atoms: C_2  and  N_3
REMARK    3  A    between atoms: C_2  and  C_4
REMARK    4  A    between atoms: C_4  and  C_5
REMARK    5  A    between atoms: C_8  and  O_9
REMARK                            x       y       z     vdW  Elec       q    Type
REMARK                         _______ _______ _______ _____ _____    ______ ____
ROOT
ATOM      1  C   UNL     1     -10.380   7.259 129.997  0.00  0.00    +0.000 A 
ATOM      2  C   UNL     1     -11.620   7.273 130.654  0.00  0.00    +0.000 A 
ATOM      3  C   UNL     1     -12.700   8.003 130.170  0.00  0.00    +0.000 A 
ATOM      4  C   UNL     1     -12.553   8.706 128.984  0.00  0.00    +0.000 A 
ATOM      5  C   UNL     1     -11.353   8.683 128.288  0.00  0.00    +0.000 A 
ATOM      6  C   UNL     1     -10.262   7.966 128.790  0.00  0.00    +0.000 A 
ENDROOT
BRANCH   4   7
ATOM      7  O   UNL     1     -13.588   9.436 128.481  0.00  0.00    +0.000 OA
ATOM      8  H   UNL     1     -14.304   8.822 128.254  0.00  0.00    +0.000 HD
ENDBRANCH   4   7
BRANCH   1   9
ATOM      9  C   UNL     1      -9.170   6.533 130.561  0.00  0.00    +0.000 C 
BRANCH   9  11
ATOM     10  C   UNL     1     -10.096   4.166 130.385  0.00  0.00    +0.000 C 
ATOM     11  C   UNL     1      -8.950   5.099 130.019  0.00  0.00    +0.000 C 
BRANCH  11  12
ATOM     12  N   UNL     1      -8.792   5.097 128.558  0.00  0.00    +0.000 NA
ATOM     13  H   UNL     1      -8.315   5.940 128.248  0.00  0.00    +0.000 HD
ATOM     14  H   UNL     1      -9.693   5.050 128.092  0.00  0.00    +0.000 HD
ENDBRANCH  11  12
ENDBRANCH   9  11
ENDBRANCH   1   9
TORSDOF 4
ENDMDL
MODEL 8
REMARK VINA RESULT:      -4.7      2.360      2.610
REMARK  Name = Hydroxyamphetamine
REMARK  5 active torsions:
REMARK  status: ('A' for Active; 'I' for Inactive)
REMARK    1  A    between atoms: C_1  and  C_2
REMARK    2  A    between atoms: C_2  and  N_3
REMARK    3  A    between atoms: C_2  and  C_4
REMARK    4  A    between atoms: C_4  and  C_5
REMARK    5  A    between atoms: C_8  and  O_9
REMARK                            x       y       z     vdW  Elec       q    Type
REMARK                         _______ _______ _______ _____ _____    ______ ____
ROOT
ATOM      1  C   UNL     1     -11.601   7.277 130.151  0.00  0.00    +0.000 A 
ATOM      2  C   UNL     1     -11.931   6.005 130.642  0.00  0.00    +0.000 A 
ATOM      3  C   UNL     1     -11.020   4.955 130.632  0.00  0.00    +0.000 A 
ATOM      4  C   UNL     1      -9.738   5.187 130.157  0.00  0.00    +0.000 A 
ATOM      5  C   UNL     1      -9.367   6.443 129.699  0.00  0.00    +0.000 A 
ATOM      6  C   UNL     1     -10.293   7.491 129.689  0.00  0.00    +0.000 A 
ENDROOT
BRANCH   4   7
ATOM      7  O   UNL     1      -8.819   4.181 130.128  0.00  0.00    +0.000 OA
ATOM      8  H   UNL     1      -8.995   3.639 129.343  0.00  0.00    +0.000 HD
ENDBRANCH   4   7
BRANCH   1   9
ATOM      9  C   UNL     1     -12.615   8.408 130.080  0.00  0.00    +0.000 C 
BRANCH   9  11
ATOM     10  C   UNL     1     -13.726   8.011 127.822  0.00  0.00    +0.000 C 
ATOM     11  C   UNL     1     -12.883   8.963 128.659  0.00  0.00    +0.000 C 
BRANCH  11  12
ATOM     12  N   UNL     1     -13.561  10.266 128.712  0.00  0.00    +0.000 NA
ATOM     13  H   UNL     1     -14.570  10.147 128.676  0.00  0.00    +0.000 HD
ATOM     14  H   UNL     1     -13.282  10.856 127.934  0.00  0.00    +0.000 HD
ENDBRANCH  11  12
ENDBRANCH   9  11
ENDBRANCH   1   9
TORSDOF 4
ENDMDL
MODEL 9
REMARK VINA RESULT:      -4.6     10.098     10.512
REMARK  Name = Hydroxyamphetamine
REMARK  5 active torsions:
REMARK  status: ('A' for Active; 'I' for Inactive)
REMARK    1  A    between atoms: C_1  and  C_2
REMARK    2  A    between atoms: C_2  and  N_3
REMARK    3  A    between atoms: C_2  and  C_4
REMARK    4  A    between atoms: C_4  and  C_5
REMARK    5  A    between atoms: C_8  and  O_9
REMARK                            x       y       z     vdW  Elec       q    Type
REMARK                         _______ _______ _______ _____ _____    ______ ____
ROOT
ATOM      1  C   UNL     1      -8.626  -2.879 126.365  0.00  0.00    +0.000 A 
ATOM      2  C   UNL     1      -8.967  -3.818 127.350  0.00  0.00    +0.000 A 
ATOM      3  C   UNL     1      -8.625  -3.640 128.686  0.00  0.00    +0.000 A 
ATOM      4  C   UNL     1      -7.960  -2.481 129.056  0.00  0.00    +0.000 A 
ATOM      5  C   UNL     1      -7.642  -1.513 128.114  0.00  0.00    +0.000 A 
ATOM      6  C   UNL     1      -7.967  -1.707 126.767  0.00  0.00    +0.000 A 
ENDROOT
BRANCH   4   7
ATOM      7  O   UNL     1      -7.605  -2.272 130.355  0.00  0.00    +0.000 OA
ATOM      8  H   UNL     1      -8.396  -1.990 130.839  0.00  0.00    +0.000 HD
ENDBRANCH   4   7
BRANCH   1   9
ATOM      9  C   UNL     1      -8.921  -3.104 124.891  0.00  0.00    +0.000 C 
BRANCH   9  11
ATOM     10  C   UNL     1      -7.410  -2.134 123.084  0.00  0.00    +0.000 C 
ATOM     11  C   UNL     1      -8.627  -1.896 123.968  0.00  0.00    +0.000 C 
BRANCH  11  12
ATOM     12  N   UNL     1      -9.777  -1.584 123.109  0.00  0.00    +0.000 NA
ATOM     13  H   UNL     1     -10.467  -1.038 123.619  0.00  0.00    +0.000 HD
ATOM     14  H   UNL     1     -10.225  -2.432 122.774  0.00  0.00    +0.000 HD
ENDBRANCH  11  12
ENDBRANCH   9  11
ENDBRANCH   1   9
TORSDOF 4
ENDMDL
