MODEL 1
REMARK VINA RESULT:      -7.6      0.000      0.000
REMARK  Name = Hydrocortisone butyrate
REMARK  11 active torsions:
REMARK  status: ('A' for Active; 'I' for Inactive)
REMARK    1  A    between atoms: C_5  and  O_6
REMARK    2  A    between atoms: C_5  and  C_12
REMARK    3  A    between atoms: O_6  and  C_7
REMARK    4  A    between atoms: C_7  and  C_9
REMARK    5  A    between atoms: C_9  and  C_10
REMARK    6  A    between atoms: C_10  and  C_11
REMARK    7  A    between atoms: C_12  and  C_14
REMARK    8  A    between atoms: C_14  and  O_15
REMARK    9  A    between atoms: C_16  and  C_17
REMARK   10  A    between atoms: C_19  and  O_20
REMARK   11  A    between atoms: C_33  and  C_34
REMARK                            x       y       z     vdW  Elec       q    Type
REMARK                         _______ _______ _______ _____ _____    ______ ____
ROOT
ATOM      1  C   UNL     1      -6.465  -3.465 130.857  0.00  0.00    +0.000 C 
ATOM      2  C   UNL     1      -5.980  -4.786 130.697  0.00  0.00    +0.000 C 
ATOM      3  C   UNL     1      -5.206  -3.670 130.104  0.00  0.00    +0.000 C 
ATOM      4  C   UNL     1      -5.641  -1.734 130.820  0.00  0.00    +0.000 C 
ATOM      5  C   UNL     1      -4.761  -2.724 131.257  0.00  0.00    +0.000 C 
ATOM      6  C   UNL     1      -4.339  -2.999 132.649  0.00  0.00    +0.000 C 
ATOM      7  C   UNL     1      -3.714  -2.168 129.796  0.00  0.00    +0.000 C 
ATOM      8  C   UNL     1      -4.686  -1.652 128.480  0.00  0.00    +0.000 C 
ATOM      9  C   UNL     1      -6.007  -2.537 127.983  0.00  0.00    +0.000 C 
ATOM     10  C   UNL     1      -7.109  -2.810 129.240  0.00  0.00    +0.000 C 
ATOM     11  C   UNL     1      -8.251  -3.721 128.847  0.00  0.00    +0.000 C 
ATOM     12  C   UNL     1      -8.904  -3.279 127.569  0.00  0.00    +0.000 C 
ATOM     13  C   UNL     1      -7.964  -3.018 126.432  0.00  0.00    +0.000 C 
ATOM     14  C   UNL     1      -8.280  -3.451 125.205  0.00  0.00    +0.000 C 
ATOM     15  C   UNL     1      -7.493  -2.832 124.142  0.00  0.00    +0.000 C 
ATOM     16  O   UNL     1      -7.628  -1.683 123.729  0.00  0.00    +0.000 OA
ATOM     17  C   UNL     1      -6.222  -3.491 123.972  0.00  0.00    +0.000 C 
ATOM     18  C   UNL     1      -5.637  -2.580 125.290  0.00  0.00    +0.000 C 
ATOM     19  C   UNL     1      -6.713  -2.161 126.631  0.00  0.00    +0.000 C 
ATOM     20  C   UNL     1      -7.222  -0.710 126.847  0.00  0.00    +0.000 C 
ENDROOT
BRANCH   4  21
ATOM     21  C   UNL     1      -4.601  -0.368 131.485  0.00  0.00    +0.000 C 
ATOM     22  O   UNL     1      -4.318   0.665 130.838  0.00  0.00    +0.000 OA
BRANCH  21  23
ATOM     23  C   UNL     1      -3.828  -0.362 132.885  0.00  0.00    +0.000 C 
BRANCH  23  24
ATOM     24  O   UNL     1      -4.667   0.141 133.981  0.00  0.00    +0.000 OA
ATOM     25  H   UNL     1      -5.605   0.099 133.707  0.00  0.00    +0.000 HD
ENDBRANCH  23  24
ENDBRANCH  21  23
ENDBRANCH   4  21
BRANCH   8  26
ATOM     26  O   UNL     1      -5.065  -0.302 128.809  0.00  0.00    +0.000 OA
ATOM     27  H   UNL     1      -6.016  -0.237 129.009  0.00  0.00    +0.000 HD
ENDBRANCH   8  26
BRANCH   4  28
ATOM     28  O   UNL     1      -6.682  -1.532 132.084  0.00  0.00    +0.000 OA
BRANCH  28  29
ATOM     29  C   UNL     1      -7.578  -0.500 132.227  0.00  0.00    +0.000 C 
ATOM     30  O   UNL     1      -7.513   0.341 133.115  0.00  0.00    +0.000 OA
BRANCH  29  31
ATOM     31  C   UNL     1      -8.638  -0.288 131.167  0.00  0.00    +0.000 C 
BRANCH  31  32
ATOM     32  C   UNL     1      -8.108   0.853 130.248  0.00  0.00    +0.000 C 
ATOM     33  C   UNL     1      -8.857   2.161 130.373  0.00  0.00    +0.000 C 
ENDBRANCH  31  32
ENDBRANCH  29  31
ENDBRANCH  28  29
ENDBRANCH   4  28
TORSDOF 8
ENDMDL
MODEL 2
REMARK VINA RESULT:      -7.4      1.509      2.265
REMARK  Name = Hydrocortisone butyrate
REMARK  11 active torsions:
REMARK  status: ('A' for Active; 'I' for Inactive)
REMARK    1  A    between atoms: C_5  and  O_6
REMARK    2  A    between atoms: C_5  and  C_12
REMARK    3  A    between atoms: O_6  and  C_7
REMARK    4  A    between atoms: C_7  and  C_9
REMARK    5  A    between atoms: C_9  and  C_10
REMARK    6  A    between atoms: C_10  and  C_11
REMARK    7  A    between atoms: C_12  and  C_14
REMARK    8  A    between atoms: C_14  and  O_15
REMARK    9  A    between atoms: C_16  and  C_17
REMARK   10  A    between atoms: C_19  and  O_20
REMARK   11  A    between atoms: C_33  and  C_34
REMARK                            x       y       z     vdW  Elec       q    Type
REMARK                         _______ _______ _______ _____ _____    ______ ____
ROOT
ATOM      1  C   UNL     1      -5.943  -4.093 131.179  0.00  0.00    +0.000 C 
ATOM      2  C   UNL     1      -5.621  -5.402 130.742  0.00  0.00    +0.000 C 
ATOM      3  C   UNL     1      -4.808  -4.268 130.243  0.00  0.00    +0.000 C 
ATOM      4  C   UNL     1      -4.951  -2.458 131.317  0.00  0.00    +0.000 C 
ATOM      5  C   UNL     1      -4.136  -3.579 131.467  0.00  0.00    +0.000 C 
ATOM      6  C   UNL     1      -3.588  -4.129 132.727  0.00  0.00    +0.000 C 
ATOM      7  C   UNL     1      -3.212  -2.865 129.993  0.00  0.00    +0.000 C 
ATOM      8  C   UNL     1      -4.269  -2.047 128.917  0.00  0.00    +0.000 C 
ATOM      9  C   UNL     1      -5.724  -2.717 128.460  0.00  0.00    +0.000 C 
ATOM     10  C   UNL     1      -6.696  -3.113 129.789  0.00  0.00    +0.000 C 
ATOM     11  C   UNL     1      -7.966  -3.841 129.406  0.00  0.00    +0.000 C 
ATOM     12  C   UNL     1      -8.711  -3.128 128.315  0.00  0.00    +0.000 C 
ATOM     13  C   UNL     1      -7.886  -2.752 127.122  0.00  0.00    +0.000 C 
ATOM     14  C   UNL     1      -8.385  -2.935 125.893  0.00  0.00    +0.000 C 
ATOM     15  C   UNL     1      -7.665  -2.207 124.852  0.00  0.00    +0.000 C 
ATOM     16  O   UNL     1      -7.724  -0.996 124.654  0.00  0.00    +0.000 OA
ATOM     17  C   UNL     1      -6.498  -2.930 124.411  0.00  0.00    +0.000 C 
ATOM     18  C   UNL     1      -5.672  -2.317 125.771  0.00  0.00    +0.000 C 
ATOM     19  C   UNL     1      -6.537  -2.051 127.293  0.00  0.00    +0.000 C 
ATOM     20  C   UNL     1      -6.862  -0.623 127.808  0.00  0.00    +0.000 C 
ENDROOT
BRANCH   4  21
ATOM     21  C   UNL     1      -3.704  -1.321 132.055  0.00  0.00    +0.000 C 
ATOM     22  O   UNL     1      -2.485  -1.589 132.135  0.00  0.00    +0.000 OA
BRANCH  21  23
ATOM     23  C   UNL     1      -4.007   0.065 132.792  0.00  0.00    +0.000 C 
BRANCH  23  24
ATOM     24  O   UNL     1      -4.886   0.936 131.999  0.00  0.00    +0.000 OA
ATOM     25  H   UNL     1      -4.498   1.052 131.109  0.00  0.00    +0.000 HD
ENDBRANCH  23  24
ENDBRANCH  21  23
ENDBRANCH   4  21
BRANCH   8  26
ATOM     26  O   UNL     1      -4.463  -0.748 129.510  0.00  0.00    +0.000 OA
ATOM     27  H   UNL     1      -3.649  -0.214 129.473  0.00  0.00    +0.000 HD
ENDBRANCH   8  26
BRANCH   4  28
ATOM     28  O   UNL     1      -5.813  -2.394 132.723  0.00  0.00    +0.000 OA
BRANCH  28  29
ATOM     29  C   UNL     1      -7.057  -1.830 132.875  0.00  0.00    +0.000 C 
ATOM     30  O   UNL     1      -7.402  -0.785 132.337  0.00  0.00    +0.000 OA
BRANCH  29  31
ATOM     31  C   UNL     1      -8.124  -2.585 133.638  0.00  0.00    +0.000 C 
BRANCH  31  32
ATOM     32  C   UNL     1      -7.395  -3.275 134.830  0.00  0.00    +0.000 C 
ATOM     33  C   UNL     1      -7.239  -4.772 134.690  0.00  0.00    +0.000 C 
ENDBRANCH  31  32
ENDBRANCH  29  31
ENDBRANCH  28  29
ENDBRANCH   4  28
TORSDOF 8
ENDMDL
MODEL 3
REMARK VINA RESULT:      -7.4      2.486      7.283
REMARK  Name = Hydrocortisone butyrate
REMARK  11 active torsions:
REMARK  status: ('A' for Active; 'I' for Inactive)
REMARK    1  A    between atoms: C_5  and  O_6
REMARK    2  A    between atoms: C_5  and  C_12
REMARK    3  A    between atoms: O_6  and  C_7
REMARK    4  A    between atoms: C_7  and  C_9
REMARK    5  A    between atoms: C_9  and  C_10
REMARK    6  A    between atoms: C_10  and  C_11
REMARK    7  A    between atoms: C_12  and  C_14
REMARK    8  A    between atoms: C_14  and  O_15
REMARK    9  A    between atoms: C_16  and  C_17
REMARK   10  A    between atoms: C_19  and  O_20
REMARK   11  A    between atoms: C_33  and  C_34
REMARK                            x       y       z     vdW  Elec       q    Type
REMARK                         _______ _______ _______ _____ _____    ______ ____
ROOT
ATOM      1  C   UNL     1      -6.072  -1.522 124.189  0.00  0.00    +0.000 C 
ATOM      2  C   UNL     1      -5.442  -2.791 124.171  0.00  0.00    +0.000 C 
ATOM      3  C   UNL     1      -6.875  -2.717 124.540  0.00  0.00    +0.000 C 
ATOM      4  C   UNL     1      -7.893  -0.942 124.026  0.00  0.00    +0.000 C 
ATOM      5  C   UNL     1      -7.657  -2.127 123.330  0.00  0.00    +0.000 C 
ATOM      6  C   UNL     1      -7.478  -2.290 121.869  0.00  0.00    +0.000 C 
ATOM      7  C   UNL     1      -9.009  -2.821 124.436  0.00  0.00    +0.000 C 
ATOM      8  C   UNL     1      -8.994  -2.093 125.990  0.00  0.00    +0.000 C 
ATOM      9  C   UNL     1      -7.570  -1.876 126.828  0.00  0.00    +0.000 C 
ATOM     10  C   UNL     1      -6.427  -0.999 125.938  0.00  0.00    +0.000 C 
ATOM     11  C   UNL     1      -5.082  -0.901 126.624  0.00  0.00    +0.000 C 
ATOM     12  C   UNL     1      -5.213  -0.438 128.046  0.00  0.00    +0.000 C 
ATOM     13  C   UNL     1      -6.220  -1.182 128.868  0.00  0.00    +0.000 C 
ATOM     14  C   UNL     1      -5.915  -1.533 130.124  0.00  0.00    +0.000 C 
ATOM     15  C   UNL     1      -7.074  -1.912 130.927  0.00  0.00    +0.000 C 
ATOM     16  O   UNL     1      -7.909  -1.137 131.387  0.00  0.00    +0.000 OA
ATOM     17  C   UNL     1      -7.445  -3.288 130.705  0.00  0.00    +0.000 C 
ATOM     18  C   UNL     1      -8.262  -2.782 129.296  0.00  0.00    +0.000 C 
ATOM     19  C   UNL     1      -7.631  -1.437 128.334  0.00  0.00    +0.000 C 
ATOM     20  C   UNL     1      -8.332  -0.052 128.309  0.00  0.00    +0.000 C 
ENDROOT
BRANCH   4  21
ATOM     21  C   UNL     1      -9.459  -0.598 123.120  0.00  0.00    +0.000 C 
ATOM     22  O   UNL     1     -10.138  -1.481 122.550  0.00  0.00    +0.000 OA
BRANCH  21  23
ATOM     23  C   UNL     1     -10.086   0.844 122.828  0.00  0.00    +0.000 C 
BRANCH  23  24
ATOM     24  O   UNL     1     -10.793   1.389 123.996  0.00  0.00    +0.000 OA
ATOM     25  H   UNL     1     -11.416   0.714 124.332  0.00  0.00    +0.000 HD
ENDBRANCH  23  24
ENDBRANCH  21  23
ENDBRANCH   4  21
BRANCH   8  26
ATOM     26  O   UNL     1      -9.685  -0.842 125.816  0.00  0.00    +0.000 OA
ATOM     27  H   UNL     1      -9.881  -0.420 126.673  0.00  0.00    +0.000 HD
ENDBRANCH   8  26
BRANCH   4  28
ATOM     28  O   UNL     1      -7.138   0.215 123.123  0.00  0.00    +0.000 OA
BRANCH  28  29
ATOM     29  C   UNL     1      -7.007   1.540 123.466  0.00  0.00    +0.000 C 
ATOM     30  O   UNL     1      -6.762   2.430 122.661  0.00  0.00    +0.000 OA
BRANCH  29  31
ATOM     31  C   UNL     1      -7.305   1.969 124.886  0.00  0.00    +0.000 C 
BRANCH  31  32
ATOM     32  C   UNL     1      -6.001   2.632 125.419  0.00  0.00    +0.000 C 
ATOM     33  C   UNL     1      -6.009   2.938 126.900  0.00  0.00    +0.000 C 
ENDBRANCH  31  32
ENDBRANCH  29  31
ENDBRANCH  28  29
ENDBRANCH   4  28
TORSDOF 8
ENDMDL
MODEL 4
REMARK VINA RESULT:      -7.4      3.676      7.616
REMARK  Name = Hydrocortisone butyrate
REMARK  11 active torsions:
REMARK  status: ('A' for Active; 'I' for Inactive)
REMARK    1  A    between atoms: C_5  and  O_6
REMARK    2  A    between atoms: C_5  and  C_12
REMARK    3  A    between atoms: O_6  and  C_7
REMARK    4  A    between atoms: C_7  and  C_9
REMARK    5  A    between atoms: C_9  and  C_10
REMARK    6  A    between atoms: C_10  and  C_11
REMARK    7  A    between atoms: C_12  and  C_14
REMARK    8  A    between atoms: C_14  and  O_15
REMARK    9  A    between atoms: C_16  and  C_17
REMARK   10  A    between atoms: C_19  and  O_20
REMARK   11  A    between atoms: C_33  and  C_34
REMARK                            x       y       z     vdW  Elec       q    Type
REMARK                         _______ _______ _______ _____ _____    ______ ____
ROOT
ATOM      1  C   UNL     1      -5.508   0.865 126.110  0.00  0.00    +0.000 C 
ATOM      2  C   UNL     1      -5.354  -0.540 126.017  0.00  0.00    +0.000 C 
ATOM      3  C   UNL     1      -6.703   0.009 126.289  0.00  0.00    +0.000 C 
ATOM      4  C   UNL     1      -6.991   2.057 125.873  0.00  0.00    +0.000 C 
ATOM      5  C   UNL     1      -7.109   0.911 125.087  0.00  0.00    +0.000 C 
ATOM      6  C   UNL     1      -6.853   0.789 123.634  0.00  0.00    +0.000 C 
ATOM      7  C   UNL     1      -8.721   0.667 126.024  0.00  0.00    +0.000 C 
ATOM      8  C   UNL     1      -8.611   1.243 127.637  0.00  0.00    +0.000 C 
ATOM      9  C   UNL     1      -7.291   0.893 128.590  0.00  0.00    +0.000 C 
ATOM     10  C   UNL     1      -5.833   1.367 127.871  0.00  0.00    +0.000 C 
ATOM     11  C   UNL     1      -4.611   0.943 128.656  0.00  0.00    +0.000 C 
ATOM     12  C   UNL     1      -4.716   1.331 130.103  0.00  0.00    +0.000 C 
ATOM     13  C   UNL     1      -5.994   0.937 130.777  0.00  0.00    +0.000 C 
ATOM     14  C   UNL     1      -5.955   0.422 132.013  0.00  0.00    +0.000 C 
ATOM     15  C   UNL     1      -7.248   0.425 132.692  0.00  0.00    +0.000 C 
ATOM     16  O   UNL     1      -7.807   1.412 133.163  0.00  0.00    +0.000 OA
ATOM     17  C   UNL     1      -8.046  -0.716 132.316  0.00  0.00    +0.000 C 
ATOM     18  C   UNL     1      -8.494   0.132 130.906  0.00  0.00    +0.000 C 
ATOM     19  C   UNL     1      -7.347   1.229 130.123  0.00  0.00    +0.000 C 
ATOM     20  C   UNL     1      -7.522   2.770 130.179  0.00  0.00    +0.000 C 
ENDROOT
BRANCH   4  21
ATOM     21  C   UNL     1      -8.245   2.985 124.895  0.00  0.00    +0.000 C 
ATOM     22  O   UNL     1      -8.876   3.972 125.335  0.00  0.00    +0.000 OA
BRANCH  21  23
ATOM     23  C   UNL     1      -8.786   2.599 123.440  0.00  0.00    +0.000 C 
BRANCH  23  24
ATOM     24  O   UNL     1      -8.491   3.639 122.443  0.00  0.00    +0.000 OA
ATOM     25  H   UNL     1      -8.416   4.501 122.898  0.00  0.00    +0.000 HD
ENDBRANCH  23  24
ENDBRANCH  21  23
ENDBRANCH   4  21
BRANCH   8  26
ATOM     26  O   UNL     1      -8.808   2.666 127.533  0.00  0.00    +0.000 OA
ATOM     27  H   UNL     1      -8.884   3.081 128.411  0.00  0.00    +0.000 HD
ENDBRANCH   8  26
BRANCH   4  28
ATOM     28  O   UNL     1      -5.799   2.930 125.139  0.00  0.00    +0.000 OA
BRANCH  28  29
ATOM     29  C   UNL     1      -5.368   4.178 125.523  0.00  0.00    +0.000 C 
ATOM     30  O   UNL     1      -5.857   5.223 125.113  0.00  0.00    +0.000 OA
BRANCH  29  31
ATOM     31  C   UNL     1      -4.320   4.297 126.608  0.00  0.00    +0.000 C 
BRANCH  31  32
ATOM     32  C   UNL     1      -3.064   3.541 126.081  0.00  0.00    +0.000 C 
ATOM     33  C   UNL     1      -2.048   3.191 127.144  0.00  0.00    +0.000 C 
ENDBRANCH  31  32
ENDBRANCH  29  31
ENDBRANCH  28  29
ENDBRANCH   4  28
TORSDOF 8
ENDMDL
MODEL 5
REMARK VINA RESULT:      -7.3      4.906      8.779
REMARK  Name = Hydrocortisone butyrate
REMARK  11 active torsions:
REMARK  status: ('A' for Active; 'I' for Inactive)
REMARK    1  A    between atoms: C_5  and  O_6
REMARK    2  A    between atoms: C_5  and  C_12
REMARK    3  A    between atoms: O_6  and  C_7
REMARK    4  A    between atoms: C_7  and  C_9
REMARK    5  A    between atoms: C_9  and  C_10
REMARK    6  A    between atoms: C_10  and  C_11
REMARK    7  A    between atoms: C_12  and  C_14
REMARK    8  A    between atoms: C_14  and  O_15
REMARK    9  A    between atoms: C_16  and  C_17
REMARK   10  A    between atoms: C_19  and  O_20
REMARK   11  A    between atoms: C_33  and  C_34
REMARK                            x       y       z     vdW  Elec       q    Type
REMARK                         _______ _______ _______ _____ _____    ______ ____
ROOT
ATOM      1  C   UNL     1      -4.890   2.690 128.788  0.00  0.00    +0.000 C 
ATOM      2  C   UNL     1      -4.814   1.407 129.385  0.00  0.00    +0.000 C 
ATOM      3  C   UNL     1      -6.149   1.949 129.037  0.00  0.00    +0.000 C 
ATOM      4  C   UNL     1      -6.189   3.564 127.680  0.00  0.00    +0.000 C 
ATOM      5  C   UNL     1      -6.191   2.181 127.498  0.00  0.00    +0.000 C 
ATOM      6  C   UNL     1      -5.602   1.422 126.373  0.00  0.00    +0.000 C 
ATOM      7  C   UNL     1      -7.995   2.310 128.017  0.00  0.00    +0.000 C 
ATOM      8  C   UNL     1      -8.237   3.564 129.163  0.00  0.00    +0.000 C 
ATOM      9  C   UNL     1      -7.212   3.756 130.463  0.00  0.00    +0.000 C 
ATOM     10  C   UNL     1      -5.595   3.923 129.988  0.00  0.00    +0.000 C 
ATOM     11  C   UNL     1      -4.630   3.968 131.153  0.00  0.00    +0.000 C 
ATOM     12  C   UNL     1      -5.053   4.968 132.189  0.00  0.00    +0.000 C 
ATOM     13  C   UNL     1      -6.480   4.861 132.633  0.00  0.00    +0.000 C 
ATOM     14  C   UNL     1      -6.775   4.970 133.935  0.00  0.00    +0.000 C 
ATOM     15  C   UNL     1      -8.190   5.216 134.199  0.00  0.00    +0.000 C 
ATOM     16  O   UNL     1      -8.777   6.280 134.016  0.00  0.00    +0.000 OA
ATOM     17  C   UNL     1      -8.949   3.990 134.200  0.00  0.00    +0.000 C 
ATOM     18  C   UNL     1      -8.986   4.077 132.497  0.00  0.00    +0.000 C 
ATOM     19  C   UNL     1      -7.612   4.752 131.609  0.00  0.00    +0.000 C 
ATOM     20  C   UNL     1      -7.691   6.137 130.913  0.00  0.00    +0.000 C 
ENDROOT
BRANCH   4  21
ATOM     21  C   UNL     1      -7.104   3.877 126.113  0.00  0.00    +0.000 C 
ATOM     22  O   UNL     1      -8.282   3.506 125.912  0.00  0.00    +0.000 OA
BRANCH  21  23
ATOM     23  C   UNL     1      -6.503   4.528 124.781  0.00  0.00    +0.000 C 
BRANCH  23  24
ATOM     24  O   UNL     1      -6.331   5.982 124.902  0.00  0.00    +0.000 OA
ATOM     25  H   UNL     1      -6.249   6.213 125.849  0.00  0.00    +0.000 HD
ENDBRANCH  23  24
ENDBRANCH  21  23
ENDBRANCH   4  21
BRANCH   8  26
ATOM     26  O   UNL     1      -8.306   4.770 128.379  0.00  0.00    +0.000 OA
ATOM     27  H   UNL     1      -7.774   5.484 128.774  0.00  0.00    +0.000 HD
ENDBRANCH   8  26
BRANCH   4  28
ATOM     28  O   UNL     1      -4.798   4.065 126.947  0.00  0.00    +0.000 OA
BRANCH  28  29
ATOM     29  C   UNL     1      -4.075   5.185 127.281  0.00  0.00    +0.000 C 
ATOM     30  O   UNL     1      -4.539   6.319 127.285  0.00  0.00    +0.000 OA
BRANCH  29  31
ATOM     31  C   UNL     1      -2.663   5.027 127.800  0.00  0.00    +0.000 C 
BRANCH  31  32
ATOM     32  C   UNL     1      -2.281   6.395 128.439  0.00  0.00    +0.000 C 
ATOM     33  C   UNL     1      -2.048   6.351 129.932  0.00  0.00    +0.000 C 
ENDBRANCH  31  32
ENDBRANCH  29  31
ENDBRANCH  28  29
ENDBRANCH   4  28
TORSDOF 8
ENDMDL
MODEL 6
REMARK VINA RESULT:      -7.3      3.369      6.456
REMARK  Name = Hydrocortisone butyrate
REMARK  11 active torsions:
REMARK  status: ('A' for Active; 'I' for Inactive)
REMARK    1  A    between atoms: C_5  and  O_6
REMARK    2  A    between atoms: C_5  and  C_12
REMARK    3  A    between atoms: O_6  and  C_7
REMARK    4  A    between atoms: C_7  and  C_9
REMARK    5  A    between atoms: C_9  and  C_10
REMARK    6  A    between atoms: C_10  and  C_11
REMARK    7  A    between atoms: C_12  and  C_14
REMARK    8  A    between atoms: C_14  and  O_15
REMARK    9  A    between atoms: C_16  and  C_17
REMARK   10  A    between atoms: C_19  and  O_20
REMARK   11  A    between atoms: C_33  and  C_34
REMARK                            x       y       z     vdW  Elec       q    Type
REMARK                         _______ _______ _______ _____ _____    ______ ____
ROOT
ATOM      1  C   UNL     1      -4.741   2.940 127.427  0.00  0.00    +0.000 C 
ATOM      2  C   UNL     1      -3.469   2.784 126.822  0.00  0.00    +0.000 C 
ATOM      3  C   UNL     1      -4.556   1.855 126.436  0.00  0.00    +0.000 C 
ATOM      4  C   UNL     1      -6.522   2.449 126.916  0.00  0.00    +0.000 C 
ATOM      5  C   UNL     1      -5.709   2.693 125.810  0.00  0.00    +0.000 C 
ATOM      6  C   UNL     1      -5.696   3.901 124.955  0.00  0.00    +0.000 C 
ATOM      7  C   UNL     1      -6.142   0.923 125.343  0.00  0.00    +0.000 C 
ATOM      8  C   UNL     1      -6.345  -0.067 126.730  0.00  0.00    +0.000 C 
ATOM      9  C   UNL     1      -5.261  -0.016 127.994  0.00  0.00    +0.000 C 
ATOM     10  C   UNL     1      -5.070   1.548 128.615  0.00  0.00    +0.000 C 
ATOM     11  C   UNL     1      -3.994   1.643 129.675  0.00  0.00    +0.000 C 
ATOM     12  C   UNL     1      -4.165   0.597 130.738  0.00  0.00    +0.000 C 
ATOM     13  C   UNL     1      -4.345  -0.801 130.232  0.00  0.00    +0.000 C 
ATOM     14  C   UNL     1      -3.699  -1.808 130.834  0.00  0.00    +0.000 C 
ATOM     15  C   UNL     1      -4.228  -3.129 130.502  0.00  0.00    +0.000 C 
ATOM     16  O   UNL     1      -5.280  -3.604 130.922  0.00  0.00    +0.000 OA
ATOM     17  C   UNL     1      -3.688  -3.617 129.257  0.00  0.00    +0.000 C 
ATOM     18  C   UNL     1      -4.846  -2.665 128.445  0.00  0.00    +0.000 C 
ATOM     19  C   UNL     1      -5.350  -1.107 129.119  0.00  0.00    +0.000 C 
ATOM     20  C   UNL     1      -6.755  -0.907 129.748  0.00  0.00    +0.000 C 
ENDROOT
BRANCH   4  21
ATOM     21  C   UNL     1      -8.076   2.591 125.938  0.00  0.00    +0.000 C 
ATOM     22  O   UNL     1      -9.021   1.775 126.016  0.00  0.00    +0.000 OA
BRANCH  21  23
ATOM     23  C   UNL     1      -8.377   3.665 124.791  0.00  0.00    +0.000 C 
BRANCH  23  24
ATOM     24  O   UNL     1      -8.805   4.960 125.341  0.00  0.00    +0.000 OA
ATOM     25  H   UNL     1      -8.125   5.631 125.134  0.00  0.00    +0.000 HD
ENDBRANCH  23  24
ENDBRANCH  21  23
ENDBRANCH   4  21
BRANCH   8  26
ATOM     26  O   UNL     1      -7.683   0.211 127.187  0.00  0.00    +0.000 OA
ATOM     27  H   UNL     1      -7.716   1.025 127.721  0.00  0.00    +0.000 HD
ENDBRANCH   8  26
BRANCH   4  28
ATOM     28  O   UNL     1      -6.805   3.947 127.548  0.00  0.00    +0.000 OA
BRANCH  28  29
ATOM     29  C   UNL     1      -7.742   4.247 128.508  0.00  0.00    +0.000 C 
ATOM     30  O   UNL     1      -8.701   4.986 128.316  0.00  0.00    +0.000 OA
BRANCH  29  31
ATOM     31  C   UNL     1      -7.686   3.540 129.844  0.00  0.00    +0.000 C 
BRANCH  31  32
ATOM     32  C   UNL     1      -8.753   2.407 129.779  0.00  0.00    +0.000 C 
ATOM     33  C   UNL     1      -9.021   1.718 131.098  0.00  0.00    +0.000 C 
ENDBRANCH  31  32
ENDBRANCH  29  31
ENDBRANCH  28  29
ENDBRANCH   4  28
TORSDOF 8
ENDMDL
MODEL 7
REMARK VINA RESULT:      -7.3      5.908      9.281
REMARK  Name = Hydrocortisone butyrate
REMARK  11 active torsions:
REMARK  status: ('A' for Active; 'I' for Inactive)
REMARK    1  A    between atoms: C_5  and  O_6
REMARK    2  A    between atoms: C_5  and  C_12
REMARK    3  A    between atoms: O_6  and  C_7
REMARK    4  A    between atoms: C_7  and  C_9
REMARK    5  A    between atoms: C_9  and  C_10
REMARK    6  A    between atoms: C_10  and  C_11
REMARK    7  A    between atoms: C_12  and  C_14
REMARK    8  A    between atoms: C_14  and  O_15
REMARK    9  A    between atoms: C_16  and  C_17
REMARK   10  A    between atoms: C_19  and  O_20
REMARK   11  A    between atoms: C_33  and  C_34
REMARK                            x       y       z     vdW  Elec       q    Type
REMARK                         _______ _______ _______ _____ _____    ______ ____
ROOT
ATOM      1  C   UNL     1      -7.641   3.160 130.358  0.00  0.00    +0.000 C 
ATOM      2  C   UNL     1      -7.661   2.329 131.506  0.00  0.00    +0.000 C 
ATOM      3  C   UNL     1      -7.853   3.787 131.684  0.00  0.00    +0.000 C 
ATOM      4  C   UNL     1      -8.365   4.890 129.960  0.00  0.00    +0.000 C 
ATOM      5  C   UNL     1      -9.132   4.206 130.902  0.00  0.00    +0.000 C 
ATOM      6  C   UNL     1     -10.420   3.511 130.678  0.00  0.00    +0.000 C 
ATOM      7  C   UNL     1      -8.771   5.695 131.993  0.00  0.00    +0.000 C 
ATOM      8  C   UNL     1      -7.218   6.352 131.675  0.00  0.00    +0.000 C 
ATOM      9  C   UNL     1      -5.881   5.371 131.517  0.00  0.00    +0.000 C 
ATOM     10  C   UNL     1      -6.090   4.185 130.327  0.00  0.00    +0.000 C 
ATOM     11  C   UNL     1      -4.943   3.200 130.254  0.00  0.00    +0.000 C 
ATOM     12  C   UNL     1      -3.615   3.897 130.174  0.00  0.00    +0.000 C 
ATOM     13  C   UNL     1      -3.391   4.960 131.206  0.00  0.00    +0.000 C 
ATOM     14  C   UNL     1      -2.204   5.041 131.820  0.00  0.00    +0.000 C 
ATOM     15  C   UNL     1      -1.984   6.309 132.511  0.00  0.00    +0.000 C 
ATOM     16  O   UNL     1      -1.734   7.383 131.971  0.00  0.00    +0.000 OA
ATOM     17  C   UNL     1      -2.587   6.308 133.822  0.00  0.00    +0.000 C 
ATOM     18  C   UNL     1      -4.076   6.676 133.076  0.00  0.00    +0.000 C 
ATOM     19  C   UNL     1      -4.455   6.027 131.474  0.00  0.00    +0.000 C 
ATOM     20  C   UNL     1      -4.478   6.930 130.212  0.00  0.00    +0.000 C 
ENDROOT
BRANCH   4  21
ATOM     21  C   UNL     1      -9.711   6.087 129.577  0.00  0.00    +0.000 C 
ATOM     22  O   UNL     1      -9.523   7.178 128.993  0.00  0.00    +0.000 OA
BRANCH  21  23
ATOM     23  C   UNL     1     -11.239   5.972 130.037  0.00  0.00    +0.000 C 
BRANCH  23  24
ATOM     24  O   UNL     1     -12.163   5.962 128.895  0.00  0.00    +0.000 OA
ATOM     25  H   UNL     1     -11.691   6.287 128.103  0.00  0.00    +0.000 HD
ENDBRANCH  23  24
ENDBRANCH  21  23
ENDBRANCH   4  21
BRANCH   8  26
ATOM     26  O   UNL     1      -7.398   7.170 130.504  0.00  0.00    +0.000 OA
ATOM     27  H   UNL     1      -8.318   7.481 130.424  0.00  0.00    +0.000 HD
ENDBRANCH   8  26
BRANCH   4  28
ATOM     28  O   UNL     1      -8.680   4.111 128.540  0.00  0.00    +0.000 OA
BRANCH  28  29
ATOM     29  C   UNL     1      -8.064   4.359 127.336  0.00  0.00    +0.000 C 
ATOM     30  O   UNL     1      -8.395   5.260 126.575  0.00  0.00    +0.000 OA
BRANCH  29  31
ATOM     31  C   UNL     1      -6.823   3.577 126.965  0.00  0.00    +0.000 C 
BRANCH  31  32
ATOM     32  C   UNL     1      -5.915   4.560 126.168  0.00  0.00    +0.000 C 
ATOM     33  C   UNL     1      -4.666   4.998 126.900  0.00  0.00    +0.000 C 
ENDBRANCH  31  32
ENDBRANCH  29  31
ENDBRANCH  28  29
ENDBRANCH   4  28
TORSDOF 8
ENDMDL
MODEL 8
REMARK VINA RESULT:      -7.2      2.673      7.166
REMARK  Name = Hydrocortisone butyrate
REMARK  11 active torsions:
REMARK  status: ('A' for Active; 'I' for Inactive)
REMARK    1  A    between atoms: C_5  and  O_6
REMARK    2  A    between atoms: C_5  and  C_12
REMARK    3  A    between atoms: O_6  and  C_7
REMARK    4  A    between atoms: C_7  and  C_9
REMARK    5  A    between atoms: C_9  and  C_10
REMARK    6  A    between atoms: C_10  and  C_11
REMARK    7  A    between atoms: C_12  and  C_14
REMARK    8  A    between atoms: C_14  and  O_15
REMARK    9  A    between atoms: C_16  and  C_17
REMARK   10  A    between atoms: C_19  and  O_20
REMARK   11  A    between atoms: C_33  and  C_34
REMARK                            x       y       z     vdW  Elec       q    Type
REMARK                         _______ _______ _______ _____ _____    ______ ____
ROOT
ATOM      1  C   UNL     1      -9.000  -0.121 125.175  0.00  0.00    +0.000 C 
ATOM      2  C   UNL     1     -10.318   0.129 125.629  0.00  0.00    +0.000 C 
ATOM      3  C   UNL     1      -9.204   0.895 126.233  0.00  0.00    +0.000 C 
ATOM      4  C   UNL     1      -7.380   0.905 125.174  0.00  0.00    +0.000 C 
ATOM      5  C   UNL     1      -8.512   1.715 125.105  0.00  0.00    +0.000 C 
ATOM      6  C   UNL     1      -9.057   2.397 123.910  0.00  0.00    +0.000 C 
ATOM      7  C   UNL     1      -7.830   2.472 126.686  0.00  0.00    +0.000 C 
ATOM      8  C   UNL     1      -7.007   1.310 127.642  0.00  0.00    +0.000 C 
ATOM      9  C   UNL     1      -7.658  -0.199 127.918  0.00  0.00    +0.000 C 
ATOM     10  C   UNL     1      -8.023  -1.015 126.480  0.00  0.00    +0.000 C 
ATOM     11  C   UNL     1      -8.735  -2.332 126.703  0.00  0.00    +0.000 C 
ATOM     12  C   UNL     1      -8.022  -3.188 127.710  0.00  0.00    +0.000 C 
ATOM     13  C   UNL     1      -7.673  -2.502 128.996  0.00  0.00    +0.000 C 
ATOM     14  C   UNL     1      -7.861  -3.143 130.156  0.00  0.00    +0.000 C 
ATOM     15  C   UNL     1      -7.157  -2.538 131.283  0.00  0.00    +0.000 C 
ATOM     16  O   UNL     1      -5.948  -2.602 131.489  0.00  0.00    +0.000 OA
ATOM     17  C   UNL     1      -7.905  -1.441 131.847  0.00  0.00    +0.000 C 
ATOM     18  C   UNL     1      -7.290  -0.454 130.600  0.00  0.00    +0.000 C 
ATOM     19  C   UNL     1      -6.993  -1.131 128.992  0.00  0.00    +0.000 C 
ATOM     20  C   UNL     1      -5.554  -1.373 128.461  0.00  0.00    +0.000 C 
ENDROOT
BRANCH   4  21
ATOM     21  C   UNL     1      -6.256   2.246 124.601  0.00  0.00    +0.000 C 
ATOM     22  O   UNL     1      -5.281   2.665 125.266  0.00  0.00    +0.000 OA
BRANCH  21  23
ATOM     23  C   UNL     1      -6.434   3.131 123.281  0.00  0.00    +0.000 C 
BRANCH  23  24
ATOM     24  O   UNL     1      -6.287   4.569 123.551  0.00  0.00    +0.000 OA
ATOM     25  H   UNL     1      -5.638   4.944 122.924  0.00  0.00    +0.000 HD
ENDBRANCH  23  24
ENDBRANCH  21  23
ENDBRANCH   4  21
BRANCH   8  26
ATOM     26  O   UNL     1      -5.699   1.206 127.048  0.00  0.00    +0.000 OA
ATOM     27  H   UNL     1      -5.073   1.834 127.451  0.00  0.00    +0.000 HD
ENDBRANCH   8  26
BRANCH   4  28
ATOM     28  O   UNL     1      -7.286   0.214 123.678  0.00  0.00    +0.000 OA
BRANCH  28  29
ATOM     29  C   UNL     1      -6.720  -1.006 123.394  0.00  0.00    +0.000 C 
ATOM     30  O   UNL     1      -6.941  -1.638 122.368  0.00  0.00    +0.000 OA
BRANCH  29  31
ATOM     31  C   UNL     1      -5.661  -1.564 124.320  0.00  0.00    +0.000 C 
BRANCH  31  32
ATOM     32  C   UNL     1      -5.816  -3.114 124.270  0.00  0.00    +0.000 C 
ATOM     33  C   UNL     1      -4.601  -3.852 123.757  0.00  0.00    +0.000 C 
ENDBRANCH  31  32
ENDBRANCH  29  31
ENDBRANCH  28  29
ENDBRANCH   4  28
TORSDOF 8
ENDMDL
MODEL 9
REMARK VINA RESULT:      -7.2      3.784      5.969
REMARK  Name = Hydrocortisone butyrate
REMARK  11 active torsions:
REMARK  status: ('A' for Active; 'I' for Inactive)
REMARK    1  A    between atoms: C_5  and  O_6
REMARK    2  A    between atoms: C_5  and  C_12
REMARK    3  A    between atoms: O_6  and  C_7
REMARK    4  A    between atoms: C_7  and  C_9
REMARK    5  A    between atoms: C_9  and  C_10
REMARK    6  A    between atoms: C_10  and  C_11
REMARK    7  A    between atoms: C_12  and  C_14
REMARK    8  A    between atoms: C_14  and  O_15
REMARK    9  A    between atoms: C_16  and  C_17
REMARK   10  A    between atoms: C_19  and  O_20
REMARK   11  A    between atoms: C_33  and  C_34
REMARK                            x       y       z     vdW  Elec       q    Type
REMARK                         _______ _______ _______ _____ _____    ______ ____
ROOT
ATOM      1  C   UNL     1      -7.370   3.591 128.033  0.00  0.00    +0.000 C 
ATOM      2  C   UNL     1      -8.227   3.409 129.146  0.00  0.00    +0.000 C 
ATOM      3  C   UNL     1      -6.965   2.635 129.089  0.00  0.00    +0.000 C 
ATOM      4  C   UNL     1      -5.493   3.326 127.744  0.00  0.00    +0.000 C 
ATOM      5  C   UNL     1      -5.779   3.644 129.071  0.00  0.00    +0.000 C 
ATOM      6  C   UNL     1      -5.588   4.950 129.743  0.00  0.00    +0.000 C 
ATOM      7  C   UNL     1      -4.954   1.996 129.443  0.00  0.00    +0.000 C 
ATOM      8  C   UNL     1      -5.233   0.851 128.196  0.00  0.00    +0.000 C 
ATOM      9  C   UNL     1      -6.749   0.641 127.540  0.00  0.00    +0.000 C 
ATOM     10  C   UNL     1      -7.397   2.086 126.940  0.00  0.00    +0.000 C 
ATOM     11  C   UNL     1      -8.825   1.948 126.459  0.00  0.00    +0.000 C 
ATOM     12  C   UNL     1      -8.986   0.788 125.519  0.00  0.00    +0.000 C 
ATOM     13  C   UNL     1      -8.420  -0.510 126.007  0.00  0.00    +0.000 C 
ATOM     14  C   UNL     1      -9.119  -1.639 125.836  0.00  0.00    +0.000 C 
ATOM     15  C   UNL     1      -8.327  -2.854 126.008  0.00  0.00    +0.000 C 
ATOM     16  O   UNL     1      -7.503  -3.289 125.209  0.00  0.00    +0.000 OA
ATOM     17  C   UNL     1      -8.211  -3.217 127.399  0.00  0.00    +0.000 C 
ATOM     18  C   UNL     1      -6.957  -2.070 127.537  0.00  0.00    +0.000 C 
ATOM     19  C   UNL     1      -7.004  -0.578 126.584  0.00  0.00    +0.000 C 
ATOM     20  C   UNL     1      -6.045  -0.344 125.386  0.00  0.00    +0.000 C 
ENDROOT
BRANCH   4  21
ATOM     21  C   UNL     1      -3.705   3.729 127.922  0.00  0.00    +0.000 C 
ATOM     22  O   UNL     1      -3.200   4.193 128.969  0.00  0.00    +0.000 OA
BRANCH  21  23
ATOM     23  C   UNL     1      -2.603   3.672 126.765  0.00  0.00    +0.000 C 
BRANCH  23  24
ATOM     24  O   UNL     1      -1.767   2.466 126.853  0.00  0.00    +0.000 OA
ATOM     25  H   UNL     1      -2.119   1.887 127.558  0.00  0.00    +0.000 HD
ENDBRANCH  23  24
ENDBRANCH  21  23
ENDBRANCH   4  21
BRANCH   8  26
ATOM     26  O   UNL     1      -4.270   1.179 127.175  0.00  0.00    +0.000 OA
ATOM     27  H   UNL     1      -4.324   0.562 126.423  0.00  0.00    +0.000 HD
ENDBRANCH   8  26
BRANCH   4  28
ATOM     28  O   UNL     1      -5.713   4.745 126.932  0.00  0.00    +0.000 OA
BRANCH  28  29
ATOM     29  C   UNL     1      -5.852   4.875 125.570  0.00  0.00    +0.000 C 
ATOM     30  O   UNL     1      -6.202   5.910 125.017  0.00  0.00    +0.000 OA
BRANCH  29  31
ATOM     31  C   UNL     1      -5.430   3.733 124.672  0.00  0.00    +0.000 C 
BRANCH  31  32
ATOM     32  C   UNL     1      -6.398   3.765 123.451  0.00  0.00    +0.000 C 
ATOM     33  C   UNL     1      -6.880   2.407 122.994  0.00  0.00    +0.000 C 
ENDBRANCH  31  32
ENDBRANCH  29  31
ENDBRANCH  28  29
ENDBRANCH   4  28
TORSDOF 8
ENDMDL
