MODEL 1
REMARK VINA RESULT:      -8.0      0.000      0.000
REMARK  Name = Hydroxyprogesterone caproate
REMARK  11 active torsions:
REMARK  status: ('A' for Active; 'I' for Inactive)
REMARK    1  A    between atoms: C_5  and  O_6
REMARK    2  A    between atoms: C_5  and  C_14
REMARK    3  A    between atoms: O_6  and  C_7
REMARK    4  A    between atoms: C_7  and  C_9
REMARK    5  A    between atoms: C_9  and  C_10
REMARK    6  A    between atoms: C_10  and  C_11
REMARK    7  A    between atoms: C_11  and  C_12
REMARK    8  A    between atoms: C_12  and  C_13
REMARK    9  A    between atoms: C_14  and  C_15
REMARK   10  A    between atoms: C_17  and  C_18
REMARK   11  A    between atoms: C_33  and  C_34
REMARK                            x       y       z     vdW  Elec       q    Type
REMARK                         _______ _______ _______ _____ _____    ______ ____
ROOT
ATOM      1  C   UNL     1      -6.535  -0.866 126.240  0.00  0.00    +0.000 C 
ATOM      2  C   UNL     1      -5.679  -1.120 125.008  0.00  0.00    +0.000 C 
ATOM      3  C   UNL     1      -6.433  -0.443 123.851  0.00  0.00    +0.000 C 
ATOM      4  C   UNL     1      -7.622   0.337 124.471  0.00  0.00    +0.000 C 
ATOM      5  C   UNL     1      -7.213   0.487 125.987  0.00  0.00    +0.000 C 
ATOM      6  C   UNL     1      -6.218   1.657 126.188  0.00  0.00    +0.000 C 
ATOM      7  C   UNL     1      -8.375   0.608 126.989  0.00  0.00    +0.000 C 
ATOM      8  C   UNL     1      -7.914   0.385 128.442  0.00  0.00    +0.000 C 
ATOM      9  C   UNL     1      -7.075  -0.904 128.665  0.00  0.00    +0.000 C 
ATOM     10  C   UNL     1      -5.936  -1.075 127.612  0.00  0.00    +0.000 C 
ATOM     11  C   UNL     1      -5.369  -2.501 127.711  0.00  0.00    +0.000 C 
ATOM     12  C   UNL     1      -4.848  -2.811 129.101  0.00  0.00    +0.000 C 
ATOM     13  C   UNL     1      -5.825  -2.456 130.196  0.00  0.00    +0.000 C 
ATOM     14  C   UNL     1      -6.038  -3.335 131.191  0.00  0.00    +0.000 C 
ATOM     15  C   UNL     1      -6.808  -2.955 132.396  0.00  0.00    +0.000 C 
ATOM     16  O   UNL     1      -6.965  -3.775 133.297  0.00  0.00    +0.000 OA
ATOM     17  C   UNL     1      -7.255  -1.523 132.517  0.00  0.00    +0.000 C 
ATOM     18  C   UNL     1      -7.657  -0.990 131.147  0.00  0.00    +0.000 C 
ATOM     19  C   UNL     1      -6.502  -1.079 130.113  0.00  0.00    +0.000 C 
ATOM     20  C   UNL     1      -5.460   0.017 130.424  0.00  0.00    +0.000 C 
ENDROOT
BRANCH   4  21
ATOM     21  C   UNL     1      -7.873   1.736 123.830  0.00  0.00    +0.000 C 
ATOM     22  C   UNL     1      -6.912   2.333 122.818  0.00  0.00    +0.000 C 
ATOM     23  O   UNL     1      -8.847   2.421 124.173  0.00  0.00    +0.000 OA
ENDBRANCH   4  21
BRANCH   4  24
ATOM     24  O   UNL     1      -8.912  -0.385 124.333  0.00  0.00    +0.000 OA
BRANCH  24  25
ATOM     25  C   UNL     1      -9.256  -1.043 123.195  0.00  0.00    +0.000 C 
ATOM     26  O   UNL     1     -10.045  -0.629 122.348  0.00  0.00    +0.000 OA
BRANCH  25  27
ATOM     27  C   UNL     1      -8.646  -2.402 123.034  0.00  0.00    +0.000 C 
BRANCH  27  28
ATOM     28  C   UNL     1      -9.382  -3.347 124.003  0.00  0.00    +0.000 C 
BRANCH  28  29
ATOM     29  C   UNL     1      -8.559  -3.665 125.233  0.00  0.00    +0.000 C 
BRANCH  29  30
ATOM     30  C   UNL     1      -9.237  -3.129 126.493  0.00  0.00    +0.000 C 
ATOM     31  C   UNL     1      -8.807  -3.944 127.696  0.00  0.00    +0.000 C 
ENDBRANCH  29  30
ENDBRANCH  28  29
ENDBRANCH  27  28
ENDBRANCH  25  27
ENDBRANCH  24  25
ENDBRANCH   4  24
TORSDOF 7
ENDMDL
MODEL 2
REMARK VINA RESULT:      -7.8      2.962      5.978
REMARK  Name = Hydroxyprogesterone caproate
REMARK  11 active torsions:
REMARK  status: ('A' for Active; 'I' for Inactive)
REMARK    1  A    between atoms: C_5  and  O_6
REMARK    2  A    between atoms: C_5  and  C_14
REMARK    3  A    between atoms: O_6  and  C_7
REMARK    4  A    between atoms: C_7  and  C_9
REMARK    5  A    between atoms: C_9  and  C_10
REMARK    6  A    between atoms: C_10  and  C_11
REMARK    7  A    between atoms: C_11  and  C_12
REMARK    8  A    between atoms: C_12  and  C_13
REMARK    9  A    between atoms: C_14  and  C_15
REMARK   10  A    between atoms: C_17  and  C_18
REMARK   11  A    between atoms: C_33  and  C_34
REMARK                            x       y       z     vdW  Elec       q    Type
REMARK                         _______ _______ _______ _____ _____    ______ ____
ROOT
ATOM      1  C   UNL     1      -7.732   1.130 126.422  0.00  0.00    +0.000 C 
ATOM      2  C   UNL     1      -9.207   0.958 126.752  0.00  0.00    +0.000 C 
ATOM      3  C   UNL     1      -9.708  -0.130 125.787  0.00  0.00    +0.000 C 
ATOM      4  C   UNL     1      -8.469  -0.685 125.038  0.00  0.00    +0.000 C 
ATOM      5  C   UNL     1      -7.260  -0.252 125.953  0.00  0.00    +0.000 C 
ATOM      6  C   UNL     1      -7.087  -1.219 127.152  0.00  0.00    +0.000 C 
ATOM      7  C   UNL     1      -5.911  -0.055 125.239  0.00  0.00    +0.000 C 
ATOM      8  C   UNL     1      -4.897   0.704 126.115  0.00  0.00    +0.000 C 
ATOM      9  C   UNL     1      -5.435   2.024 126.733  0.00  0.00    +0.000 C 
ATOM     10  C   UNL     1      -6.835   1.854 127.400  0.00  0.00    +0.000 C 
ATOM     11  C   UNL     1      -7.422   3.244 127.700  0.00  0.00    +0.000 C 
ATOM     12  C   UNL     1      -6.513   4.064 128.595  0.00  0.00    +0.000 C 
ATOM     13  C   UNL     1      -5.078   4.086 128.124  0.00  0.00    +0.000 C 
ATOM     14  C   UNL     1      -4.417   5.256 128.105  0.00  0.00    +0.000 C 
ATOM     15  C   UNL     1      -2.956   5.307 127.868  0.00  0.00    +0.000 C 
ATOM     16  O   UNL     1      -2.379   6.390 127.879  0.00  0.00    +0.000 OA
ATOM     17  C   UNL     1      -2.222   3.997 127.753  0.00  0.00    +0.000 C 
ATOM     18  C   UNL     1      -3.087   2.983 127.016  0.00  0.00    +0.000 C 
ATOM     19  C   UNL     1      -4.451   2.743 127.719  0.00  0.00    +0.000 C 
ATOM     20  C   UNL     1      -4.225   1.888 128.984  0.00  0.00    +0.000 C 
ENDROOT
BRANCH   4  21
ATOM     21  C   UNL     1      -8.481  -2.232 124.841  0.00  0.00    +0.000 C 
ATOM     22  C   UNL     1      -9.465  -3.123 125.581  0.00  0.00    +0.000 C 
ATOM     23  O   UNL     1      -7.646  -2.781 124.109  0.00  0.00    +0.000 OA
ENDBRANCH   4  21
BRANCH   4  24
ATOM     24  O   UNL     1      -8.332  -0.127 123.669  0.00  0.00    +0.000 OA
BRANCH  24  25
ATOM     25  C   UNL     1      -9.383   0.411 122.998  0.00  0.00    +0.000 C 
ATOM     26  O   UNL     1     -10.301  -0.228 122.488  0.00  0.00    +0.000 OA
BRANCH  25  27
ATOM     27  C   UNL     1      -9.344   1.901 122.840  0.00  0.00    +0.000 C 
BRANCH  27  28
ATOM     28  C   UNL     1      -7.864   2.325 122.896  0.00  0.00    +0.000 C 
BRANCH  28  29
ATOM     29  C   UNL     1      -7.616   3.415 123.917  0.00  0.00    +0.000 C 
BRANCH  29  30
ATOM     30  C   UNL     1      -6.174   3.912 123.840  0.00  0.00    +0.000 C 
ATOM     31  C   UNL     1      -5.987   5.096 124.769  0.00  0.00    +0.000 C 
ENDBRANCH  29  30
ENDBRANCH  28  29
ENDBRANCH  27  28
ENDBRANCH  25  27
ENDBRANCH  24  25
ENDBRANCH   4  24
TORSDOF 7
ENDMDL
MODEL 3
REMARK VINA RESULT:      -7.3      1.665      4.116
REMARK  Name = Hydroxyprogesterone caproate
REMARK  11 active torsions:
REMARK  status: ('A' for Active; 'I' for Inactive)
REMARK    1  A    between atoms: C_5  and  O_6
REMARK    2  A    between atoms: C_5  and  C_14
REMARK    3  A    between atoms: O_6  and  C_7
REMARK    4  A    between atoms: C_7  and  C_9
REMARK    5  A    between atoms: C_9  and  C_10
REMARK    6  A    between atoms: C_10  and  C_11
REMARK    7  A    between atoms: C_11  and  C_12
REMARK    8  A    between atoms: C_12  and  C_13
REMARK    9  A    between atoms: C_14  and  C_15
REMARK   10  A    between atoms: C_17  and  C_18
REMARK   11  A    between atoms: C_33  and  C_34
REMARK                            x       y       z     vdW  Elec       q    Type
REMARK                         _______ _______ _______ _____ _____    ______ ____
ROOT
ATOM      1  C   UNL     1      -7.984  -0.120 126.707  0.00  0.00    +0.000 C 
ATOM      2  C   UNL     1      -9.249   0.723 126.644  0.00  0.00    +0.000 C 
ATOM      3  C   UNL     1      -9.541   0.896 125.145  0.00  0.00    +0.000 C 
ATOM      4  C   UNL     1      -8.533   0.003 124.374  0.00  0.00    +0.000 C 
ATOM      5  C   UNL     1      -8.039  -1.021 125.467  0.00  0.00    +0.000 C 
ATOM      6  C   UNL     1      -9.058  -2.173 125.659  0.00  0.00    +0.000 C 
ATOM      7  C   UNL     1      -6.628  -1.599 125.260  0.00  0.00    +0.000 C 
ATOM      8  C   UNL     1      -6.091  -2.288 126.529  0.00  0.00    +0.000 C 
ATOM      9  C   UNL     1      -6.195  -1.434 127.823  0.00  0.00    +0.000 C 
ATOM     10  C   UNL     1      -7.602  -0.785 128.009  0.00  0.00    +0.000 C 
ATOM     11  C   UNL     1      -7.524   0.274 129.121  0.00  0.00    +0.000 C 
ATOM     12  C   UNL     1      -7.041  -0.313 130.434  0.00  0.00    +0.000 C 
ATOM     13  C   UNL     1      -5.792  -1.149 130.287  0.00  0.00    +0.000 C 
ATOM     14  C   UNL     1      -4.791  -0.985 131.168  0.00  0.00    +0.000 C 
ATOM     15  C   UNL     1      -3.645  -1.921 131.209  0.00  0.00    +0.000 C 
ATOM     16  O   UNL     1      -2.758  -1.756 132.041  0.00  0.00    +0.000 OA
ATOM     17  C   UNL     1      -3.692  -3.122 130.301  0.00  0.00    +0.000 C 
ATOM     18  C   UNL     1      -4.326  -2.738 128.970  0.00  0.00    +0.000 C 
ATOM     19  C   UNL     1      -5.761  -2.168 129.137  0.00  0.00    +0.000 C 
ATOM     20  C   UNL     1      -6.730  -3.326 129.461  0.00  0.00    +0.000 C 
ENDROOT
BRANCH   4  21
ATOM     21  C   UNL     1      -9.147  -0.749 123.155  0.00  0.00    +0.000 C 
ATOM     22  C   UNL     1      -8.359  -1.793 122.382  0.00  0.00    +0.000 C 
ATOM     23  O   UNL     1     -10.286  -0.475 122.753  0.00  0.00    +0.000 OA
ENDBRANCH   4  21
BRANCH   4  24
ATOM     24  O   UNL     1      -7.397   0.778 123.814  0.00  0.00    +0.000 OA
BRANCH  24  25
ATOM     25  C   UNL     1      -7.501   2.096 123.505  0.00  0.00    +0.000 C 
ATOM     26  O   UNL     1      -8.079   2.551 122.520  0.00  0.00    +0.000 OA
BRANCH  25  27
ATOM     27  C   UNL     1      -6.787   3.028 124.437  0.00  0.00    +0.000 C 
BRANCH  27  28
ATOM     28  C   UNL     1      -5.747   2.191 125.207  0.00  0.00    +0.000 C 
BRANCH  28  29
ATOM     29  C   UNL     1      -5.653   2.590 126.664  0.00  0.00    +0.000 C 
BRANCH  29  30
ATOM     30  C   UNL     1      -4.585   1.768 127.383  0.00  0.00    +0.000 C 
ATOM     31  C   UNL     1      -4.430   2.259 128.809  0.00  0.00    +0.000 C 
ENDBRANCH  29  30
ENDBRANCH  28  29
ENDBRANCH  27  28
ENDBRANCH  25  27
ENDBRANCH  24  25
ENDBRANCH   4  24
TORSDOF 7
ENDMDL
MODEL 4
REMARK VINA RESULT:      -7.2      1.625      7.344
REMARK  Name = Hydroxyprogesterone caproate
REMARK  11 active torsions:
REMARK  status: ('A' for Active; 'I' for Inactive)
REMARK    1  A    between atoms: C_5  and  O_6
REMARK    2  A    between atoms: C_5  and  C_14
REMARK    3  A    between atoms: O_6  and  C_7
REMARK    4  A    between atoms: C_7  and  C_9
REMARK    5  A    between atoms: C_9  and  C_10
REMARK    6  A    between atoms: C_10  and  C_11
REMARK    7  A    between atoms: C_11  and  C_12
REMARK    8  A    between atoms: C_12  and  C_13
REMARK    9  A    between atoms: C_14  and  C_15
REMARK   10  A    between atoms: C_17  and  C_18
REMARK   11  A    between atoms: C_33  and  C_34
REMARK                            x       y       z     vdW  Elec       q    Type
REMARK                         _______ _______ _______ _____ _____    ______ ____
ROOT
ATOM      1  C   UNL     1      -6.153  -1.577 128.933  0.00  0.00    +0.000 C 
ATOM      2  C   UNL     1      -4.849  -1.090 129.548  0.00  0.00    +0.000 C 
ATOM      3  C   UNL     1      -5.044  -1.234 131.066  0.00  0.00    +0.000 C 
ATOM      4  C   UNL     1      -6.394  -1.965 131.289  0.00  0.00    +0.000 C 
ATOM      5  C   UNL     1      -6.675  -2.650 129.897  0.00  0.00    +0.000 C 
ATOM      6  C   UNL     1      -5.877  -3.970 129.748  0.00  0.00    +0.000 C 
ATOM      7  C   UNL     1      -8.156  -2.891 129.551  0.00  0.00    +0.000 C 
ATOM      8  C   UNL     1      -8.357  -3.217 128.059  0.00  0.00    +0.000 C 
ATOM      9  C   UNL     1      -7.678  -2.219 127.080  0.00  0.00    +0.000 C 
ATOM     10  C   UNL     1      -6.196  -1.913 127.460  0.00  0.00    +0.000 C 
ATOM     11  C   UNL     1      -5.708  -0.703 126.645  0.00  0.00    +0.000 C 
ATOM     12  C   UNL     1      -5.828  -0.938 125.152  0.00  0.00    +0.000 C 
ATOM     13  C   UNL     1      -7.184  -1.456 124.738  0.00  0.00    +0.000 C 
ATOM     14  C   UNL     1      -7.790  -0.915 123.667  0.00  0.00    +0.000 C 
ATOM     15  C   UNL     1      -9.007  -1.525 123.086  0.00  0.00    +0.000 C 
ATOM     16  O   UNL     1      -9.523  -1.017 122.094  0.00  0.00    +0.000 OA
ATOM     17  C   UNL     1      -9.481  -2.829 123.669  0.00  0.00    +0.000 C 
ATOM     18  C   UNL     1      -9.265  -2.828 125.178  0.00  0.00    +0.000 C 
ATOM     19  C   UNL     1      -7.778  -2.607 125.565  0.00  0.00    +0.000 C 
ATOM     20  C   UNL     1      -6.983  -3.899 125.279  0.00  0.00    +0.000 C 
ENDROOT
BRANCH   4  21
ATOM     21  C   UNL     1      -6.365  -3.029 132.428  0.00  0.00    +0.000 C 
ATOM     22  C   UNL     1      -5.059  -3.589 132.962  0.00  0.00    +0.000 C 
ATOM     23  O   UNL     1      -7.420  -3.483 132.894  0.00  0.00    +0.000 OA
ENDBRANCH   4  21
BRANCH   4  24
ATOM     24  O   UNL     1      -7.492  -1.036 131.660  0.00  0.00    +0.000 OA
BRANCH  24  25
ATOM     25  C   UNL     1      -7.259   0.147 132.286  0.00  0.00    +0.000 C 
ATOM     26  O   UNL     1      -7.041   0.281 133.489  0.00  0.00    +0.000 OA
BRANCH  25  27
ATOM     27  C   UNL     1      -7.345   1.360 131.411  0.00  0.00    +0.000 C 
BRANCH  27  28
ATOM     28  C   UNL     1      -8.225   0.987 130.203  0.00  0.00    +0.000 C 
BRANCH  28  29
ATOM     29  C   UNL     1      -7.787   1.687 128.934  0.00  0.00    +0.000 C 
BRANCH  29  30
ATOM     30  C   UNL     1      -8.618   1.219 127.742  0.00  0.00    +0.000 C 
ATOM     31  C   UNL     1      -8.177   1.948 126.488  0.00  0.00    +0.000 C 
ENDBRANCH  29  30
ENDBRANCH  28  29
ENDBRANCH  27  28
ENDBRANCH  25  27
ENDBRANCH  24  25
ENDBRANCH   4  24
TORSDOF 7
ENDMDL
MODEL 5
REMARK VINA RESULT:      -7.1      1.836      7.686
REMARK  Name = Hydroxyprogesterone caproate
REMARK  11 active torsions:
REMARK  status: ('A' for Active; 'I' for Inactive)
REMARK    1  A    between atoms: C_5  and  O_6
REMARK    2  A    between atoms: C_5  and  C_14
REMARK    3  A    between atoms: O_6  and  C_7
REMARK    4  A    between atoms: C_7  and  C_9
REMARK    5  A    between atoms: C_9  and  C_10
REMARK    6  A    between atoms: C_10  and  C_11
REMARK    7  A    between atoms: C_11  and  C_12
REMARK    8  A    between atoms: C_12  and  C_13
REMARK    9  A    between atoms: C_14  and  C_15
REMARK   10  A    between atoms: C_17  and  C_18
REMARK   11  A    between atoms: C_33  and  C_34
REMARK                            x       y       z     vdW  Elec       q    Type
REMARK                         _______ _______ _______ _____ _____    ______ ____
ROOT
ATOM      1  C   UNL     1      -5.086  -1.437 129.929  0.00  0.00    +0.000 C 
ATOM      2  C   UNL     1      -3.823  -0.837 130.529  0.00  0.00    +0.000 C 
ATOM      3  C   UNL     1      -3.632  -1.565 131.869  0.00  0.00    +0.000 C 
ATOM      4  C   UNL     1      -4.693  -2.694 131.935  0.00  0.00    +0.000 C 
ATOM      5  C   UNL     1      -5.118  -2.887 130.429  0.00  0.00    +0.000 C 
ATOM      6  C   UNL     1      -4.095  -3.764 129.663  0.00  0.00    +0.000 C 
ATOM      7  C   UNL     1      -6.544  -3.419 130.194  0.00  0.00    +0.000 C 
ATOM      8  C   UNL     1      -6.998  -3.234 128.734  0.00  0.00    +0.000 C 
ATOM      9  C   UNL     1      -6.804  -1.799 128.171  0.00  0.00    +0.000 C 
ATOM     10  C   UNL     1      -5.384  -1.221 128.463  0.00  0.00    +0.000 C 
ATOM     11  C   UNL     1      -5.382   0.286 128.158  0.00  0.00    +0.000 C 
ATOM     12  C   UNL     1      -5.780   0.577 126.723  0.00  0.00    +0.000 C 
ATOM     13  C   UNL     1      -7.040  -0.139 126.299  0.00  0.00    +0.000 C 
ATOM     14  C   UNL     1      -7.979   0.543 125.621  0.00  0.00    +0.000 C 
ATOM     15  C   UNL     1      -9.124  -0.152 124.992  0.00  0.00    +0.000 C 
ATOM     16  O   UNL     1      -9.954   0.497 124.361  0.00  0.00    +0.000 OA
ATOM     17  C   UNL     1      -9.145  -1.657 125.047  0.00  0.00    +0.000 C 
ATOM     18  C   UNL     1      -8.599  -2.131 126.389  0.00  0.00    +0.000 C 
ATOM     19  C   UNL     1      -7.153  -1.630 126.653  0.00  0.00    +0.000 C 
ATOM     20  C   UNL     1      -6.171  -2.435 125.774  0.00  0.00    +0.000 C 
ENDROOT
BRANCH   4  21
ATOM     21  C   UNL     1      -4.166  -4.034 132.532  0.00  0.00    +0.000 C 
ATOM     22  C   UNL     1      -5.109  -5.158 132.927  0.00  0.00    +0.000 C 
ATOM     23  O   UNL     1      -2.956  -4.196 132.747  0.00  0.00    +0.000 OA
ENDBRANCH   4  21
BRANCH   4  24
ATOM     24  O   UNL     1      -5.860  -2.332 132.779  0.00  0.00    +0.000 OA
BRANCH  24  25
ATOM     25  C   UNL     1      -5.911  -1.173 133.485  0.00  0.00    +0.000 C 
ATOM     26  O   UNL     1      -5.320  -0.959 134.541  0.00  0.00    +0.000 OA
BRANCH  25  27
ATOM     27  C   UNL     1      -6.822  -0.123 132.923  0.00  0.00    +0.000 C 
BRANCH  27  28
ATOM     28  C   UNL     1      -8.073  -0.847 132.389  0.00  0.00    +0.000 C 
BRANCH  28  29
ATOM     29  C   UNL     1      -8.489  -0.343 131.024  0.00  0.00    +0.000 C 
BRANCH  29  30
ATOM     30  C   UNL     1      -7.865   1.021 130.735  0.00  0.00    +0.000 C 
ATOM     31  C   UNL     1      -8.446   1.593 129.457  0.00  0.00    +0.000 C 
ENDBRANCH  29  30
ENDBRANCH  28  29
ENDBRANCH  27  28
ENDBRANCH  25  27
ENDBRANCH  24  25
ENDBRANCH   4  24
TORSDOF 7
ENDMDL
MODEL 6
REMARK VINA RESULT:      -7.0      2.370      4.941
REMARK  Name = Hydroxyprogesterone caproate
REMARK  11 active torsions:
REMARK  status: ('A' for Active; 'I' for Inactive)
REMARK    1  A    between atoms: C_5  and  O_6
REMARK    2  A    between atoms: C_5  and  C_14
REMARK    3  A    between atoms: O_6  and  C_7
REMARK    4  A    between atoms: C_7  and  C_9
REMARK    5  A    between atoms: C_9  and  C_10
REMARK    6  A    between atoms: C_10  and  C_11
REMARK    7  A    between atoms: C_11  and  C_12
REMARK    8  A    between atoms: C_12  and  C_13
REMARK    9  A    between atoms: C_14  and  C_15
REMARK   10  A    between atoms: C_17  and  C_18
REMARK   11  A    between atoms: C_33  and  C_34
REMARK                            x       y       z     vdW  Elec       q    Type
REMARK                         _______ _______ _______ _____ _____    ______ ____
ROOT
ATOM      1  C   UNL     1      -7.440   0.943 128.673  0.00  0.00    +0.000 C 
ATOM      2  C   UNL     1      -8.352   2.149 128.847  0.00  0.00    +0.000 C 
ATOM      3  C   UNL     1      -7.988   3.096 127.693  0.00  0.00    +0.000 C 
ATOM      4  C   UNL     1      -6.992   2.341 126.774  0.00  0.00    +0.000 C 
ATOM      5  C   UNL     1      -7.212   0.827 127.160  0.00  0.00    +0.000 C 
ATOM      6  C   UNL     1      -8.458   0.241 126.451  0.00  0.00    +0.000 C 
ATOM      7  C   UNL     1      -6.003  -0.103 126.951  0.00  0.00    +0.000 C 
ATOM      8  C   UNL     1      -6.177  -1.450 127.678  0.00  0.00    +0.000 C 
ATOM      9  C   UNL     1      -6.579  -1.332 129.174  0.00  0.00    +0.000 C 
ATOM     10  C   UNL     1      -7.758  -0.338 129.408  0.00  0.00    +0.000 C 
ATOM     11  C   UNL     1      -7.881  -0.048 130.913  0.00  0.00    +0.000 C 
ATOM     12  C   UNL     1      -8.095  -1.313 131.722  0.00  0.00    +0.000 C 
ATOM     13  C   UNL     1      -7.115  -2.409 131.381  0.00  0.00    +0.000 C 
ATOM     14  C   UNL     1      -6.527  -3.092 132.379  0.00  0.00    +0.000 C 
ATOM     15  C   UNL     1      -5.735  -4.313 132.109  0.00  0.00    +0.000 C 
ATOM     16  O   UNL     1      -5.230  -4.926 133.045  0.00  0.00    +0.000 OA
ATOM     17  C   UNL     1      -5.697  -4.822 130.692  0.00  0.00    +0.000 C 
ATOM     18  C   UNL     1      -5.656  -3.647 129.723  0.00  0.00    +0.000 C 
ATOM     19  C   UNL     1      -6.872  -2.695 129.891  0.00  0.00    +0.000 C 
ATOM     20  C   UNL     1      -8.127  -3.367 129.292  0.00  0.00    +0.000 C 
ENDROOT
BRANCH   4  21
ATOM     21  C   UNL     1      -7.237   2.559 125.250  0.00  0.00    +0.000 C 
ATOM     22  C   UNL     1      -8.474   3.274 124.735  0.00  0.00    +0.000 C 
ATOM     23  O   UNL     1      -6.444   2.105 124.413  0.00  0.00    +0.000 OA
ENDBRANCH   4  21
BRANCH   4  24
ATOM     24  O   UNL     1      -5.583   2.752 126.999  0.00  0.00    +0.000 OA
BRANCH  24  25
ATOM     25  C   UNL     1      -5.258   3.945 127.561  0.00  0.00    +0.000 C 
ATOM     26  O   UNL     1      -5.392   5.042 127.024  0.00  0.00    +0.000 OA
BRANCH  25  27
ATOM     27  C   UNL     1      -4.633   3.860 128.921  0.00  0.00    +0.000 C 
BRANCH  27  28
ATOM     28  C   UNL     1      -4.057   2.438 129.068  0.00  0.00    +0.000 C 
BRANCH  28  29
ATOM     29  C   UNL     1      -4.405   1.812 130.402  0.00  0.00    +0.000 C 
BRANCH  29  30
ATOM     30  C   UNL     1      -4.017   0.335 130.425  0.00  0.00    +0.000 C 
ATOM     31  C   UNL     1      -4.157  -0.213 131.832  0.00  0.00    +0.000 C 
ENDBRANCH  29  30
ENDBRANCH  28  29
ENDBRANCH  27  28
ENDBRANCH  25  27
ENDBRANCH  24  25
ENDBRANCH   4  24
TORSDOF 7
ENDMDL
MODEL 7
REMARK VINA RESULT:      -6.9      3.184      6.549
REMARK  Name = Hydroxyprogesterone caproate
REMARK  11 active torsions:
REMARK  status: ('A' for Active; 'I' for Inactive)
REMARK    1  A    between atoms: C_5  and  O_6
REMARK    2  A    between atoms: C_5  and  C_14
REMARK    3  A    between atoms: O_6  and  C_7
REMARK    4  A    between atoms: C_7  and  C_9
REMARK    5  A    between atoms: C_9  and  C_10
REMARK    6  A    between atoms: C_10  and  C_11
REMARK    7  A    between atoms: C_11  and  C_12
REMARK    8  A    between atoms: C_12  and  C_13
REMARK    9  A    between atoms: C_14  and  C_15
REMARK   10  A    between atoms: C_17  and  C_18
REMARK   11  A    between atoms: C_33  and  C_34
REMARK                            x       y       z     vdW  Elec       q    Type
REMARK                         _______ _______ _______ _____ _____    ______ ____
ROOT
ATOM      1  C   UNL     1      -6.784   2.548 127.458  0.00  0.00    +0.000 C 
ATOM      2  C   UNL     1      -7.608   3.682 128.050  0.00  0.00    +0.000 C 
ATOM      3  C   UNL     1      -6.590   4.589 128.758  0.00  0.00    +0.000 C 
ATOM      4  C   UNL     1      -5.176   4.051 128.414  0.00  0.00    +0.000 C 
ATOM      5  C   UNL     1      -5.421   3.171 127.128  0.00  0.00    +0.000 C 
ATOM      6  C   UNL     1      -5.502   4.048 125.853  0.00  0.00    +0.000 C 
ATOM      7  C   UNL     1      -4.432   2.013 126.906  0.00  0.00    +0.000 C 
ATOM      8  C   UNL     1      -4.945   1.005 125.861  0.00  0.00    +0.000 C 
ATOM      9  C   UNL     1      -6.396   0.503 126.102  0.00  0.00    +0.000 C 
ATOM     10  C   UNL     1      -7.397   1.663 126.397  0.00  0.00    +0.000 C 
ATOM     11  C   UNL     1      -8.714   1.070 126.924  0.00  0.00    +0.000 C 
ATOM     12  C   UNL     1      -9.327   0.087 125.945  0.00  0.00    +0.000 C 
ATOM     13  C   UNL     1      -8.343  -0.941 125.440  0.00  0.00    +0.000 C 
ATOM     14  C   UNL     1      -8.715  -2.232 125.392  0.00  0.00    +0.000 C 
ATOM     15  C   UNL     1      -7.882  -3.245 124.705  0.00  0.00    +0.000 C 
ATOM     16  O   UNL     1      -8.263  -4.411 124.661  0.00  0.00    +0.000 OA
ATOM     17  C   UNL     1      -6.658  -2.762 123.974  0.00  0.00    +0.000 C 
ATOM     18  C   UNL     1      -6.005  -1.628 124.754  0.00  0.00    +0.000 C 
ATOM     19  C   UNL     1      -6.968  -0.431 124.981  0.00  0.00    +0.000 C 
ATOM     20  C   UNL     1      -7.132   0.344 123.656  0.00  0.00    +0.000 C 
ENDROOT
BRANCH   4  21
ATOM     21  C   UNL     1      -4.122   5.163 128.124  0.00  0.00    +0.000 C 
ATOM     22  C   UNL     1      -2.636   4.855 128.057  0.00  0.00    +0.000 C 
ATOM     23  O   UNL     1      -4.471   6.344 127.991  0.00  0.00    +0.000 OA
ENDBRANCH   4  21
BRANCH   4  24
ATOM     24  O   UNL     1      -4.589   3.244 129.512  0.00  0.00    +0.000 OA
BRANCH  24  25
ATOM     25  C   UNL     1      -5.225   3.064 130.699  0.00  0.00    +0.000 C 
ATOM     26  O   UNL     1      -5.252   3.879 131.619  0.00  0.00    +0.000 OA
BRANCH  25  27
ATOM     27  C   UNL     1      -5.879   1.728 130.877  0.00  0.00    +0.000 C 
BRANCH  27  28
ATOM     28  C   UNL     1      -4.864   0.662 130.422  0.00  0.00    +0.000 C 
BRANCH  28  29
ATOM     29  C   UNL     1      -5.479  -0.354 129.482  0.00  0.00    +0.000 C 
BRANCH  29  30
ATOM     30  C   UNL     1      -6.978  -0.491 129.739  0.00  0.00    +0.000 C 
ATOM     31  C   UNL     1      -7.513  -1.718 129.026  0.00  0.00    +0.000 C 
ENDBRANCH  29  30
ENDBRANCH  28  29
ENDBRANCH  27  28
ENDBRANCH  25  27
ENDBRANCH  24  25
ENDBRANCH   4  24
TORSDOF 7
ENDMDL
MODEL 8
REMARK VINA RESULT:      -6.8      6.188      8.474
REMARK  Name = Hydroxyprogesterone caproate
REMARK  11 active torsions:
REMARK  status: ('A' for Active; 'I' for Inactive)
REMARK    1  A    between atoms: C_5  and  O_6
REMARK    2  A    between atoms: C_5  and  C_14
REMARK    3  A    between atoms: O_6  and  C_7
REMARK    4  A    between atoms: C_7  and  C_9
REMARK    5  A    between atoms: C_9  and  C_10
REMARK    6  A    between atoms: C_10  and  C_11
REMARK    7  A    between atoms: C_11  and  C_12
REMARK    8  A    between atoms: C_12  and  C_13
REMARK    9  A    between atoms: C_14  and  C_15
REMARK   10  A    between atoms: C_17  and  C_18
REMARK   11  A    between atoms: C_33  and  C_34
REMARK                            x       y       z     vdW  Elec       q    Type
REMARK                         _______ _______ _______ _____ _____    ______ ____
ROOT
ATOM      1  C   UNL     1      -4.142   3.709 130.108  0.00  0.00    +0.000 C 
ATOM      2  C   UNL     1      -4.200   2.189 130.070  0.00  0.00    +0.000 C 
ATOM      3  C   UNL     1      -4.949   1.849 128.772  0.00  0.00    +0.000 C 
ATOM      4  C   UNL     1      -5.157   3.178 127.999  0.00  0.00    +0.000 C 
ATOM      5  C   UNL     1      -4.087   4.146 128.638  0.00  0.00    +0.000 C 
ATOM      6  C   UNL     1      -2.680   3.906 128.036  0.00  0.00    +0.000 C 
ATOM      7  C   UNL     1      -4.427   5.647 128.596  0.00  0.00    +0.000 C 
ATOM      8  C   UNL     1      -3.533   6.470 129.542  0.00  0.00    +0.000 C 
ATOM      9  C   UNL     1      -3.452   5.925 130.995  0.00  0.00    +0.000 C 
ATOM     10  C   UNL     1      -3.177   4.390 131.051  0.00  0.00    +0.000 C 
ATOM     11  C   UNL     1      -3.421   3.887 132.484  0.00  0.00    +0.000 C 
ATOM     12  C   UNL     1      -2.555   4.611 133.496  0.00  0.00    +0.000 C 
ATOM     13  C   UNL     1      -2.600   6.113 133.352  0.00  0.00    +0.000 C 
ATOM     14  C   UNL     1      -2.738   6.871 134.454  0.00  0.00    +0.000 C 
ATOM     15  C   UNL     1      -2.567   8.340 134.400  0.00  0.00    +0.000 C 
ATOM     16  O   UNL     1      -2.679   9.000 135.429  0.00  0.00    +0.000 OA
ATOM     17  C   UNL     1      -2.131   8.945 133.091  0.00  0.00    +0.000 C 
ATOM     18  C   UNL     1      -2.790   8.203 131.935  0.00  0.00    +0.000 C 
ATOM     19  C   UNL     1      -2.454   6.687 131.933  0.00  0.00    +0.000 C 
ATOM     20  C   UNL     1      -0.999   6.492 131.455  0.00  0.00    +0.000 C 
ENDROOT
BRANCH   4  21
ATOM     21  C   UNL     1      -4.941   3.064 126.460  0.00  0.00    +0.000 C 
ATOM     22  C   UNL     1      -5.265   4.213 125.521  0.00  0.00    +0.000 C 
ATOM     23  O   UNL     1      -4.543   2.004 125.956  0.00  0.00    +0.000 OA
ENDBRANCH   4  21
BRANCH   4  24
ATOM     24  O   UNL     1      -6.530   3.720 128.154  0.00  0.00    +0.000 OA
BRANCH  24  25
ATOM     25  C   UNL     1      -7.580   2.939 128.519  0.00  0.00    +0.000 C 
ATOM     26  O   UNL     1      -8.162   2.145 127.782  0.00  0.00    +0.000 OA
BRANCH  25  27
ATOM     27  C   UNL     1      -8.070   3.140 129.921  0.00  0.00    +0.000 C 
BRANCH  27  28
ATOM     28  C   UNL     1      -7.609   4.542 130.365  0.00  0.00    +0.000 C 
BRANCH  28  29
ATOM     29  C   UNL     1      -7.187   4.575 131.818  0.00  0.00    +0.000 C 
BRANCH  29  30
ATOM     30  C   UNL     1      -6.732   5.977 132.219  0.00  0.00    +0.000 C 
ATOM     31  C   UNL     1      -7.029   6.955 131.100  0.00  0.00    +0.000 C 
ENDBRANCH  29  30
ENDBRANCH  28  29
ENDBRANCH  27  28
ENDBRANCH  25  27
ENDBRANCH  24  25
ENDBRANCH   4  24
TORSDOF 7
ENDMDL
MODEL 9
REMARK VINA RESULT:      -6.8      1.403      1.886
REMARK  Name = Hydroxyprogesterone caproate
REMARK  11 active torsions:
REMARK  status: ('A' for Active; 'I' for Inactive)
REMARK    1  A    between atoms: C_5  and  O_6
REMARK    2  A    between atoms: C_5  and  C_14
REMARK    3  A    between atoms: O_6  and  C_7
REMARK    4  A    between atoms: C_7  and  C_9
REMARK    5  A    between atoms: C_9  and  C_10
REMARK    6  A    between atoms: C_10  and  C_11
REMARK    7  A    between atoms: C_11  and  C_12
REMARK    8  A    between atoms: C_12  and  C_13
REMARK    9  A    between atoms: C_14  and  C_15
REMARK   10  A    between atoms: C_17  and  C_18
REMARK   11  A    between atoms: C_33  and  C_34
REMARK                            x       y       z     vdW  Elec       q    Type
REMARK                         _______ _______ _______ _____ _____    ______ ____
ROOT
ATOM      1  C   UNL     1      -6.602  -0.228 126.704  0.00  0.00    +0.000 C 
ATOM      2  C   UNL     1      -5.693  -0.700 125.579  0.00  0.00    +0.000 C 
ATOM      3  C   UNL     1      -6.520  -0.522 124.295  0.00  0.00    +0.000 C 
ATOM      4  C   UNL     1      -7.828   0.212 124.689  0.00  0.00    +0.000 C 
ATOM      5  C   UNL     1      -7.478   0.866 126.081  0.00  0.00    +0.000 C 
ATOM      6  C   UNL     1      -6.682   2.183 125.900  0.00  0.00    +0.000 C 
ATOM      7  C   UNL     1      -8.665   1.097 127.034  0.00  0.00    +0.000 C 
ATOM      8  C   UNL     1      -8.203   1.389 128.474  0.00  0.00    +0.000 C 
ATOM      9  C   UNL     1      -7.178   0.371 129.045  0.00  0.00    +0.000 C 
ATOM     10  C   UNL     1      -6.005   0.074 128.059  0.00  0.00    +0.000 C 
ATOM     11  C   UNL     1      -5.225  -1.152 128.560  0.00  0.00    +0.000 C 
ATOM     12  C   UNL     1      -4.689  -0.951 129.965  0.00  0.00    +0.000 C 
ATOM     13  C   UNL     1      -5.732  -0.444 130.932  0.00  0.00    +0.000 C 
ATOM     14  C   UNL     1      -5.824  -1.010 132.148  0.00  0.00    +0.000 C 
ATOM     15  C   UNL     1      -6.668  -0.415 133.208  0.00  0.00    +0.000 C 
ATOM     16  O   UNL     1      -6.713  -0.945 134.314  0.00  0.00    +0.000 OA
ATOM     17  C   UNL     1      -7.336   0.902 132.912  0.00  0.00    +0.000 C 
ATOM     18  C   UNL     1      -7.789   0.935 131.457  0.00  0.00    +0.000 C 
ATOM     19  C   UNL     1      -6.614   0.724 130.464  0.00  0.00    +0.000 C 
ATOM     20  C   UNL     1      -5.763   2.011 130.408  0.00  0.00    +0.000 C 
ENDROOT
BRANCH   4  21
ATOM     21  C   UNL     1      -8.282   1.301 123.670  0.00  0.00    +0.000 C 
ATOM     22  C   UNL     1      -7.293   1.992 122.748  0.00  0.00    +0.000 C 
ATOM     23  O   UNL     1      -9.465   1.668 123.624  0.00  0.00    +0.000 OA
ENDBRANCH   4  21
BRANCH   4  24
ATOM     24  O   UNL     1      -8.986  -0.710 124.806  0.00  0.00    +0.000 OA
BRANCH  24  25
ATOM     25  C   UNL     1      -8.876  -2.045 124.581  0.00  0.00    +0.000 C 
ATOM     26  O   UNL     1      -8.412  -2.556 123.563  0.00  0.00    +0.000 OA
BRANCH  25  27
ATOM     27  C   UNL     1      -9.431  -2.923 125.661  0.00  0.00    +0.000 C 
BRANCH  27  28
ATOM     28  C   UNL     1      -8.303  -3.152 126.685  0.00  0.00    +0.000 C 
BRANCH  28  29
ATOM     29  C   UNL     1      -8.793  -3.853 127.933  0.00  0.00    +0.000 C 
BRANCH  29  30
ATOM     30  C   UNL     1      -8.347  -3.104 129.187  0.00  0.00    +0.000 C 
ATOM     31  C   UNL     1      -7.121  -3.773 129.777  0.00  0.00    +0.000 C 
ENDBRANCH  29  30
ENDBRANCH  28  29
ENDBRANCH  27  28
ENDBRANCH  25  27
ENDBRANCH  24  25
ENDBRANCH   4  24
TORSDOF 7
ENDMDL
