MODEL 1
REMARK VINA RESULT:      -6.4      0.000      0.000
REMARK  Name = Hydroxychloroquine
REMARK  12 active torsions:
REMARK  status: ('A' for Active; 'I' for Inactive)
REMARK    1  A    between atoms: C_1  and  C_2
REMARK    2  A    between atoms: C_2  and  N_3
REMARK    3  A    between atoms: N_3  and  C_4
REMARK    4  A    between atoms: N_3  and  C_7
REMARK    5  A    between atoms: C_4  and  C_5
REMARK    6  A    between atoms: C_5  and  O_6
REMARK    7  A    between atoms: C_7  and  C_8
REMARK    8  A    between atoms: C_8  and  C_9
REMARK    9  A    between atoms: C_9  and  C_10
REMARK   10  A    between atoms: C_10  and  C_11
REMARK   11  A    between atoms: C_10  and  N_12
REMARK   12  A    between atoms: N_12  and  C_13
REMARK                            x       y       z     vdW  Elec       q    Type
REMARK                         _______ _______ _______ _____ _____    ______ ____
ROOT
ATOM      1  N   UNL     1     -10.134   5.127 133.021  0.00  0.00    +0.000 N 
ATOM      2  H   UNL     1     -10.981   4.633 133.295  0.00  0.00    +0.000 HD
ENDROOT
BRANCH   1   3
ATOM      3  C   UNL     1      -8.957   4.433 133.413  0.00  0.00    +0.000 A 
ATOM      4  C   UNL     1      -8.623   3.139 132.926  0.00  0.00    +0.000 A 
ATOM      5  C   UNL     1      -9.282   2.531 131.860  0.00  0.00    +0.000 A 
ATOM      6  C   UNL     1      -9.261   1.168 131.635  0.00  0.00    +0.000 A 
ATOM      7  C   UNL     1      -8.233   0.454 132.208  0.00  0.00    +0.000 A 
ATOM      8 CL   UNL     1      -8.019  -1.185 131.742  0.00  0.00    +0.000 Cl
ATOM      9  C   UNL     1      -7.334   1.104 133.051  0.00  0.00    +0.000 A 
ATOM     10  C   UNL     1      -7.529   2.424 133.470  0.00  0.00    +0.000 A 
ATOM     11  N   UNL     1      -6.687   3.005 134.329  0.00  0.00    +0.000 NA
ATOM     12  C   UNL     1      -6.947   4.277 134.713  0.00  0.00    +0.000 A 
ATOM     13  C   UNL     1      -8.070   5.006 134.323  0.00  0.00    +0.000 A 
ENDBRANCH   1   3
BRANCH   1  14
ATOM     14  C   UNL     1     -10.272   5.799 131.687  0.00  0.00    +0.000 C 
ATOM     15  C   UNL     1      -9.028   6.605 131.318  0.00  0.00    +0.000 C 
BRANCH  14  16
ATOM     16  C   UNL     1     -11.456   6.800 131.735  0.00  0.00    +0.000 C 
BRANCH  16  17
ATOM     17  C   UNL     1     -12.525   6.396 130.716  0.00  0.00    +0.000 C 
BRANCH  17  18
ATOM     18  C   UNL     1     -12.343   6.964 129.327  0.00  0.00    +0.000 C 
BRANCH  18  19
ATOM     19  N   UNL     1     -11.868   8.377 129.363  0.00  0.00    +0.000 NA
BRANCH  19  21
ATOM     20  C   UNL     1     -10.878   7.791 127.097  0.00  0.00    +0.000 C 
ATOM     21  C   UNL     1     -10.709   8.455 128.455  0.00  0.00    +0.000 C 
ENDBRANCH  19  21
BRANCH  19  22
ATOM     22  C   UNL     1     -12.956   9.328 129.019  0.00  0.00    +0.000 C 
BRANCH  22  23
ATOM     23  C   UNL     1     -13.223  10.491 129.982  0.00  0.00    +0.000 C 
BRANCH  23  24
ATOM     24  O   UNL     1     -13.231  11.724 129.267  0.00  0.00    +0.000 OA
ATOM     25  H   UNL     1     -13.966  12.238 129.649  0.00  0.00    +0.000 HD
ENDBRANCH  23  24
ENDBRANCH  22  23
ENDBRANCH  19  22
ENDBRANCH  18  19
ENDBRANCH  17  18
ENDBRANCH  16  17
ENDBRANCH  14  16
ENDBRANCH   1  14
TORSDOF 10
ENDMDL
MODEL 2
REMARK VINA RESULT:      -6.4      3.489      6.670
REMARK  Name = Hydroxychloroquine
REMARK  12 active torsions:
REMARK  status: ('A' for Active; 'I' for Inactive)
REMARK    1  A    between atoms: C_1  and  C_2
REMARK    2  A    between atoms: C_2  and  N_3
REMARK    3  A    between atoms: N_3  and  C_4
REMARK    4  A    between atoms: N_3  and  C_7
REMARK    5  A    between atoms: C_4  and  C_5
REMARK    6  A    between atoms: C_5  and  O_6
REMARK    7  A    between atoms: C_7  and  C_8
REMARK    8  A    between atoms: C_8  and  C_9
REMARK    9  A    between atoms: C_9  and  C_10
REMARK   10  A    between atoms: C_10  and  C_11
REMARK   11  A    between atoms: C_10  and  N_12
REMARK   12  A    between atoms: N_12  and  C_13
REMARK                            x       y       z     vdW  Elec       q    Type
REMARK                         _______ _______ _______ _____ _____    ______ ____
ROOT
ATOM      1  N   UNL     1      -9.707   4.871 133.443  0.00  0.00    +0.000 N 
ATOM      2  H   UNL     1      -9.559   5.274 134.367  0.00  0.00    +0.000 HD
ENDROOT
BRANCH   1   3
ATOM      3  C   UNL     1      -9.293   5.746 132.403  0.00  0.00    +0.000 A 
ATOM      4  C   UNL     1     -10.210   6.421 131.548  0.00  0.00    +0.000 A 
ATOM      5  C   UNL     1     -11.580   6.472 131.788  0.00  0.00    +0.000 A 
ATOM      6  C   UNL     1     -12.511   6.754 130.806  0.00  0.00    +0.000 A 
ATOM      7  C   UNL     1     -12.059   7.412 129.685  0.00  0.00    +0.000 A 
ATOM      8 CL   UNL     1     -13.218   8.011 128.568  0.00  0.00    +0.000 Cl
ATOM      9  C   UNL     1     -10.698   7.674 129.546  0.00  0.00    +0.000 A 
ATOM     10  C   UNL     1      -9.746   7.151 130.427  0.00  0.00    +0.000 A 
ATOM     11  N   UNL     1      -8.441   7.363 130.237  0.00  0.00    +0.000 NA
ATOM     12  C   UNL     1      -7.571   6.807 131.112  0.00  0.00    +0.000 A 
ATOM     13  C   UNL     1      -7.938   5.972 132.167  0.00  0.00    +0.000 A 
ENDBRANCH   1   3
BRANCH   1  14
ATOM     14  C   UNL     1      -9.439   3.396 133.415  0.00  0.00    +0.000 C 
ATOM     15  C   UNL     1      -7.996   3.067 133.791  0.00  0.00    +0.000 C 
BRANCH  14  16
ATOM     16  C   UNL     1      -9.659   2.859 131.976  0.00  0.00    +0.000 C 
BRANCH  16  17
ATOM     17  C   UNL     1      -9.317   1.369 131.915  0.00  0.00    +0.000 C 
BRANCH  17  18
ATOM     18  C   UNL     1      -8.522   0.936 130.705  0.00  0.00    +0.000 C 
BRANCH  18  19
ATOM     19  N   UNL     1      -7.481   1.939 130.338  0.00  0.00    +0.000 NA
BRANCH  19  21
ATOM     20  C   UNL     1      -5.200   2.034 131.454  0.00  0.00    +0.000 C 
ATOM     21  C   UNL     1      -6.175   1.289 130.556  0.00  0.00    +0.000 C 
ENDBRANCH  19  21
BRANCH  19  22
ATOM     22  C   UNL     1      -7.670   2.440 128.952  0.00  0.00    +0.000 C 
BRANCH  22  23
ATOM     23  C   UNL     1      -7.569   3.951 128.717  0.00  0.00    +0.000 C 
BRANCH  23  24
ATOM     24  O   UNL     1      -8.873   4.526 128.672  0.00  0.00    +0.000 OA
ATOM     25  H   UNL     1      -9.489   3.773 128.731  0.00  0.00    +0.000 HD
ENDBRANCH  23  24
ENDBRANCH  22  23
ENDBRANCH  19  22
ENDBRANCH  18  19
ENDBRANCH  17  18
ENDBRANCH  16  17
ENDBRANCH  14  16
ENDBRANCH   1  14
TORSDOF 10
ENDMDL
MODEL 3
REMARK VINA RESULT:      -6.2      1.855      2.812
REMARK  Name = Hydroxychloroquine
REMARK  12 active torsions:
REMARK  status: ('A' for Active; 'I' for Inactive)
REMARK    1  A    between atoms: C_1  and  C_2
REMARK    2  A    between atoms: C_2  and  N_3
REMARK    3  A    between atoms: N_3  and  C_4
REMARK    4  A    between atoms: N_3  and  C_7
REMARK    5  A    between atoms: C_4  and  C_5
REMARK    6  A    between atoms: C_5  and  O_6
REMARK    7  A    between atoms: C_7  and  C_8
REMARK    8  A    between atoms: C_8  and  C_9
REMARK    9  A    between atoms: C_9  and  C_10
REMARK   10  A    between atoms: C_10  and  C_11
REMARK   11  A    between atoms: C_10  and  N_12
REMARK   12  A    between atoms: N_12  and  C_13
REMARK                            x       y       z     vdW  Elec       q    Type
REMARK                         _______ _______ _______ _____ _____    ______ ____
ROOT
ATOM      1  N   UNL     1     -10.188   5.216 132.216  0.00  0.00    +0.000 N 
ATOM      2  H   UNL     1     -11.177   5.153 132.449  0.00  0.00    +0.000 HD
ENDROOT
BRANCH   1   3
ATOM      3  C   UNL     1      -9.489   4.015 132.516  0.00  0.00    +0.000 A 
ATOM      4  C   UNL     1      -8.460   3.943 133.496  0.00  0.00    +0.000 A 
ATOM      5  C   UNL     1      -8.200   4.964 134.407  0.00  0.00    +0.000 A 
ATOM      6  C   UNL     1      -6.998   5.096 135.074  0.00  0.00    +0.000 A 
ATOM      7  C   UNL     1      -6.208   3.973 135.171  0.00  0.00    +0.000 A 
ATOM      8 CL   UNL     1      -4.841   4.023 136.208  0.00  0.00    +0.000 Cl
ATOM      9  C   UNL     1      -6.600   2.802 134.524  0.00  0.00    +0.000 A 
ATOM     10  C   UNL     1      -7.685   2.767 133.642  0.00  0.00    +0.000 A 
ATOM     11  N   UNL     1      -8.002   1.649 132.985  0.00  0.00    +0.000 NA
ATOM     12  C   UNL     1      -9.049   1.689 132.127  0.00  0.00    +0.000 A 
ATOM     13  C   UNL     1      -9.784   2.837 131.832  0.00  0.00    +0.000 A 
ENDBRANCH   1   3
BRANCH   1  14
ATOM     14  C   UNL     1      -9.946   6.003 130.963  0.00  0.00    +0.000 C 
ATOM     15  C   UNL     1      -8.592   6.710 130.980  0.00  0.00    +0.000 C 
BRANCH  14  16
ATOM     16  C   UNL     1     -11.026   7.109 130.833  0.00  0.00    +0.000 C 
BRANCH  16  17
ATOM     17  C   UNL     1     -12.396   6.476 130.579  0.00  0.00    +0.000 C 
BRANCH  17  18
ATOM     18  C   UNL     1     -13.158   7.031 129.398  0.00  0.00    +0.000 C 
BRANCH  18  19
ATOM     19  N   UNL     1     -12.411   8.132 128.724  0.00  0.00    +0.000 NA
BRANCH  19  21
ATOM     20  C   UNL     1     -10.562   7.304 127.190  0.00  0.00    +0.000 C 
ATOM     21  C   UNL     1     -12.034   7.630 127.390  0.00  0.00    +0.000 C 
ENDBRANCH  19  21
BRANCH  19  22
ATOM     22  C   UNL     1     -13.206   9.386 128.684  0.00  0.00    +0.000 C 
BRANCH  22  23
ATOM     23  C   UNL     1     -13.158  10.305 129.909  0.00  0.00    +0.000 C 
BRANCH  23  24
ATOM     24  O   UNL     1     -13.242  11.668 129.500  0.00  0.00    +0.000 OA
ATOM     25  H   UNL     1     -12.797  11.705 128.634  0.00  0.00    +0.000 HD
ENDBRANCH  23  24
ENDBRANCH  22  23
ENDBRANCH  19  22
ENDBRANCH  18  19
ENDBRANCH  17  18
ENDBRANCH  16  17
ENDBRANCH  14  16
ENDBRANCH   1  14
TORSDOF 10
ENDMDL
MODEL 4
REMARK VINA RESULT:      -6.2      7.983      9.710
REMARK  Name = Hydroxychloroquine
REMARK  12 active torsions:
REMARK  status: ('A' for Active; 'I' for Inactive)
REMARK    1  A    between atoms: C_1  and  C_2
REMARK    2  A    between atoms: C_2  and  N_3
REMARK    3  A    between atoms: N_3  and  C_4
REMARK    4  A    between atoms: N_3  and  C_7
REMARK    5  A    between atoms: C_4  and  C_5
REMARK    6  A    between atoms: C_5  and  O_6
REMARK    7  A    between atoms: C_7  and  C_8
REMARK    8  A    between atoms: C_8  and  C_9
REMARK    9  A    between atoms: C_9  and  C_10
REMARK   10  A    between atoms: C_10  and  C_11
REMARK   11  A    between atoms: C_10  and  N_12
REMARK   12  A    between atoms: N_12  and  C_13
REMARK                            x       y       z     vdW  Elec       q    Type
REMARK                         _______ _______ _______ _____ _____    ______ ____
ROOT
ATOM      1  N   UNL     1      -5.964  -2.290 125.422  0.00  0.00    +0.000 N 
ATOM      2  H   UNL     1      -5.815  -1.284 125.360  0.00  0.00    +0.000 HD
ENDROOT
BRANCH   1   3
ATOM      3  C   UNL     1      -6.874  -2.634 126.458  0.00  0.00    +0.000 A 
ATOM      4  C   UNL     1      -6.538  -2.559 127.839  0.00  0.00    +0.000 A 
ATOM      5  C   UNL     1      -5.389  -1.931 128.312  0.00  0.00    +0.000 A 
ATOM      6  C   UNL     1      -4.846  -2.185 129.557  0.00  0.00    +0.000 A 
ATOM      7  C   UNL     1      -5.679  -2.733 130.505  0.00  0.00    +0.000 A 
ATOM      8 CL   UNL     1      -5.123  -2.820 132.128  0.00  0.00    +0.000 Cl
ATOM      9  C   UNL     1      -6.978  -3.092 130.150  0.00  0.00    +0.000 A 
ATOM     10  C   UNL     1      -7.420  -3.067 128.824  0.00  0.00    +0.000 A 
ATOM     11  N   UNL     1      -8.650  -3.476 128.500  0.00  0.00    +0.000 NA
ATOM     12  C   UNL     1      -9.007  -3.450 127.194  0.00  0.00    +0.000 A 
ATOM     13  C   UNL     1      -8.157  -3.084 126.151  0.00  0.00    +0.000 A 
ENDBRANCH   1   3
BRANCH   1  14
ATOM     14  C   UNL     1      -5.984  -2.948 124.075  0.00  0.00    +0.000 C 
ATOM     15  C   UNL     1      -4.717  -3.760 123.813  0.00  0.00    +0.000 C 
BRANCH  14  16
ATOM     16  C   UNL     1      -6.052  -1.860 122.971  0.00  0.00    +0.000 C 
BRANCH  16  17
ATOM     17  C   UNL     1      -7.382  -1.107 123.059  0.00  0.00    +0.000 C 
BRANCH  17  18
ATOM     18  C   UNL     1      -7.277   0.355 123.427  0.00  0.00    +0.000 C 
BRANCH  18  19
ATOM     19  N   UNL     1      -7.279   0.555 124.905  0.00  0.00    +0.000 NA
BRANCH  19  21
ATOM     20  C   UNL     1      -5.197   1.142 126.239  0.00  0.00    +0.000 C 
ATOM     21  C   UNL     1      -6.227   1.547 125.196  0.00  0.00    +0.000 C 
ENDBRANCH  19  21
BRANCH  19  22
ATOM     22  C   UNL     1      -8.622   0.952 125.400  0.00  0.00    +0.000 C 
BRANCH  22  23
ATOM     23  C   UNL     1      -9.496   1.819 124.487  0.00  0.00    +0.000 C 
BRANCH  23  24
ATOM     24  O   UNL     1      -9.303   3.198 124.791  0.00  0.00    +0.000 OA
ATOM     25  H   UNL     1      -9.088   3.224 125.741  0.00  0.00    +0.000 HD
ENDBRANCH  23  24
ENDBRANCH  22  23
ENDBRANCH  19  22
ENDBRANCH  18  19
ENDBRANCH  17  18
ENDBRANCH  16  17
ENDBRANCH  14  16
ENDBRANCH   1  14
TORSDOF 10
ENDMDL
MODEL 5
REMARK VINA RESULT:      -6.2      4.162      8.061
REMARK  Name = Hydroxychloroquine
REMARK  12 active torsions:
REMARK  status: ('A' for Active; 'I' for Inactive)
REMARK    1  A    between atoms: C_1  and  C_2
REMARK    2  A    between atoms: C_2  and  N_3
REMARK    3  A    between atoms: N_3  and  C_4
REMARK    4  A    between atoms: N_3  and  C_7
REMARK    5  A    between atoms: C_4  and  C_5
REMARK    6  A    between atoms: C_5  and  O_6
REMARK    7  A    between atoms: C_7  and  C_8
REMARK    8  A    between atoms: C_8  and  C_9
REMARK    9  A    between atoms: C_9  and  C_10
REMARK   10  A    between atoms: C_10  and  C_11
REMARK   11  A    between atoms: C_10  and  N_12
REMARK   12  A    between atoms: N_12  and  C_13
REMARK                            x       y       z     vdW  Elec       q    Type
REMARK                         _______ _______ _______ _____ _____    ______ ____
ROOT
ATOM      1  N   UNL     1      -9.823   4.996 133.349  0.00  0.00    +0.000 N 
ATOM      2  H   UNL     1      -9.894   5.482 134.241  0.00  0.00    +0.000 HD
ENDROOT
BRANCH   1   3
ATOM      3  C   UNL     1      -9.376   5.851 132.306  0.00  0.00    +0.000 A 
ATOM      4  C   UNL     1     -10.265   6.499 131.402  0.00  0.00    +0.000 A 
ATOM      5  C   UNL     1     -11.643   6.545 131.589  0.00  0.00    +0.000 A 
ATOM      6  C   UNL     1     -12.538   6.797 130.566  0.00  0.00    +0.000 A 
ATOM      7  C   UNL     1     -12.049   7.433 129.448  0.00  0.00    +0.000 A 
ATOM      8 CL   UNL     1     -13.169   7.998 128.275  0.00  0.00    +0.000 Cl
ATOM      9  C   UNL     1     -10.685   7.703 129.355  0.00  0.00    +0.000 A 
ATOM     10  C   UNL     1      -9.764   7.207 130.283  0.00  0.00    +0.000 A 
ATOM     11  N   UNL     1      -8.454   7.426 130.137  0.00  0.00    +0.000 NA
ATOM     12  C   UNL     1      -7.614   6.896 131.057  0.00  0.00    +0.000 A 
ATOM     13  C   UNL     1      -8.015   6.082 132.116  0.00  0.00    +0.000 A 
ENDBRANCH   1   3
BRANCH   1  14
ATOM     14  C   UNL     1      -9.337   3.586 133.506  0.00  0.00    +0.000 C 
ATOM     15  C   UNL     1      -7.913   3.527 134.054  0.00  0.00    +0.000 C 
BRANCH  14  16
ATOM     16  C   UNL     1      -9.311   2.893 132.118  0.00  0.00    +0.000 C 
BRANCH  16  17
ATOM     17  C   UNL     1      -9.705   1.421 132.260  0.00  0.00    +0.000 C 
BRANCH  17  18
ATOM     18  C   UNL     1      -8.753   0.431 131.629  0.00  0.00    +0.000 C 
BRANCH  18  19
ATOM     19  N   UNL     1      -7.796  -0.130 132.626  0.00  0.00    +0.000 NA
BRANCH  19  21
ATOM     20  C   UNL     1      -8.057  -2.489 133.534  0.00  0.00    +0.000 C 
ATOM     21  C   UNL     1      -7.718  -1.579 132.364  0.00  0.00    +0.000 C 
ENDBRANCH  19  21
BRANCH  19  22
ATOM     22  C   UNL     1      -6.480   0.556 132.566  0.00  0.00    +0.000 C 
BRANCH  22  23
ATOM     23  C   UNL     1      -5.542   0.414 133.770  0.00  0.00    +0.000 C 
BRANCH  23  24
ATOM     24  O   UNL     1      -6.302   0.216 134.960  0.00  0.00    +0.000 OA
ATOM     25  H   UNL     1      -6.951   0.943 134.975  0.00  0.00    +0.000 HD
ENDBRANCH  23  24
ENDBRANCH  22  23
ENDBRANCH  19  22
ENDBRANCH  18  19
ENDBRANCH  17  18
ENDBRANCH  16  17
ENDBRANCH  14  16
ENDBRANCH   1  14
TORSDOF 10
ENDMDL
MODEL 6
REMARK VINA RESULT:      -6.1      8.764     11.660
REMARK  Name = Hydroxychloroquine
REMARK  12 active torsions:
REMARK  status: ('A' for Active; 'I' for Inactive)
REMARK    1  A    between atoms: C_1  and  C_2
REMARK    2  A    between atoms: C_2  and  N_3
REMARK    3  A    between atoms: N_3  and  C_4
REMARK    4  A    between atoms: N_3  and  C_7
REMARK    5  A    between atoms: C_4  and  C_5
REMARK    6  A    between atoms: C_5  and  O_6
REMARK    7  A    between atoms: C_7  and  C_8
REMARK    8  A    between atoms: C_8  and  C_9
REMARK    9  A    between atoms: C_9  and  C_10
REMARK   10  A    between atoms: C_10  and  C_11
REMARK   11  A    between atoms: C_10  and  N_12
REMARK   12  A    between atoms: N_12  and  C_13
REMARK                            x       y       z     vdW  Elec       q    Type
REMARK                         _______ _______ _______ _____ _____    ______ ____
ROOT
ATOM      1  N   UNL     1      -5.601   3.523 124.530  0.00  0.00    +0.000 N 
ATOM      2  H   UNL     1      -4.667   3.328 124.172  0.00  0.00    +0.000 HD
ENDROOT
BRANCH   1   3
ATOM      3  C   UNL     1      -6.604   3.332 123.541  0.00  0.00    +0.000 A 
ATOM      4  C   UNL     1      -6.437   3.724 122.183  0.00  0.00    +0.000 A 
ATOM      5  C   UNL     1      -5.213   4.113 121.646  0.00  0.00    +0.000 A 
ATOM      6  C   UNL     1      -5.096   4.861 120.490  0.00  0.00    +0.000 A 
ATOM      7  C   UNL     1      -6.169   4.856 119.629  0.00  0.00    +0.000 A 
ATOM      8 CL   UNL     1      -5.970   5.552 118.072  0.00  0.00    +0.000 Cl
ATOM      9  C   UNL     1      -7.338   4.191 119.995  0.00  0.00    +0.000 A 
ATOM     10  C   UNL     1      -7.523   3.663 121.277  0.00  0.00    +0.000 A 
ATOM     11  N   UNL     1      -8.677   3.086 121.624  0.00  0.00    +0.000 NA
ATOM     12  C   UNL     1      -8.800   2.617 122.888  0.00  0.00    +0.000 A 
ATOM     13  C   UNL     1      -7.826   2.751 123.878  0.00  0.00    +0.000 A 
ENDBRANCH   1   3
BRANCH   1  14
ATOM     14  C   UNL     1      -5.770   3.080 125.952  0.00  0.00    +0.000 C 
ATOM     15  C   UNL     1      -5.646   4.243 126.935  0.00  0.00    +0.000 C 
BRANCH  14  16
ATOM     16  C   UNL     1      -4.652   2.068 126.314  0.00  0.00    +0.000 C 
BRANCH  16  17
ATOM     17  C   UNL     1      -5.180   0.637 126.190  0.00  0.00    +0.000 C 
BRANCH  17  18
ATOM     18  C   UNL     1      -6.639   0.452 126.539  0.00  0.00    +0.000 C 
BRANCH  18  19
ATOM     19  N   UNL     1      -7.251  -0.676 125.780  0.00  0.00    +0.000 NA
BRANCH  19  21
ATOM     20  C   UNL     1      -6.545  -1.986 123.720  0.00  0.00    +0.000 C 
ATOM     21  C   UNL     1      -6.659  -0.646 124.430  0.00  0.00    +0.000 C 
ENDBRANCH  19  21
BRANCH  19  22
ATOM     22  C   UNL     1      -7.063  -1.972 126.482  0.00  0.00    +0.000 C 
BRANCH  22  23
ATOM     23  C   UNL     1      -8.307  -2.671 127.042  0.00  0.00    +0.000 C 
BRANCH  23  24
ATOM     24  O   UNL     1      -9.296  -2.798 126.024  0.00  0.00    +0.000 OA
ATOM     25  H   UNL     1      -9.826  -1.981 126.077  0.00  0.00    +0.000 HD
ENDBRANCH  23  24
ENDBRANCH  22  23
ENDBRANCH  19  22
ENDBRANCH  18  19
ENDBRANCH  17  18
ENDBRANCH  16  17
ENDBRANCH  14  16
ENDBRANCH   1  14
TORSDOF 10
ENDMDL
MODEL 7
REMARK VINA RESULT:      -6.1      8.758     10.692
REMARK  Name = Hydroxychloroquine
REMARK  12 active torsions:
REMARK  status: ('A' for Active; 'I' for Inactive)
REMARK    1  A    between atoms: C_1  and  C_2
REMARK    2  A    between atoms: C_2  and  N_3
REMARK    3  A    between atoms: N_3  and  C_4
REMARK    4  A    between atoms: N_3  and  C_7
REMARK    5  A    between atoms: C_4  and  C_5
REMARK    6  A    between atoms: C_5  and  O_6
REMARK    7  A    between atoms: C_7  and  C_8
REMARK    8  A    between atoms: C_8  and  C_9
REMARK    9  A    between atoms: C_9  and  C_10
REMARK   10  A    between atoms: C_10  and  C_11
REMARK   11  A    between atoms: C_10  and  N_12
REMARK   12  A    between atoms: N_12  and  C_13
REMARK                            x       y       z     vdW  Elec       q    Type
REMARK                         _______ _______ _______ _____ _____    ______ ____
ROOT
ATOM      1  N   UNL     1      -5.256  -0.090 126.578  0.00  0.00    +0.000 N 
ATOM      2  H   UNL     1      -5.640  -0.622 125.799  0.00  0.00    +0.000 HD
ENDROOT
BRANCH   1   3
ATOM      3  C   UNL     1      -5.190   1.302 126.297  0.00  0.00    +0.000 A 
ATOM      4  C   UNL     1      -5.893   1.908 125.218  0.00  0.00    +0.000 A 
ATOM      5  C   UNL     1      -6.881   1.253 124.487  0.00  0.00    +0.000 A 
ATOM      6  C   UNL     1      -7.278   1.651 123.225  0.00  0.00    +0.000 A 
ATOM      7  C   UNL     1      -7.010   2.951 122.864  0.00  0.00    +0.000 A 
ATOM      8 CL   UNL     1      -7.713   3.560 121.421  0.00  0.00    +0.000 Cl
ATOM      9  C   UNL     1      -6.279   3.765 123.728  0.00  0.00    +0.000 A 
ATOM     10  C   UNL     1      -5.666   3.264 124.881  0.00  0.00    +0.000 A 
ATOM     11  N   UNL     1      -4.918   4.050 125.660  0.00  0.00    +0.000 NA
ATOM     12  C   UNL     1      -4.331   3.497 126.748  0.00  0.00    +0.000 A 
ATOM     13  C   UNL     1      -4.401   2.144 127.080  0.00  0.00    +0.000 A 
ENDBRANCH   1   3
BRANCH   1  14
ATOM     14  C   UNL     1      -5.696  -0.627 127.907  0.00  0.00    +0.000 C 
ATOM     15  C   UNL     1      -4.975  -1.925 128.269  0.00  0.00    +0.000 C 
BRANCH  14  16
ATOM     16  C   UNL     1      -7.210  -0.958 127.853  0.00  0.00    +0.000 C 
BRANCH  16  17
ATOM     17  C   UNL     1      -7.414  -2.472 127.754  0.00  0.00    +0.000 C 
BRANCH  17  18
ATOM     18  C   UNL     1      -8.115  -2.951 126.504  0.00  0.00    +0.000 C 
BRANCH  18  19
ATOM     19  N   UNL     1      -7.660  -2.207 125.294  0.00  0.00    +0.000 NA
BRANCH  19  21
ATOM     20  C   UNL     1      -5.461  -2.320 124.025  0.00  0.00    +0.000 C 
ATOM     21  C   UNL     1      -6.645  -3.052 124.638  0.00  0.00    +0.000 C 
ENDBRANCH  19  21
BRANCH  19  22
ATOM     22  C   UNL     1      -8.801  -1.855 124.409  0.00  0.00    +0.000 C 
BRANCH  22  23
ATOM     23  C   UNL     1      -9.062  -2.743 123.188  0.00  0.00    +0.000 C 
BRANCH  23  24
ATOM     24  O   UNL     1     -10.223  -3.541 123.403  0.00  0.00    +0.000 OA
ATOM     25  H   UNL     1     -10.951  -2.906 123.537  0.00  0.00    +0.000 HD
ENDBRANCH  23  24
ENDBRANCH  22  23
ENDBRANCH  19  22
ENDBRANCH  18  19
ENDBRANCH  17  18
ENDBRANCH  16  17
ENDBRANCH  14  16
ENDBRANCH   1  14
TORSDOF 10
ENDMDL
MODEL 8
REMARK VINA RESULT:      -6.1      3.652      7.008
REMARK  Name = Hydroxychloroquine
REMARK  12 active torsions:
REMARK  status: ('A' for Active; 'I' for Inactive)
REMARK    1  A    between atoms: C_1  and  C_2
REMARK    2  A    between atoms: C_2  and  N_3
REMARK    3  A    between atoms: N_3  and  C_4
REMARK    4  A    between atoms: N_3  and  C_7
REMARK    5  A    between atoms: C_4  and  C_5
REMARK    6  A    between atoms: C_5  and  O_6
REMARK    7  A    between atoms: C_7  and  C_8
REMARK    8  A    between atoms: C_8  and  C_9
REMARK    9  A    between atoms: C_9  and  C_10
REMARK   10  A    between atoms: C_10  and  C_11
REMARK   11  A    between atoms: C_10  and  N_12
REMARK   12  A    between atoms: N_12  and  C_13
REMARK                            x       y       z     vdW  Elec       q    Type
REMARK                         _______ _______ _______ _____ _____    ______ ____
ROOT
ATOM      1  N   UNL     1     -10.280   3.919 131.630  0.00  0.00    +0.000 N 
ATOM      2  H   UNL     1     -10.826   4.433 132.320  0.00  0.00    +0.000 HD
ENDROOT
BRANCH   1   3
ATOM      3  C   UNL     1      -9.966   4.714 130.494  0.00  0.00    +0.000 A 
ATOM      4  C   UNL     1     -10.607   5.954 130.217  0.00  0.00    +0.000 A 
ATOM      5  C   UNL     1     -11.421   6.614 131.133  0.00  0.00    +0.000 A 
ATOM      6  C   UNL     1     -12.349   7.571 130.769  0.00  0.00    +0.000 A 
ATOM      7  C   UNL     1     -12.169   8.189 129.554  0.00  0.00    +0.000 A 
ATOM      8 CL   UNL     1     -13.138   9.558 129.182  0.00  0.00    +0.000 Cl
ATOM      9  C   UNL     1     -11.138   7.766 128.716  0.00  0.00    +0.000 A 
ATOM     10  C   UNL     1     -10.377   6.626 128.992  0.00  0.00    +0.000 A 
ATOM     11  N   UNL     1      -9.437   6.204 128.142  0.00  0.00    +0.000 NA
ATOM     12  C   UNL     1      -8.753   5.078 128.457  0.00  0.00    +0.000 A 
ATOM     13  C   UNL     1      -9.004   4.290 129.579  0.00  0.00    +0.000 A 
ENDBRANCH   1   3
BRANCH   1  14
ATOM     14  C   UNL     1      -9.292   2.987 132.264  0.00  0.00    +0.000 C 
ATOM     15  C   UNL     1      -9.771   1.537 132.239  0.00  0.00    +0.000 C 
BRANCH  14  16
ATOM     16  C   UNL     1      -9.106   3.371 133.756  0.00  0.00    +0.000 C 
BRANCH  16  17
ATOM     17  C   UNL     1      -7.625   3.295 134.136  0.00  0.00    +0.000 C 
BRANCH  17  18
ATOM     18  C   UNL     1      -6.658   3.771 133.075  0.00  0.00    +0.000 C 
BRANCH  18  19
ATOM     19  N   UNL     1      -6.621   5.259 132.987  0.00  0.00    +0.000 NA
BRANCH  19  21
ATOM     20  C   UNL     1      -4.339   6.233 133.537  0.00  0.00    +0.000 C 
ATOM     21  C   UNL     1      -5.683   5.719 134.029  0.00  0.00    +0.000 C 
ENDBRANCH  19  21
BRANCH  19  22
ATOM     22  C   UNL     1      -6.260   5.716 131.620  0.00  0.00    +0.000 C 
BRANCH  22  23
ATOM     23  C   UNL     1      -6.935   6.984 131.087  0.00  0.00    +0.000 C 
BRANCH  23  24
ATOM     24  O   UNL     1      -6.011   7.739 130.307  0.00  0.00    +0.000 OA
ATOM     25  H   UNL     1      -5.389   8.127 130.949  0.00  0.00    +0.000 HD
ENDBRANCH  23  24
ENDBRANCH  22  23
ENDBRANCH  19  22
ENDBRANCH  18  19
ENDBRANCH  17  18
ENDBRANCH  16  17
ENDBRANCH  14  16
ENDBRANCH   1  14
TORSDOF 10
ENDMDL
MODEL 9
REMARK VINA RESULT:      -6.0      7.259      9.202
REMARK  Name = Hydroxychloroquine
REMARK  12 active torsions:
REMARK  status: ('A' for Active; 'I' for Inactive)
REMARK    1  A    between atoms: C_1  and  C_2
REMARK    2  A    between atoms: C_2  and  N_3
REMARK    3  A    between atoms: N_3  and  C_4
REMARK    4  A    between atoms: N_3  and  C_7
REMARK    5  A    between atoms: C_4  and  C_5
REMARK    6  A    between atoms: C_5  and  O_6
REMARK    7  A    between atoms: C_7  and  C_8
REMARK    8  A    between atoms: C_8  and  C_9
REMARK    9  A    between atoms: C_9  and  C_10
REMARK   10  A    between atoms: C_10  and  C_11
REMARK   11  A    between atoms: C_10  and  N_12
REMARK   12  A    between atoms: N_12  and  C_13
REMARK                            x       y       z     vdW  Elec       q    Type
REMARK                         _______ _______ _______ _____ _____    ______ ____
ROOT
ATOM      1  N   UNL     1      -7.151  -2.755 128.390  0.00  0.00    +0.000 N 
ATOM      2  H   UNL     1      -6.354  -2.335 127.913  0.00  0.00    +0.000 HD
ENDROOT
BRANCH   1   3
ATOM      3  C   UNL     1      -7.231  -2.357 129.752  0.00  0.00    +0.000 A 
ATOM      4  C   UNL     1      -6.610  -3.082 130.808  0.00  0.00    +0.000 A 
ATOM      5  C   UNL     1      -5.687  -4.102 130.595  0.00  0.00    +0.000 A 
ATOM      6  C   UNL     1      -5.388  -5.063 131.541  0.00  0.00    +0.000 A 
ATOM      7  C   UNL     1      -5.676  -4.762 132.853  0.00  0.00    +0.000 A 
ATOM      8 CL   UNL     1      -5.084  -5.809 134.079  0.00  0.00    +0.000 Cl
ATOM      9  C   UNL     1      -6.332  -3.570 133.154  0.00  0.00    +0.000 A 
ATOM     10  C   UNL     1      -6.856  -2.738 132.160  0.00  0.00    +0.000 A 
ATOM     11  N   UNL     1      -7.535  -1.632 132.475  0.00  0.00    +0.000 NA
ATOM     12  C   UNL     1      -8.038  -0.883 131.465  0.00  0.00    +0.000 A 
ATOM     13  C   UNL     1      -7.950  -1.219 130.114  0.00  0.00    +0.000 A 
ENDBRANCH   1   3
BRANCH   1  14
ATOM     14  C   UNL     1      -8.356  -2.860 127.505  0.00  0.00    +0.000 C 
ATOM     15  C   UNL     1      -9.172  -4.119 127.791  0.00  0.00    +0.000 C 
BRANCH  14  16
ATOM     16  C   UNL     1      -7.901  -2.949 126.025  0.00  0.00    +0.000 C 
BRANCH  16  17
ATOM     17  C   UNL     1      -9.082  -2.659 125.095  0.00  0.00    +0.000 C 
BRANCH  17  18
ATOM     18  C   UNL     1      -8.722  -2.054 123.758  0.00  0.00    +0.000 C 
BRANCH  18  19
ATOM     19  N   UNL     1      -8.205  -0.662 123.901  0.00  0.00    +0.000 NA
BRANCH  19  21
ATOM     20  C   UNL     1      -6.365  -1.958 122.721  0.00  0.00    +0.000 C 
ATOM     21  C   UNL     1      -6.907  -0.621 123.202  0.00  0.00    +0.000 C 
ENDBRANCH  19  21
BRANCH  19  22
ATOM     22  C   UNL     1      -9.182   0.337 123.397  0.00  0.00    +0.000 C 
BRANCH  22  23
ATOM     23  C   UNL     1      -9.904   1.215 124.425  0.00  0.00    +0.000 C 
BRANCH  23  24
ATOM     24  O   UNL     1     -11.270   1.380 124.053  0.00  0.00    +0.000 OA
ATOM     25  H   UNL     1     -11.292   2.186 123.503  0.00  0.00    +0.000 HD
ENDBRANCH  23  24
ENDBRANCH  22  23
ENDBRANCH  19  22
ENDBRANCH  18  19
ENDBRANCH  17  18
ENDBRANCH  16  17
ENDBRANCH  14  16
ENDBRANCH   1  14
TORSDOF 10
ENDMDL
