MODEL 1
REMARK VINA RESULT:      -8.5      0.000      0.000
REMARK  Name = Hydrocortisone phosphate
REMARK  10 active torsions:
REMARK  status: ('A' for Active; 'I' for Inactive)
REMARK    1  A    between atoms: C_5  and  O_6
REMARK    2  A    between atoms: C_5  and  C_7
REMARK    3  A    between atoms: C_7  and  C_9
REMARK    4  A    between atoms: C_9  and  O_10
REMARK    5  A    between atoms: O_10  and  P_11
REMARK    6  A    between atoms: P_11  and  O_12
REMARK    7  A    between atoms: P_11  and  O_13
REMARK    8  A    between atoms: C_15  and  C_16
REMARK    9  A    between atoms: C_18  and  O_19
REMARK   10  A    between atoms: C_32  and  C_33
REMARK                            x       y       z     vdW  Elec       q    Type
REMARK                         _______ _______ _______ _____ _____    ______ ____
ROOT
ATOM      1  C   UNL     1      -7.132  -3.040 130.570  0.00  0.00    +0.000 C 
ATOM      2  C   UNL     1      -6.253  -4.149 130.490  0.00  0.00    +0.000 C 
ATOM      3  C   UNL     1      -5.736  -2.849 129.951  0.00  0.00    +0.000 C 
ATOM      4  C   UNL     1      -6.708  -1.081 130.562  0.00  0.00    +0.000 C 
ATOM      5  C   UNL     1      -5.722  -1.867 131.131  0.00  0.00    +0.000 C 
ATOM      6  C   UNL     1      -5.375  -2.033 132.554  0.00  0.00    +0.000 C 
ATOM      7  C   UNL     1      -4.713  -1.006 129.777  0.00  0.00    +0.000 C 
ATOM      8  C   UNL     1      -5.655  -0.771 128.350  0.00  0.00    +0.000 C 
ATOM      9  C   UNL     1      -6.614  -1.991 127.752  0.00  0.00    +0.000 C 
ATOM     10  C   UNL     1      -7.756  -2.587 128.916  0.00  0.00    +0.000 C 
ATOM     11  C   UNL     1      -8.464  -3.819 128.390  0.00  0.00    +0.000 C 
ATOM     12  C   UNL     1      -9.040  -3.598 127.017  0.00  0.00    +0.000 C 
ATOM     13  C   UNL     1      -8.103  -3.041 125.988  0.00  0.00    +0.000 C 
ATOM     14  C   UNL     1      -8.126  -3.523 124.738  0.00  0.00    +0.000 C 
ATOM     15  C   UNL     1      -7.458  -2.670 123.755  0.00  0.00    +0.000 C 
ATOM     16  O   UNL     1      -7.888  -1.603 123.322  0.00  0.00    +0.000 OA
ATOM     17  C   UNL     1      -6.037  -2.908 123.720  0.00  0.00    +0.000 C 
ATOM     18  C   UNL     1      -5.911  -1.889 125.099  0.00  0.00    +0.000 C 
ATOM     19  C   UNL     1      -7.214  -1.843 126.310  0.00  0.00    +0.000 C 
ATOM     20  C   UNL     1      -8.161  -0.627 126.443  0.00  0.00    +0.000 C 
ENDROOT
BRANCH   4  21
ATOM     21  O   UNL     1      -7.893  -1.195 131.451  0.00  0.00    +0.000 OA
ATOM     22  H   UNL     1      -8.667  -1.566 131.003  0.00  0.00    +0.000 HD
ENDBRANCH   4  21
BRANCH   4  23
ATOM     23  C   UNL     1      -6.171   0.515 131.353  0.00  0.00    +0.000 C 
ATOM     24  O   UNL     1      -5.321   1.270 130.844  0.00  0.00    +0.000 OA
BRANCH  23  25
ATOM     25  C   UNL     1      -6.626   1.093 132.844  0.00  0.00    +0.000 C 
BRANCH  25  26
ATOM     26  O   UNL     1      -8.182   1.136 133.026  0.00  0.00    +0.000 OA
BRANCH  26  27
ATOM     27  P   UNL     1      -9.089   2.097 131.909  0.00  0.00    +0.000 P 
ATOM     28  O   UNL     1      -9.902   2.957 130.911  0.00  0.00    +0.000 OA
BRANCH  27  29
ATOM     29  O   UNL     1     -10.077   0.795 131.851  0.00  0.00    +0.000 OA
ATOM     30  H   UNL     1     -10.355   0.599 130.939  0.00  0.00    +0.000 HD
ENDBRANCH  27  29
BRANCH  27  31
ATOM     31  O   UNL     1      -9.753   2.791 133.236  0.00  0.00    +0.000 OA
ATOM     32  H   UNL     1     -10.379   3.507 133.063  0.00  0.00    +0.000 HD
ENDBRANCH  27  31
ENDBRANCH  26  27
ENDBRANCH  25  26
ENDBRANCH  23  25
ENDBRANCH   4  23
BRANCH   8  33
ATOM     33  O   UNL     1      -6.457   0.403 128.621  0.00  0.00    +0.000 OA
ATOM     34  H   UNL     1      -6.222   1.111 127.995  0.00  0.00    +0.000 HD
ENDBRANCH   8  33
TORSDOF 8
ENDMDL
MODEL 2
REMARK VINA RESULT:      -8.1      1.681      2.501
REMARK  Name = Hydrocortisone phosphate
REMARK  10 active torsions:
REMARK  status: ('A' for Active; 'I' for Inactive)
REMARK    1  A    between atoms: C_5  and  O_6
REMARK    2  A    between atoms: C_5  and  C_7
REMARK    3  A    between atoms: C_7  and  C_9
REMARK    4  A    between atoms: C_9  and  O_10
REMARK    5  A    between atoms: O_10  and  P_11
REMARK    6  A    between atoms: P_11  and  O_12
REMARK    7  A    between atoms: P_11  and  O_13
REMARK    8  A    between atoms: C_15  and  C_16
REMARK    9  A    between atoms: C_18  and  O_19
REMARK   10  A    between atoms: C_32  and  C_33
REMARK                            x       y       z     vdW  Elec       q    Type
REMARK                         _______ _______ _______ _____ _____    ______ ____
ROOT
ATOM      1  C   UNL     1      -7.074  -3.130 130.483  0.00  0.00    +0.000 C 
ATOM      2  C   UNL     1      -6.300  -4.315 130.403  0.00  0.00    +0.000 C 
ATOM      3  C   UNL     1      -5.671  -3.069 129.852  0.00  0.00    +0.000 C 
ATOM      4  C   UNL     1      -6.474  -1.218 130.460  0.00  0.00    +0.000 C 
ATOM      5  C   UNL     1      -5.559  -2.087 131.026  0.00  0.00    +0.000 C 
ATOM      6  C   UNL     1      -5.218  -2.275 132.448  0.00  0.00    +0.000 C 
ATOM      7  C   UNL     1      -4.486  -1.328 129.661  0.00  0.00    +0.000 C 
ATOM      8  C   UNL     1      -5.414  -1.015 128.239  0.00  0.00    +0.000 C 
ATOM      9  C   UNL     1      -6.484  -2.147 127.655  0.00  0.00    +0.000 C 
ATOM     10  C   UNL     1      -7.666  -2.631 128.830  0.00  0.00    +0.000 C 
ATOM     11  C   UNL     1      -8.487  -3.796 128.316  0.00  0.00    +0.000 C 
ATOM     12  C   UNL     1      -9.051  -3.532 126.946  0.00  0.00    +0.000 C 
ATOM     13  C   UNL     1      -8.074  -3.068 125.907  0.00  0.00    +0.000 C 
ATOM     14  C   UNL     1      -8.151  -3.552 124.660  0.00  0.00    +0.000 C 
ATOM     15  C   UNL     1      -7.416  -2.768 123.667  0.00  0.00    +0.000 C 
ATOM     16  O   UNL     1      -7.751  -1.668 123.231  0.00  0.00    +0.000 OA
ATOM     17  C   UNL     1      -6.023  -3.134 123.625  0.00  0.00    +0.000 C 
ATOM     18  C   UNL     1      -5.794  -2.123 124.996  0.00  0.00    +0.000 C 
ATOM     19  C   UNL     1      -7.079  -1.953 126.215  0.00  0.00    +0.000 C 
ATOM     20  C   UNL     1      -7.910  -0.655 126.348  0.00  0.00    +0.000 C 
ENDROOT
BRANCH   4  21
ATOM     21  O   UNL     1      -7.658  -1.219 131.357  0.00  0.00    +0.000 OA
ATOM     22  H   UNL     1      -7.931  -0.329 131.624  0.00  0.00    +0.000 HD
ENDBRANCH   4  21
BRANCH   4  23
ATOM     23  C   UNL     1      -5.789   0.328 131.237  0.00  0.00    +0.000 C 
ATOM     24  O   UNL     1      -6.484   1.107 131.917  0.00  0.00    +0.000 OA
BRANCH  23  25
ATOM     25  C   UNL     1      -4.257   0.945 131.052  0.00  0.00    +0.000 C 
BRANCH  25  26
ATOM     26  O   UNL     1      -4.228   2.511 131.089  0.00  0.00    +0.000 OA
BRANCH  26  27
ATOM     27  P   UNL     1      -4.173   3.344 129.573  0.00  0.00    +0.000 P 
ATOM     28  O   UNL     1      -4.124   4.088 128.217  0.00  0.00    +0.000 OA
BRANCH  27  29
ATOM     29  O   UNL     1      -3.670   1.900 128.990  0.00  0.00    +0.000 OA
ATOM     30  H   UNL     1      -3.497   1.944 128.034  0.00  0.00    +0.000 HD
ENDBRANCH  27  29
BRANCH  27  31
ATOM     31  O   UNL     1      -5.781   3.042 129.489  0.00  0.00    +0.000 OA
ATOM     32  H   UNL     1      -6.299   3.683 128.984  0.00  0.00    +0.000 HD
ENDBRANCH  27  31
ENDBRANCH  26  27
ENDBRANCH  25  26
ENDBRANCH  23  25
ENDBRANCH   4  23
BRANCH   8  33
ATOM     33  O   UNL     1      -6.104   0.227 128.508  0.00  0.00    +0.000 OA
ATOM     34  H   UNL     1      -5.708   0.659 129.287  0.00  0.00    +0.000 HD
ENDBRANCH   8  33
TORSDOF 8
ENDMDL
MODEL 3
REMARK VINA RESULT:      -8.0      3.270      6.260
REMARK  Name = Hydrocortisone phosphate
REMARK  10 active torsions:
REMARK  status: ('A' for Active; 'I' for Inactive)
REMARK    1  A    between atoms: C_5  and  O_6
REMARK    2  A    between atoms: C_5  and  C_7
REMARK    3  A    between atoms: C_7  and  C_9
REMARK    4  A    between atoms: C_9  and  O_10
REMARK    5  A    between atoms: O_10  and  P_11
REMARK    6  A    between atoms: P_11  and  O_12
REMARK    7  A    between atoms: P_11  and  O_13
REMARK    8  A    between atoms: C_15  and  C_16
REMARK    9  A    between atoms: C_18  and  O_19
REMARK   10  A    between atoms: C_32  and  C_33
REMARK                            x       y       z     vdW  Elec       q    Type
REMARK                         _______ _______ _______ _____ _____    ______ ____
ROOT
ATOM      1  C   UNL     1      -7.463  -1.267 123.577  0.00  0.00    +0.000 C 
ATOM      2  C   UNL     1      -6.271  -1.566 122.871  0.00  0.00    +0.000 C 
ATOM      3  C   UNL     1      -6.178  -1.575 124.368  0.00  0.00    +0.000 C 
ATOM      4  C   UNL     1      -7.975  -1.734 125.458  0.00  0.00    +0.000 C 
ATOM      5  C   UNL     1      -7.146  -2.662 124.854  0.00  0.00    +0.000 C 
ATOM      6  C   UNL     1      -7.478  -4.000 124.331  0.00  0.00    +0.000 C 
ATOM      7  C   UNL     1      -6.102  -2.232 126.376  0.00  0.00    +0.000 C 
ATOM      8  C   UNL     1      -6.256  -0.562 126.788  0.00  0.00    +0.000 C 
ATOM      9  C   UNL     1      -6.188   0.614 125.614  0.00  0.00    +0.000 C 
ATOM     10  C   UNL     1      -7.358   0.382 124.353  0.00  0.00    +0.000 C 
ATOM     11  C   UNL     1      -7.126   1.359 123.219  0.00  0.00    +0.000 C 
ATOM     12  C   UNL     1      -7.017   2.778 123.707  0.00  0.00    +0.000 C 
ATOM     13  C   UNL     1      -6.050   3.020 124.827  0.00  0.00    +0.000 C 
ATOM     14  C   UNL     1      -5.271   4.111 124.808  0.00  0.00    +0.000 C 
ATOM     15  C   UNL     1      -4.661   4.433 126.098  0.00  0.00    +0.000 C 
ATOM     16  O   UNL     1      -5.248   4.902 127.072  0.00  0.00    +0.000 OA
ATOM     17  C   UNL     1      -3.449   3.685 126.315  0.00  0.00    +0.000 C 
ATOM     18  C   UNL     1      -4.439   2.368 126.802  0.00  0.00    +0.000 C 
ATOM     19  C   UNL     1      -6.033   2.112 126.053  0.00  0.00    +0.000 C 
ATOM     20  C   UNL     1      -7.348   2.394 126.818  0.00  0.00    +0.000 C 
ENDROOT
BRANCH   4  21
ATOM     21  O   UNL     1      -9.258  -1.774 124.709  0.00  0.00    +0.000 OA
ATOM     22  H   UNL     1     -10.031  -1.831 125.287  0.00  0.00    +0.000 HD
ENDBRANCH   4  21
BRANCH   4  23
ATOM     23  C   UNL     1      -8.622  -2.873 126.779  0.00  0.00    +0.000 C 
ATOM     24  O   UNL     1      -9.785  -3.320 126.776  0.00  0.00    +0.000 OA
BRANCH  23  25
ATOM     25  C   UNL     1      -7.833  -3.348 128.163  0.00  0.00    +0.000 C 
BRANCH  25  26
ATOM     26  O   UNL     1      -8.252  -2.505 129.416  0.00  0.00    +0.000 OA
BRANCH  26  27
ATOM     27  P   UNL     1      -7.276  -2.648 130.837  0.00  0.00    +0.000 P 
ATOM     28  O   UNL     1      -6.401  -2.776 132.108  0.00  0.00    +0.000 OA
BRANCH  27  29
ATOM     29  O   UNL     1      -6.611  -3.919 130.048  0.00  0.00    +0.000 OA
ATOM     30  H   UNL     1      -5.836  -3.647 129.527  0.00  0.00    +0.000 HD
ENDBRANCH  27  29
BRANCH  27  31
ATOM     31  O   UNL     1      -6.341  -1.485 130.162  0.00  0.00    +0.000 OA
ATOM     32  H   UNL     1      -5.463  -1.770 129.876  0.00  0.00    +0.000 HD
ENDBRANCH  27  31
ENDBRANCH  26  27
ENDBRANCH  25  26
ENDBRANCH  23  25
ENDBRANCH   4  23
BRANCH   8  33
ATOM     33  O   UNL     1      -7.506  -0.470 127.511  0.00  0.00    +0.000 OA
ATOM     34  H   UNL     1      -8.061  -1.244 127.305  0.00  0.00    +0.000 HD
ENDBRANCH   8  33
TORSDOF 8
ENDMDL
MODEL 4
REMARK VINA RESULT:      -8.0      2.639      6.655
REMARK  Name = Hydrocortisone phosphate
REMARK  10 active torsions:
REMARK  status: ('A' for Active; 'I' for Inactive)
REMARK    1  A    between atoms: C_5  and  O_6
REMARK    2  A    between atoms: C_5  and  C_7
REMARK    3  A    between atoms: C_7  and  C_9
REMARK    4  A    between atoms: C_9  and  O_10
REMARK    5  A    between atoms: O_10  and  P_11
REMARK    6  A    between atoms: P_11  and  O_12
REMARK    7  A    between atoms: P_11  and  O_13
REMARK    8  A    between atoms: C_15  and  C_16
REMARK    9  A    between atoms: C_18  and  O_19
REMARK   10  A    between atoms: C_32  and  C_33
REMARK                            x       y       z     vdW  Elec       q    Type
REMARK                         _______ _______ _______ _____ _____    ______ ____
ROOT
ATOM      1  C   UNL     1      -7.898  -3.472 126.619  0.00  0.00    +0.000 C 
ATOM      2  C   UNL     1      -9.151  -3.929 127.098  0.00  0.00    +0.000 C 
ATOM      3  C   UNL     1      -9.061  -2.472 126.754  0.00  0.00    +0.000 C 
ATOM      4  C   UNL     1      -7.476  -1.858 125.507  0.00  0.00    +0.000 C 
ATOM      5  C   UNL     1      -8.723  -2.401 125.259  0.00  0.00    +0.000 C 
ATOM      6  C   UNL     1      -9.174  -3.197 124.102  0.00  0.00    +0.000 C 
ATOM      7  C   UNL     1      -9.224  -0.633 125.722  0.00  0.00    +0.000 C 
ATOM      8  C   UNL     1      -8.202  -0.001 126.962  0.00  0.00    +0.000 C 
ATOM      9  C   UNL     1      -7.804  -0.921 128.290  0.00  0.00    +0.000 C 
ATOM     10  C   UNL     1      -7.066  -2.434 127.869  0.00  0.00    +0.000 C 
ATOM     11  C   UNL     1      -6.905  -3.311 129.094  0.00  0.00    +0.000 C 
ATOM     12  C   UNL     1      -6.226  -2.587 130.224  0.00  0.00    +0.000 C 
ATOM     13  C   UNL     1      -6.801  -1.253 130.595  0.00  0.00    +0.000 C 
ATOM     14  C   UNL     1      -6.920  -0.916 131.887  0.00  0.00    +0.000 C 
ATOM     15  C   UNL     1      -7.130   0.513 132.116  0.00  0.00    +0.000 C 
ATOM     16  O   UNL     1      -6.278   1.392 131.995  0.00  0.00    +0.000 OA
ATOM     17  C   UNL     1      -8.519   0.875 131.991  0.00  0.00    +0.000 C 
ATOM     18  C   UNL     1      -8.278   0.903 130.289  0.00  0.00    +0.000 C 
ATOM     19  C   UNL     1      -7.131  -0.219 129.521  0.00  0.00    +0.000 C 
ATOM     20  C   UNL     1      -5.774   0.263 128.955  0.00  0.00    +0.000 C 
ENDROOT
BRANCH   4  21
ATOM     21  O   UNL     1      -6.486  -2.875 125.067  0.00  0.00    +0.000 OA
ATOM     22  H   UNL     1      -6.397  -3.610 125.689  0.00  0.00    +0.000 HD
ENDBRANCH   4  21
BRANCH   4  23
ATOM     23  C   UNL     1      -7.343  -0.922 123.904  0.00  0.00    +0.000 C 
ATOM     24  O   UNL     1      -6.421  -1.109 123.087  0.00  0.00    +0.000 OA
BRANCH  23  25
ATOM     25  C   UNL     1      -8.309   0.332 123.397  0.00  0.00    +0.000 C 
BRANCH  25  26
ATOM     26  O   UNL     1      -7.560   1.708 123.396  0.00  0.00    +0.000 OA
BRANCH  26  27
ATOM     27  P   UNL     1      -8.234   2.983 124.352  0.00  0.00    +0.000 P 
ATOM     28  O   UNL     1      -8.838   4.124 125.208  0.00  0.00    +0.000 OA
BRANCH  27  29
ATOM     29  O   UNL     1      -8.173   3.835 122.956  0.00  0.00    +0.000 OA
ATOM     30  H   UNL     1      -8.882   4.500 122.915  0.00  0.00    +0.000 HD
ENDBRANCH  27  29
BRANCH  27  31
ATOM     31  O   UNL     1      -9.677   2.259 124.080  0.00  0.00    +0.000 OA
ATOM     32  H   UNL     1     -10.003   1.696 124.795  0.00  0.00    +0.000 HD
ENDBRANCH  27  31
ENDBRANCH  26  27
ENDBRANCH  25  26
ENDBRANCH  23  25
ENDBRANCH   4  23
BRANCH   8  33
ATOM     33  O   UNL     1      -7.002   0.425 126.276  0.00  0.00    +0.000 OA
ATOM     34  H   UNL     1      -6.421   0.902 126.897  0.00  0.00    +0.000 HD
ENDBRANCH   8  33
TORSDOF 8
ENDMDL
MODEL 5
REMARK VINA RESULT:      -8.0      5.340      9.126
REMARK  Name = Hydrocortisone phosphate
REMARK  10 active torsions:
REMARK  status: ('A' for Active; 'I' for Inactive)
REMARK    1  A    between atoms: C_5  and  O_6
REMARK    2  A    between atoms: C_5  and  C_7
REMARK    3  A    between atoms: C_7  and  C_9
REMARK    4  A    between atoms: C_9  and  O_10
REMARK    5  A    between atoms: O_10  and  P_11
REMARK    6  A    between atoms: P_11  and  O_12
REMARK    7  A    between atoms: P_11  and  O_13
REMARK    8  A    between atoms: C_15  and  C_16
REMARK    9  A    between atoms: C_18  and  O_19
REMARK   10  A    between atoms: C_32  and  C_33
REMARK                            x       y       z     vdW  Elec       q    Type
REMARK                         _______ _______ _______ _____ _____    ______ ____
ROOT
ATOM      1  C   UNL     1      -3.880   4.243 126.450  0.00  0.00    +0.000 C 
ATOM      2  C   UNL     1      -2.972   3.154 126.475  0.00  0.00    +0.000 C 
ATOM      3  C   UNL     1      -4.155   3.056 127.391  0.00  0.00    +0.000 C 
ATOM      4  C   UNL     1      -5.810   4.298 126.989  0.00  0.00    +0.000 C 
ATOM      5  C   UNL     1      -5.400   3.074 126.493  0.00  0.00    +0.000 C 
ATOM      6  C   UNL     1      -5.686   2.462 125.182  0.00  0.00    +0.000 C 
ATOM      7  C   UNL     1      -6.043   2.539 128.194  0.00  0.00    +0.000 C 
ATOM      8  C   UNL     1      -5.711   3.738 129.391  0.00  0.00    +0.000 C 
ATOM      9  C   UNL     1      -4.220   4.470 129.474  0.00  0.00    +0.000 C 
ATOM     10  C   UNL     1      -3.753   5.226 127.983  0.00  0.00    +0.000 C 
ATOM     11  C   UNL     1      -2.317   5.703 128.050  0.00  0.00    +0.000 C 
ATOM     12  C   UNL     1      -2.054   6.538 129.274  0.00  0.00    +0.000 C 
ATOM     13  C   UNL     1      -2.482   5.945 130.584  0.00  0.00    +0.000 C 
ATOM     14  C   UNL     1      -1.689   6.066 131.658  0.00  0.00    +0.000 C 
ATOM     15  C   UNL     1      -2.360   5.793 132.929  0.00  0.00    +0.000 C 
ATOM     16  O   UNL     1      -3.174   6.529 133.482  0.00  0.00    +0.000 OA
ATOM     17  C   UNL     1      -2.389   4.383 133.225  0.00  0.00    +0.000 C 
ATOM     18  C   UNL     1      -3.742   4.269 132.172  0.00  0.00    +0.000 C 
ATOM     19  C   UNL     1      -3.866   5.322 130.743  0.00  0.00    +0.000 C 
ATOM     20  C   UNL     1      -4.876   6.492 130.677  0.00  0.00    +0.000 C 
ENDROOT
BRANCH   4  21
ATOM     21  O   UNL     1      -5.718   5.257 125.857  0.00  0.00    +0.000 OA
ATOM     22  H   UNL     1      -4.961   5.855 125.928  0.00  0.00    +0.000 HD
ENDBRANCH   4  21
BRANCH   4  23
ATOM     23  C   UNL     1      -7.630   4.027 126.713  0.00  0.00    +0.000 C 
ATOM     24  O   UNL     1      -8.479   4.924 126.878  0.00  0.00    +0.000 OA
BRANCH  23  25
ATOM     25  C   UNL     1      -8.381   2.591 126.346  0.00  0.00    +0.000 C 
BRANCH  25  26
ATOM     26  O   UNL     1      -9.289   2.693 125.073  0.00  0.00    +0.000 OA
BRANCH  26  27
ATOM     27  P   UNL     1      -9.554   1.244 124.164  0.00  0.00    +0.000 P 
ATOM     28  O   UNL     1      -9.792  -0.051 123.350  0.00  0.00    +0.000 OA
BRANCH  27  29
ATOM     29  O   UNL     1     -11.137   1.594 124.388  0.00  0.00    +0.000 OA
ATOM     30  H   UNL     1     -11.251   2.438 124.858  0.00  0.00    +0.000 HD
ENDBRANCH  27  29
BRANCH  27  31
ATOM     31  O   UNL     1      -9.331   2.181 122.839  0.00  0.00    +0.000 OA
ATOM     32  H   UNL     1      -9.615   1.793 122.001  0.00  0.00    +0.000 HD
ENDBRANCH  27  31
ENDBRANCH  26  27
ENDBRANCH  25  26
ENDBRANCH  23  25
ENDBRANCH   4  23
BRANCH   8  33
ATOM     33  O   UNL     1      -6.745   4.735 129.218  0.00  0.00    +0.000 OA
ATOM     34  H   UNL     1      -7.494   4.537 129.808  0.00  0.00    +0.000 HD
ENDBRANCH   8  33
TORSDOF 8
ENDMDL
MODEL 6
REMARK VINA RESULT:      -7.9      6.643      9.029
REMARK  Name = Hydrocortisone phosphate
REMARK  10 active torsions:
REMARK  status: ('A' for Active; 'I' for Inactive)
REMARK    1  A    between atoms: C_5  and  O_6
REMARK    2  A    between atoms: C_5  and  C_7
REMARK    3  A    between atoms: C_7  and  C_9
REMARK    4  A    between atoms: C_9  and  O_10
REMARK    5  A    between atoms: O_10  and  P_11
REMARK    6  A    between atoms: P_11  and  O_12
REMARK    7  A    between atoms: P_11  and  O_13
REMARK    8  A    between atoms: C_15  and  C_16
REMARK    9  A    between atoms: C_18  and  O_19
REMARK   10  A    between atoms: C_32  and  C_33
REMARK                            x       y       z     vdW  Elec       q    Type
REMARK                         _______ _______ _______ _____ _____    ______ ____
ROOT
ATOM      1  C   UNL     1      -6.953   3.638 132.986  0.00  0.00    +0.000 C 
ATOM      2  C   UNL     1      -7.071   4.259 134.255  0.00  0.00    +0.000 C 
ATOM      3  C   UNL     1      -7.033   5.174 133.067  0.00  0.00    +0.000 C 
ATOM      4  C   UNL     1      -7.458   4.342 131.178  0.00  0.00    +0.000 C 
ATOM      5  C   UNL     1      -8.252   4.815 132.206  0.00  0.00    +0.000 C 
ATOM      6  C   UNL     1      -9.637   4.445 132.554  0.00  0.00    +0.000 C 
ATOM      7  C   UNL     1      -7.628   6.456 131.495  0.00  0.00    +0.000 C 
ATOM      8  C   UNL     1      -5.997   6.319 130.945  0.00  0.00    +0.000 C 
ATOM      9  C   UNL     1      -4.850   5.547 131.869  0.00  0.00    +0.000 C 
ATOM     10  C   UNL     1      -5.293   3.920 132.280  0.00  0.00    +0.000 C 
ATOM     11  C   UNL     1      -4.315   3.333 133.277  0.00  0.00    +0.000 C 
ATOM     12  C   UNL     1      -2.887   3.488 132.829  0.00  0.00    +0.000 C 
ATOM     13  C   UNL     1      -2.469   4.870 132.420  0.00  0.00    +0.000 C 
ATOM     14  C   UNL     1      -1.268   5.336 132.788  0.00  0.00    +0.000 C 
ATOM     15  C   UNL     1      -0.825   6.510 132.035  0.00  0.00    +0.000 C 
ATOM     16  O   UNL     1      -0.437   6.508 130.869  0.00  0.00    +0.000 OA
ATOM     17  C   UNL     1      -1.363   7.729 132.584  0.00  0.00    +0.000 C 
ATOM     18  C   UNL     1      -2.812   7.384 131.727  0.00  0.00    +0.000 C 
ATOM     19  C   UNL     1      -3.337   5.702 131.481  0.00  0.00    +0.000 C 
ATOM     20  C   UNL     1      -3.256   5.016 130.096  0.00  0.00    +0.000 C 
ENDROOT
BRANCH   4  21
ATOM     21  O   UNL     1      -7.719   2.882 131.089  0.00  0.00    +0.000 OA
ATOM     22  H   UNL     1      -7.393   2.489 130.268  0.00  0.00    +0.000 HD
ENDBRANCH   4  21
BRANCH   4  23
ATOM     23  C   UNL     1      -8.659   4.719 129.808  0.00  0.00    +0.000 C 
ATOM     24  O   UNL     1      -8.797   3.986 128.810  0.00  0.00    +0.000 OA
BRANCH  23  25
ATOM     25  C   UNL     1      -9.595   6.084 129.648  0.00  0.00    +0.000 C 
BRANCH  25  26
ATOM     26  O   UNL     1      -9.838   6.476 128.150  0.00  0.00    +0.000 OA
BRANCH  26  27
ATOM     27  P   UNL     1     -11.265   7.383 127.785  0.00  0.00    +0.000 P 
ATOM     28  O   UNL     1     -12.543   8.194 127.458  0.00  0.00    +0.000 OA
BRANCH  27  29
ATOM     29  O   UNL     1     -11.206   6.583 126.359  0.00  0.00    +0.000 OA
ATOM     30  H   UNL     1     -11.525   7.138 125.626  0.00  0.00    +0.000 HD
ENDBRANCH  27  29
BRANCH  27  31
ATOM     31  O   UNL     1     -12.066   6.228 128.626  0.00  0.00    +0.000 OA
ATOM     32  H   UNL     1     -12.988   6.429 128.836  0.00  0.00    +0.000 HD
ENDBRANCH  27  31
ENDBRANCH  26  27
ENDBRANCH  25  26
ENDBRANCH  23  25
ENDBRANCH   4  23
BRANCH   8  33
ATOM     33  O   UNL     1      -6.093   5.691 129.645  0.00  0.00    +0.000 OA
ATOM     34  H   UNL     1      -5.201   5.468 129.324  0.00  0.00    +0.000 HD
ENDBRANCH   8  33
TORSDOF 8
ENDMDL
MODEL 7
REMARK VINA RESULT:      -7.9      3.695      7.865
REMARK  Name = Hydrocortisone phosphate
REMARK  10 active torsions:
REMARK  status: ('A' for Active; 'I' for Inactive)
REMARK    1  A    between atoms: C_5  and  O_6
REMARK    2  A    between atoms: C_5  and  C_7
REMARK    3  A    between atoms: C_7  and  C_9
REMARK    4  A    between atoms: C_9  and  O_10
REMARK    5  A    between atoms: O_10  and  P_11
REMARK    6  A    between atoms: P_11  and  O_12
REMARK    7  A    between atoms: P_11  and  O_13
REMARK    8  A    between atoms: C_15  and  C_16
REMARK    9  A    between atoms: C_18  and  O_19
REMARK   10  A    between atoms: C_32  and  C_33
REMARK                            x       y       z     vdW  Elec       q    Type
REMARK                         _______ _______ _______ _____ _____    ______ ____
ROOT
ATOM      1  C   UNL     1      -7.028   3.723 125.263  0.00  0.00    +0.000 C 
ATOM      2  C   UNL     1      -5.672   3.870 124.876  0.00  0.00    +0.000 C 
ATOM      3  C   UNL     1      -6.182   2.464 124.997  0.00  0.00    +0.000 C 
ATOM      4  C   UNL     1      -8.270   2.177 124.974  0.00  0.00    +0.000 C 
ATOM      5  C   UNL     1      -7.323   2.330 123.978  0.00  0.00    +0.000 C 
ATOM      6  C   UNL     1      -7.494   2.846 122.607  0.00  0.00    +0.000 C 
ATOM      7  C   UNL     1      -6.946   0.552 124.515  0.00  0.00    +0.000 C 
ATOM      8  C   UNL     1      -7.158   0.356 126.218  0.00  0.00    +0.000 C 
ATOM      9  C   UNL     1      -6.564   1.485 127.285  0.00  0.00    +0.000 C 
ATOM     10  C   UNL     1      -7.148   3.089 126.971  0.00  0.00    +0.000 C 
ATOM     11  C   UNL     1      -6.431   4.101 127.839  0.00  0.00    +0.000 C 
ATOM     12  C   UNL     1      -6.446   3.713 129.293  0.00  0.00    +0.000 C 
ATOM     13  C   UNL     1      -5.991   2.320 129.610  0.00  0.00    +0.000 C 
ATOM     14  C   UNL     1      -5.209   2.103 130.677  0.00  0.00    +0.000 C 
ATOM     15  C   UNL     1      -5.145   0.703 131.096  0.00  0.00    +0.000 C 
ATOM     16  O   UNL     1      -6.042   0.081 131.662  0.00  0.00    +0.000 OA
ATOM     17  C   UNL     1      -4.161  -0.034 130.343  0.00  0.00    +0.000 C 
ATOM     18  C   UNL     1      -5.336  -0.176 129.096  0.00  0.00    +0.000 C 
ATOM     19  C   UNL     1      -6.513   1.128 128.812  0.00  0.00    +0.000 C 
ATOM     20  C   UNL     1      -8.006   0.976 129.190  0.00  0.00    +0.000 C 
ENDROOT
BRANCH   4  21
ATOM     21  O   UNL     1      -9.150   3.371 124.898  0.00  0.00    +0.000 OA
ATOM     22  H   UNL     1      -8.877   4.081 125.497  0.00  0.00    +0.000 HD
ENDBRANCH   4  21
BRANCH   4  23
ATOM     23  C   UNL     1      -9.451   1.147 123.970  0.00  0.00    +0.000 C 
ATOM     24  O   UNL     1     -10.688   1.285 124.031  0.00  0.00    +0.000 OA
BRANCH  23  25
ATOM     25  C   UNL     1      -9.068  -0.133 122.981  0.00  0.00    +0.000 C 
BRANCH  25  26
ATOM     26  O   UNL     1      -9.880  -1.427 123.328  0.00  0.00    +0.000 OA
BRANCH  26  27
ATOM     27  P   UNL     1      -8.996  -2.783 123.942  0.00  0.00    +0.000 P 
ATOM     28  O   UNL     1      -8.206  -3.996 124.491  0.00  0.00    +0.000 OA
BRANCH  27  29
ATOM     29  O   UNL     1      -9.727  -2.404 125.356  0.00  0.00    +0.000 OA
ATOM     30  H   UNL     1     -10.524  -2.943 125.499  0.00  0.00    +0.000 HD
ENDBRANCH  27  29
BRANCH  27  31
ATOM     31  O   UNL     1     -10.210  -3.695 123.329  0.00  0.00    +0.000 OA
ATOM     32  H   UNL     1     -10.737  -4.179 123.979  0.00  0.00    +0.000 HD
ENDBRANCH  27  31
ENDBRANCH  26  27
ENDBRANCH  25  26
ENDBRANCH  23  25
ENDBRANCH   4  23
BRANCH   8  33
ATOM     33  O   UNL     1      -8.585   0.203 126.402  0.00  0.00    +0.000 OA
ATOM     34  H   UNL     1      -9.057   0.855 125.854  0.00  0.00    +0.000 HD
ENDBRANCH   8  33
TORSDOF 8
ENDMDL
MODEL 8
REMARK VINA RESULT:      -7.9      1.848      2.617
REMARK  Name = Hydrocortisone phosphate
REMARK  10 active torsions:
REMARK  status: ('A' for Active; 'I' for Inactive)
REMARK    1  A    between atoms: C_5  and  O_6
REMARK    2  A    between atoms: C_5  and  C_7
REMARK    3  A    between atoms: C_7  and  C_9
REMARK    4  A    between atoms: C_9  and  O_10
REMARK    5  A    between atoms: O_10  and  P_11
REMARK    6  A    between atoms: P_11  and  O_12
REMARK    7  A    between atoms: P_11  and  O_13
REMARK    8  A    between atoms: C_15  and  C_16
REMARK    9  A    between atoms: C_18  and  O_19
REMARK   10  A    between atoms: C_32  and  C_33
REMARK                            x       y       z     vdW  Elec       q    Type
REMARK                         _______ _______ _______ _____ _____    ______ ____
ROOT
ATOM      1  C   UNL     1      -7.044  -3.192 130.443  0.00  0.00    +0.000 C 
ATOM      2  C   UNL     1      -6.237  -4.349 130.312  0.00  0.00    +0.000 C 
ATOM      3  C   UNL     1      -5.653  -3.068 129.796  0.00  0.00    +0.000 C 
ATOM      4  C   UNL     1      -6.501  -1.263 130.477  0.00  0.00    +0.000 C 
ATOM      5  C   UNL     1      -5.553  -2.122 131.001  0.00  0.00    +0.000 C 
ATOM      6  C   UNL     1      -5.185  -2.349 132.411  0.00  0.00    +0.000 C 
ATOM      7  C   UNL     1      -4.523  -1.286 129.647  0.00  0.00    +0.000 C 
ATOM      8  C   UNL     1      -5.481  -0.954 128.250  0.00  0.00    +0.000 C 
ATOM      9  C   UNL     1      -6.526  -2.096 127.643  0.00  0.00    +0.000 C 
ATOM     10  C   UNL     1      -7.676  -2.655 128.817  0.00  0.00    +0.000 C 
ATOM     11  C   UNL     1      -8.470  -3.827 128.275  0.00  0.00    +0.000 C 
ATOM     12  C   UNL     1      -9.062  -3.533 126.923  0.00  0.00    +0.000 C 
ATOM     13  C   UNL     1      -8.115  -3.005 125.887  0.00  0.00    +0.000 C 
ATOM     14  C   UNL     1      -8.195  -3.449 124.625  0.00  0.00    +0.000 C 
ATOM     15  C   UNL     1      -7.499  -2.610 123.650  0.00  0.00    +0.000 C 
ATOM     16  O   UNL     1      -7.872  -1.507 123.256  0.00  0.00    +0.000 OA
ATOM     17  C   UNL     1      -6.096  -2.933 123.575  0.00  0.00    +0.000 C 
ATOM     18  C   UNL     1      -5.877  -1.963 124.977  0.00  0.00    +0.000 C 
ATOM     19  C   UNL     1      -7.148  -1.872 126.219  0.00  0.00    +0.000 C 
ATOM     20  C   UNL     1      -8.015  -0.605 126.408  0.00  0.00    +0.000 C 
ENDROOT
BRANCH   4  21
ATOM     21  O   UNL     1      -7.671  -1.329 131.390  0.00  0.00    +0.000 OA
ATOM     22  H   UNL     1      -7.981  -0.457 131.673  0.00  0.00    +0.000 HD
ENDBRANCH   4  21
BRANCH   4  23
ATOM     23  C   UNL     1      -5.851   0.276 131.298  0.00  0.00    +0.000 C 
ATOM     24  O   UNL     1      -6.592   1.197 131.691  0.00  0.00    +0.000 OA
BRANCH  23  25
ATOM     25  C   UNL     1      -4.257   0.697 131.510  0.00  0.00    +0.000 C 
BRANCH  25  26
ATOM     26  O   UNL     1      -3.929   1.089 132.991  0.00  0.00    +0.000 OA
BRANCH  26  27
ATOM     27  P   UNL     1      -3.253   2.658 133.270  0.00  0.00    +0.000 P 
ATOM     28  O   UNL     1      -2.648   4.061 133.520  0.00  0.00    +0.000 OA
BRANCH  27  29
ATOM     29  O   UNL     1      -4.800   3.167 133.115  0.00  0.00    +0.000 OA
ATOM     30  H   UNL     1      -4.936   3.641 132.276  0.00  0.00    +0.000 HD
ENDBRANCH  27  29
BRANCH  27  31
ATOM     31  O   UNL     1      -3.329   2.274 134.860  0.00  0.00    +0.000 OA
ATOM     32  H   UNL     1      -4.177   1.924 135.164  0.00  0.00    +0.000 HD
ENDBRANCH  27  31
ENDBRANCH  26  27
ENDBRANCH  25  26
ENDBRANCH  23  25
ENDBRANCH   4  23
BRANCH   8  33
ATOM     33  O   UNL     1      -6.203   0.258 128.571  0.00  0.00    +0.000 OA
ATOM     34  H   UNL     1      -5.624   0.860 129.072  0.00  0.00    +0.000 HD
ENDBRANCH   8  33
TORSDOF 8
ENDMDL
MODEL 9
REMARK VINA RESULT:      -7.4      3.998      6.056
REMARK  Name = Hydrocortisone phosphate
REMARK  10 active torsions:
REMARK  status: ('A' for Active; 'I' for Inactive)
REMARK    1  A    between atoms: C_5  and  O_6
REMARK    2  A    between atoms: C_5  and  C_7
REMARK    3  A    between atoms: C_7  and  C_9
REMARK    4  A    between atoms: C_9  and  O_10
REMARK    5  A    between atoms: O_10  and  P_11
REMARK    6  A    between atoms: P_11  and  O_12
REMARK    7  A    between atoms: P_11  and  O_13
REMARK    8  A    between atoms: C_15  and  C_16
REMARK    9  A    between atoms: C_18  and  O_19
REMARK   10  A    between atoms: C_32  and  C_33
REMARK                            x       y       z     vdW  Elec       q    Type
REMARK                         _______ _______ _______ _____ _____    ______ ____
ROOT
ATOM      1  C   UNL     1      -8.084   3.054 132.423  0.00  0.00    +0.000 C 
ATOM      2  C   UNL     1      -6.745   3.146 132.877  0.00  0.00    +0.000 C 
ATOM      3  C   UNL     1      -7.091   3.946 131.656  0.00  0.00    +0.000 C 
ATOM      4  C   UNL     1      -9.130   4.331 131.287  0.00  0.00    +0.000 C 
ATOM      5  C   UNL     1      -8.180   4.940 132.086  0.00  0.00    +0.000 C 
ATOM      6  C   UNL     1      -8.371   5.730 133.316  0.00  0.00    +0.000 C 
ATOM      7  C   UNL     1      -7.615   5.552 130.384  0.00  0.00    +0.000 C 
ATOM      8  C   UNL     1      -7.851   4.341 129.175  0.00  0.00    +0.000 C 
ATOM      9  C   UNL     1      -7.421   2.760 129.459  0.00  0.00    +0.000 C 
ATOM     10  C   UNL     1      -8.178   2.096 130.873  0.00  0.00    +0.000 C 
ATOM     11  C   UNL     1      -7.607   0.730 131.196  0.00  0.00    +0.000 C 
ATOM     12  C   UNL     1      -7.618  -0.186 130.001  0.00  0.00    +0.000 C 
ATOM     13  C   UNL     1      -7.014   0.362 128.743  0.00  0.00    +0.000 C 
ATOM     14  C   UNL     1      -6.243  -0.425 127.980  0.00  0.00    +0.000 C 
ATOM     15  C   UNL     1      -6.028   0.082 126.624  0.00  0.00    +0.000 C 
ATOM     16  O   UNL     1      -6.863   0.092 125.722  0.00  0.00    +0.000 OA
ATOM     17  C   UNL     1      -4.946   1.032 126.575  0.00  0.00    +0.000 C 
ATOM     18  C   UNL     1      -6.060   2.214 127.136  0.00  0.00    +0.000 C 
ATOM     19  C   UNL     1      -7.372   1.761 128.250  0.00  0.00    +0.000 C 
ATOM     20  C   UNL     1      -8.847   1.692 127.789  0.00  0.00    +0.000 C 
ENDROOT
BRANCH   4  21
ATOM     21  O   UNL     1     -10.140   3.752 132.210  0.00  0.00    +0.000 OA
ATOM     22  H   UNL     1     -10.530   2.931 131.878  0.00  0.00    +0.000 HD
ENDBRANCH   4  21
BRANCH   4  23
ATOM     23  C   UNL     1     -10.156   5.858 130.999  0.00  0.00    +0.000 C 
ATOM     24  O   UNL     1     -11.340   5.957 131.374  0.00  0.00    +0.000 OA
BRANCH  23  25
ATOM     25  C   UNL     1      -9.717   7.206 130.132  0.00  0.00    +0.000 C 
BRANCH  25  26
ATOM     26  O   UNL     1     -10.936   7.891 129.424  0.00  0.00    +0.000 OA
BRANCH  26  27
ATOM     27  P   UNL     1     -11.269   7.432 127.789  0.00  0.00    +0.000 P 
ATOM     28  O   UNL     1     -11.567   7.020 126.326  0.00  0.00    +0.000 OA
BRANCH  27  29
ATOM     29  O   UNL     1      -9.719   6.908 127.798  0.00  0.00    +0.000 OA
ATOM     30  H   UNL     1      -9.095   7.647 127.897  0.00  0.00    +0.000 HD
ENDBRANCH  27  29
BRANCH  27  31
ATOM     31  O   UNL     1     -11.938   6.083 128.433  0.00  0.00    +0.000 OA
ATOM     32  H   UNL     1     -12.736   6.224 128.961  0.00  0.00    +0.000 HD
ENDBRANCH  27  31
ENDBRANCH  26  27
ENDBRANCH  25  26
ENDBRANCH  23  25
ENDBRANCH   4  23
BRANCH   8  33
ATOM     33  O   UNL     1      -9.254   4.421 128.835  0.00  0.00    +0.000 OA
ATOM     34  H   UNL     1      -9.550   3.570 128.464  0.00  0.00    +0.000 HD
ENDBRANCH   8  33
TORSDOF 8
ENDMDL
