MODEL 1
REMARK VINA RESULT:      -9.0      0.000      0.000
REMARK  Name = Hydrocortisone cypionate
REMARK  11 active torsions:
REMARK  status: ('A' for Active; 'I' for Inactive)
REMARK    1  A    between atoms: C_5  and  O_6
REMARK    2  A    between atoms: C_5  and  C_7
REMARK    3  A    between atoms: C_7  and  C_9
REMARK    4  A    between atoms: C_9  and  O_10
REMARK    5  A    between atoms: O_10  and  C_11
REMARK    6  A    between atoms: C_11  and  C_13
REMARK    7  A    between atoms: C_13  and  C_14
REMARK    8  A    between atoms: C_14  and  C_15
REMARK    9  A    between atoms: C_20  and  C_21
REMARK   10  A    between atoms: C_23  and  O_24
REMARK   11  A    between atoms: C_37  and  C_38
REMARK                            x       y       z     vdW  Elec       q    Type
REMARK                         _______ _______ _______ _____ _____    ______ ____
ROOT
ATOM      1  C   UNL     1      -4.701   3.730 126.881  0.00  0.00    +0.000 C 
ATOM      2  C   UNL     1      -3.456   3.406 126.289  0.00  0.00    +0.000 C 
ATOM      3  C   UNL     1      -4.623   2.555 125.890  0.00  0.00    +0.000 C 
ATOM      4  C   UNL     1      -6.554   3.317 126.247  0.00  0.00    +0.000 C 
ATOM      5  C   UNL     1      -5.639   3.497 125.225  0.00  0.00    +0.000 C 
ATOM      6  C   UNL     1      -5.474   4.643 124.312  0.00  0.00    +0.000 C 
ATOM      7  C   UNL     1      -6.254   1.755 124.805  0.00  0.00    +0.000 C 
ATOM      8  C   UNL     1      -6.585   0.848 126.236  0.00  0.00    +0.000 C 
ATOM      9  C   UNL     1      -5.528   0.861 127.518  0.00  0.00    +0.000 C 
ATOM     10  C   UNL     1      -5.186   2.460 128.101  0.00  0.00    +0.000 C 
ATOM     11  C   UNL     1      -4.075   2.430 129.131  0.00  0.00    +0.000 C 
ATOM     12  C   UNL     1      -4.337   1.421 130.216  0.00  0.00    +0.000 C 
ATOM     13  C   UNL     1      -4.680   0.034 129.761  0.00  0.00    +0.000 C 
ATOM     14  C   UNL     1      -4.158  -1.024 130.397  0.00  0.00    +0.000 C 
ATOM     15  C   UNL     1      -4.842  -2.287 130.119  0.00  0.00    +0.000 C 
ATOM     16  O   UNL     1      -5.947  -2.614 130.546  0.00  0.00    +0.000 OA
ATOM     17  C   UNL     1      -4.359  -2.898 128.907  0.00  0.00    +0.000 C 
ATOM     18  C   UNL     1      -5.398  -1.831 128.048  0.00  0.00    +0.000 C 
ATOM     19  C   UNL     1      -5.718  -0.192 128.664  0.00  0.00    +0.000 C 
ATOM     20  C   UNL     1      -7.085   0.193 129.279  0.00  0.00    +0.000 C 
ENDROOT
BRANCH   4  21
ATOM     21  O   UNL     1      -6.684   4.632 126.927  0.00  0.00    +0.000 OA
ATOM     22  H   UNL     1      -5.861   5.141 126.921  0.00  0.00    +0.000 HD
ENDBRANCH   4  21
BRANCH   4  23
ATOM     23  C   UNL     1      -8.071   3.612 125.220  0.00  0.00    +0.000 C 
ATOM     24  O   UNL     1      -8.981   4.386 125.576  0.00  0.00    +0.000 OA
BRANCH  23  25
ATOM     25  C   UNL     1      -8.469   2.825 123.823  0.00  0.00    +0.000 C 
BRANCH  25  26
ATOM     26  O   UNL     1      -9.680   1.910 124.062  0.00  0.00    +0.000 OA
BRANCH  26  27
ATOM     27  C   UNL     1      -9.920   0.793 123.290  0.00  0.00    +0.000 C 
ATOM     28  O   UNL     1     -11.023   0.531 122.824  0.00  0.00    +0.000 OA
BRANCH  27  29
ATOM     29  C   UNL     1      -8.675  -0.113 123.056  0.00  0.00    +0.000 C 
BRANCH  29  30
ATOM     30  C   UNL     1      -8.948  -1.623 123.355  0.00  0.00    +0.000 C 
BRANCH  30  31
ATOM     31  C   UNL     1      -7.687  -2.518 123.365  0.00  0.00    +0.000 C 
ATOM     32  C   UNL     1      -6.466  -1.926 122.642  0.00  0.00    +0.000 C 
ATOM     33  C   UNL     1      -5.299  -2.746 123.183  0.00  0.00    +0.000 C 
ATOM     34  C   UNL     1      -5.641  -2.977 124.648  0.00  0.00    +0.000 C 
ATOM     35  C   UNL     1      -7.154  -2.805 124.770  0.00  0.00    +0.000 C 
ENDBRANCH  30  31
ENDBRANCH  29  30
ENDBRANCH  27  29
ENDBRANCH  26  27
ENDBRANCH  25  26
ENDBRANCH  23  25
ENDBRANCH   4  23
BRANCH   8  36
ATOM     36  O   UNL     1      -7.891   1.289 126.668  0.00  0.00    +0.000 OA
ATOM     37  H   UNL     1      -7.922   1.349 127.640  0.00  0.00    +0.000 HD
ENDBRANCH   8  36
TORSDOF 9
ENDMDL
MODEL 2
REMARK VINA RESULT:      -9.0      5.244      8.471
REMARK  Name = Hydrocortisone cypionate
REMARK  11 active torsions:
REMARK  status: ('A' for Active; 'I' for Inactive)
REMARK    1  A    between atoms: C_5  and  O_6
REMARK    2  A    between atoms: C_5  and  C_7
REMARK    3  A    between atoms: C_7  and  C_9
REMARK    4  A    between atoms: C_9  and  O_10
REMARK    5  A    between atoms: O_10  and  C_11
REMARK    6  A    between atoms: C_11  and  C_13
REMARK    7  A    between atoms: C_13  and  C_14
REMARK    8  A    between atoms: C_14  and  C_15
REMARK    9  A    between atoms: C_20  and  C_21
REMARK   10  A    between atoms: C_23  and  O_24
REMARK   11  A    between atoms: C_37  and  C_38
REMARK                            x       y       z     vdW  Elec       q    Type
REMARK                         _______ _______ _______ _____ _____    ______ ____
ROOT
ATOM      1  C   UNL     1      -5.512   3.287 128.974  0.00  0.00    +0.000 C 
ATOM      2  C   UNL     1      -5.030   2.204 129.749  0.00  0.00    +0.000 C 
ATOM      3  C   UNL     1      -5.864   3.217 130.471  0.00  0.00    +0.000 C 
ATOM      4  C   UNL     1      -7.076   4.489 129.309  0.00  0.00    +0.000 C 
ATOM      5  C   UNL     1      -7.244   3.204 129.793  0.00  0.00    +0.000 C 
ATOM      6  C   UNL     1      -8.073   2.107 129.262  0.00  0.00    +0.000 C 
ATOM      7  C   UNL     1      -7.503   4.188 131.391  0.00  0.00    +0.000 C 
ATOM      8  C   UNL     1      -6.477   5.575 131.444  0.00  0.00    +0.000 C 
ATOM      9  C   UNL     1      -4.876   5.469 131.011  0.00  0.00    +0.000 C 
ATOM     10  C   UNL     1      -4.644   4.833 129.412  0.00  0.00    +0.000 C 
ATOM     11  C   UNL     1      -3.176   4.573 129.145  0.00  0.00    +0.000 C 
ATOM     12  C   UNL     1      -2.323   5.771 129.462  0.00  0.00    +0.000 C 
ATOM     13  C   UNL     1      -2.519   6.384 130.816  0.00  0.00    +0.000 C 
ATOM     14  C   UNL     1      -1.456   6.795 131.521  0.00  0.00    +0.000 C 
ATOM     15  C   UNL     1      -1.781   7.697 132.626  0.00  0.00    +0.000 C 
ATOM     16  O   UNL     1      -2.124   8.872 132.516  0.00  0.00    +0.000 OA
ATOM     17  C   UNL     1      -2.167   6.970 133.809  0.00  0.00    +0.000 C 
ATOM     18  C   UNL     1      -3.730   6.818 133.111  0.00  0.00    +0.000 C 
ATOM     19  C   UNL     1      -3.921   6.667 131.349  0.00  0.00    +0.000 C 
ATOM     20  C   UNL     1      -4.484   7.823 130.489  0.00  0.00    +0.000 C 
ENDROOT
BRANCH   4  21
ATOM     21  O   UNL     1      -7.015   4.372 127.829  0.00  0.00    +0.000 OA
ATOM     22  H   UNL     1      -7.018   3.453 127.524  0.00  0.00    +0.000 HD
ENDBRANCH   4  21
BRANCH   4  23
ATOM     23  C   UNL     1      -8.877   4.933 129.275  0.00  0.00    +0.000 C 
ATOM     24  O   UNL     1      -9.365   5.692 128.415  0.00  0.00    +0.000 OA
BRANCH  23  25
ATOM     25  C   UNL     1     -10.006   4.511 130.407  0.00  0.00    +0.000 C 
BRANCH  25  26
ATOM     26  O   UNL     1     -11.253   5.396 130.259  0.00  0.00    +0.000 OA
BRANCH  26  27
ATOM     27  C   UNL     1     -11.523   6.435 131.126  0.00  0.00    +0.000 C 
ATOM     28  O   UNL     1     -10.777   6.742 132.048  0.00  0.00    +0.000 OA
BRANCH  27  29
ATOM     29  C   UNL     1     -12.853   7.191 130.837  0.00  0.00    +0.000 C 
BRANCH  29  30
ATOM     30  C   UNL     1     -12.634   8.597 130.192  0.00  0.00    +0.000 C 
BRANCH  30  31
ATOM     31  C   UNL     1     -12.482   8.585 128.653  0.00  0.00    +0.000 C 
ATOM     32  C   UNL     1     -11.037   8.457 128.145  0.00  0.00    +0.000 C 
ATOM     33  C   UNL     1     -11.207   8.014 126.694  0.00  0.00    +0.000 C 
ATOM     34  C   UNL     1     -12.398   7.067 126.721  0.00  0.00    +0.000 C 
ATOM     35  C   UNL     1     -13.194   7.410 127.979  0.00  0.00    +0.000 C 
ENDBRANCH  30  31
ENDBRANCH  29  30
ENDBRANCH  27  29
ENDBRANCH  26  27
ENDBRANCH  25  26
ENDBRANCH  23  25
ENDBRANCH   4  23
BRANCH   8  36
ATOM     36  O   UNL     1      -7.143   6.568 130.633  0.00  0.00    +0.000 OA
ATOM     37  H   UNL     1      -7.709   7.134 131.190  0.00  0.00    +0.000 HD
ENDBRANCH   8  36
TORSDOF 9
ENDMDL
MODEL 3
REMARK VINA RESULT:      -9.0      3.457      5.507
REMARK  Name = Hydrocortisone cypionate
REMARK  11 active torsions:
REMARK  status: ('A' for Active; 'I' for Inactive)
REMARK    1  A    between atoms: C_5  and  O_6
REMARK    2  A    between atoms: C_5  and  C_7
REMARK    3  A    between atoms: C_7  and  C_9
REMARK    4  A    between atoms: C_9  and  O_10
REMARK    5  A    between atoms: O_10  and  C_11
REMARK    6  A    between atoms: C_11  and  C_13
REMARK    7  A    between atoms: C_13  and  C_14
REMARK    8  A    between atoms: C_14  and  C_15
REMARK    9  A    between atoms: C_20  and  C_21
REMARK   10  A    between atoms: C_23  and  O_24
REMARK   11  A    between atoms: C_37  and  C_38
REMARK                            x       y       z     vdW  Elec       q    Type
REMARK                         _______ _______ _______ _____ _____    ______ ____
ROOT
ATOM      1  C   UNL     1      -3.816   4.260 126.564  0.00  0.00    +0.000 C 
ATOM      2  C   UNL     1      -2.941   3.150 126.650  0.00  0.00    +0.000 C 
ATOM      3  C   UNL     1      -4.156   3.107 127.526  0.00  0.00    +0.000 C 
ATOM      4  C   UNL     1      -5.757   4.386 127.036  0.00  0.00    +0.000 C 
ATOM      5  C   UNL     1      -5.370   3.137 126.583  0.00  0.00    +0.000 C 
ATOM      6  C   UNL     1      -5.625   2.496 125.280  0.00  0.00    +0.000 C 
ATOM      7  C   UNL     1      -6.086   2.662 128.271  0.00  0.00    +0.000 C 
ATOM      8  C   UNL     1      -5.761   3.879 129.452  0.00  0.00    +0.000 C 
ATOM      9  C   UNL     1      -4.257   4.576 129.568  0.00  0.00    +0.000 C 
ATOM     10  C   UNL     1      -3.717   5.280 128.076  0.00  0.00    +0.000 C 
ATOM     11  C   UNL     1      -2.272   5.722 128.183  0.00  0.00    +0.000 C 
ATOM     12  C   UNL     1      -2.032   6.583 129.393  0.00  0.00    +0.000 C 
ATOM     13  C   UNL     1      -2.521   6.036 130.702  0.00  0.00    +0.000 C 
ATOM     14  C   UNL     1      -1.765   6.164 131.800  0.00  0.00    +0.000 C 
ATOM     15  C   UNL     1      -2.487   5.942 133.054  0.00  0.00    +0.000 C 
ATOM     16  O   UNL     1      -3.299   6.713 133.560  0.00  0.00    +0.000 OA
ATOM     17  C   UNL     1      -2.563   4.541 133.383  0.00  0.00    +0.000 C 
ATOM     18  C   UNL     1      -3.882   4.435 132.285  0.00  0.00    +0.000 C 
ATOM     19  C   UNL     1      -3.926   5.452 130.826  0.00  0.00    +0.000 C 
ATOM     20  C   UNL     1      -4.902   6.646 130.695  0.00  0.00    +0.000 C 
ENDROOT
BRANCH   4  21
ATOM     21  O   UNL     1      -5.599   5.314 125.885  0.00  0.00    +0.000 OA
ATOM     22  H   UNL     1      -6.370   5.320 125.299  0.00  0.00    +0.000 HD
ENDBRANCH   4  21
BRANCH   4  23
ATOM     23  C   UNL     1      -7.571   4.171 126.710  0.00  0.00    +0.000 C 
ATOM     24  O   UNL     1      -8.425   4.989 127.103  0.00  0.00    +0.000 OA
BRANCH  23  25
ATOM     25  C   UNL     1      -8.284   2.858 126.003  0.00  0.00    +0.000 C 
BRANCH  25  26
ATOM     26  O   UNL     1      -8.964   3.275 124.690  0.00  0.00    +0.000 OA
BRANCH  26  27
ATOM     27  C   UNL     1      -8.870   2.516 123.541  0.00  0.00    +0.000 C 
ATOM     28  O   UNL     1      -9.227   1.346 123.487  0.00  0.00    +0.000 OA
BRANCH  27  29
ATOM     29  C   UNL     1      -8.274   3.269 122.315  0.00  0.00    +0.000 C 
BRANCH  29  30
ATOM     30  C   UNL     1      -6.786   2.888 122.024  0.00  0.00    +0.000 C 
BRANCH  30  31
ATOM     31  C   UNL     1      -6.219   3.462 120.705  0.00  0.00    +0.000 C 
ATOM     32  C   UNL     1      -7.257   4.129 119.788  0.00  0.00    +0.000 C 
ATOM     33  C   UNL     1      -6.409   4.977 118.846  0.00  0.00    +0.000 C 
ATOM     34  C   UNL     1      -5.285   5.512 119.721  0.00  0.00    +0.000 C 
ATOM     35  C   UNL     1      -5.181   4.567 120.916  0.00  0.00    +0.000 C 
ENDBRANCH  30  31
ENDBRANCH  29  30
ENDBRANCH  27  29
ENDBRANCH  26  27
ENDBRANCH  25  26
ENDBRANCH  23  25
ENDBRANCH   4  23
BRANCH   8  36
ATOM     36  O   UNL     1      -6.762   4.897 129.228  0.00  0.00    +0.000 OA
ATOM     37  H   UNL     1      -7.643   4.490 129.135  0.00  0.00    +0.000 HD
ENDBRANCH   8  36
TORSDOF 9
ENDMDL
MODEL 4
REMARK VINA RESULT:      -8.7      3.833      8.011
REMARK  Name = Hydrocortisone cypionate
REMARK  11 active torsions:
REMARK  status: ('A' for Active; 'I' for Inactive)
REMARK    1  A    between atoms: C_5  and  O_6
REMARK    2  A    between atoms: C_5  and  C_7
REMARK    3  A    between atoms: C_7  and  C_9
REMARK    4  A    between atoms: C_9  and  O_10
REMARK    5  A    between atoms: O_10  and  C_11
REMARK    6  A    between atoms: C_11  and  C_13
REMARK    7  A    between atoms: C_13  and  C_14
REMARK    8  A    between atoms: C_14  and  C_15
REMARK    9  A    between atoms: C_20  and  C_21
REMARK   10  A    between atoms: C_23  and  O_24
REMARK   11  A    between atoms: C_37  and  C_38
REMARK                            x       y       z     vdW  Elec       q    Type
REMARK                         _______ _______ _______ _____ _____    ______ ____
ROOT
ATOM      1  C   UNL     1      -7.361  -2.874 130.366  0.00  0.00    +0.000 C 
ATOM      2  C   UNL     1      -6.422  -3.933 130.383  0.00  0.00    +0.000 C 
ATOM      3  C   UNL     1      -5.938  -2.626 129.835  0.00  0.00    +0.000 C 
ATOM      4  C   UNL     1      -7.046  -0.899 130.312  0.00  0.00    +0.000 C 
ATOM      5  C   UNL     1      -6.060  -1.606 130.978  0.00  0.00    +0.000 C 
ATOM      6  C   UNL     1      -5.801  -1.708 132.426  0.00  0.00    +0.000 C 
ATOM      7  C   UNL     1      -5.004  -0.735 129.668  0.00  0.00    +0.000 C 
ATOM      8  C   UNL     1      -5.854  -0.599 128.171  0.00  0.00    +0.000 C 
ATOM      9  C   UNL     1      -6.706  -1.886 127.553  0.00  0.00    +0.000 C 
ATOM     10  C   UNL     1      -7.893  -2.508 128.658  0.00  0.00    +0.000 C 
ATOM     11  C   UNL     1      -8.498  -3.792 128.129  0.00  0.00    +0.000 C 
ATOM     12  C   UNL     1      -8.989  -3.644 126.714  0.00  0.00    +0.000 C 
ATOM     13  C   UNL     1      -8.013  -3.069 125.731  0.00  0.00    +0.000 C 
ATOM     14  C   UNL     1      -7.924  -3.590 124.500  0.00  0.00    +0.000 C 
ATOM     15  C   UNL     1      -7.235  -2.732 123.535  0.00  0.00    +0.000 C 
ATOM     16  O   UNL     1      -7.690  -1.705 123.035  0.00  0.00    +0.000 OA
ATOM     17  C   UNL     1      -5.805  -2.895 123.605  0.00  0.00    +0.000 C 
ATOM     18  C   UNL     1      -5.828  -1.827 124.952  0.00  0.00    +0.000 C 
ATOM     19  C   UNL     1      -7.212  -1.815 126.071  0.00  0.00    +0.000 C 
ATOM     20  C   UNL     1      -8.228  -0.648 126.097  0.00  0.00    +0.000 C 
ENDROOT
BRANCH   4  21
ATOM     21  O   UNL     1      -8.285  -1.049 131.120  0.00  0.00    +0.000 OA
ATOM     22  H   UNL     1      -9.073  -0.725 130.662  0.00  0.00    +0.000 HD
ENDBRANCH   4  21
BRANCH   4  23
ATOM     23  C   UNL     1      -6.663   0.752 131.069  0.00  0.00    +0.000 C 
ATOM     24  O   UNL     1      -5.527   1.264 131.021  0.00  0.00    +0.000 OA
BRANCH  23  25
ATOM     25  C   UNL     1      -7.692   1.667 131.983  0.00  0.00    +0.000 C 
BRANCH  25  26
ATOM     26  O   UNL     1      -9.036   1.828 131.256  0.00  0.00    +0.000 OA
BRANCH  26  27
ATOM     27  C   UNL     1      -9.190   2.674 130.177  0.00  0.00    +0.000 C 
ATOM     28  O   UNL     1      -9.059   2.303 129.017  0.00  0.00    +0.000 OA
BRANCH  27  29
ATOM     29  C   UNL     1      -9.546   4.143 130.551  0.00  0.00    +0.000 C 
BRANCH  29  30
ATOM     30  C   UNL     1     -11.058   4.482 130.345  0.00  0.00    +0.000 C 
BRANCH  30  31
ATOM     31  C   UNL     1     -11.380   5.993 130.289  0.00  0.00    +0.000 C 
ATOM     32  C   UNL     1     -12.437   6.394 129.248  0.00  0.00    +0.000 C 
ATOM     33  C   UNL     1     -12.883   7.779 129.708  0.00  0.00    +0.000 C 
ATOM     34  C   UNL     1     -12.887   7.694 131.227  0.00  0.00    +0.000 C 
ATOM     35  C   UNL     1     -11.954   6.543 131.597  0.00  0.00    +0.000 C 
ENDBRANCH  30  31
ENDBRANCH  29  30
ENDBRANCH  27  29
ENDBRANCH  26  27
ENDBRANCH  25  26
ENDBRANCH  23  25
ENDBRANCH   4  23
BRANCH   8  36
ATOM     36  O   UNL     1      -6.728   0.539 128.335  0.00  0.00    +0.000 OA
ATOM     37  H   UNL     1      -7.233   0.698 127.516  0.00  0.00    +0.000 HD
ENDBRANCH   8  36
TORSDOF 9
ENDMDL
MODEL 5
REMARK VINA RESULT:      -8.7      2.790      4.396
REMARK  Name = Hydrocortisone cypionate
REMARK  11 active torsions:
REMARK  status: ('A' for Active; 'I' for Inactive)
REMARK    1  A    between atoms: C_5  and  O_6
REMARK    2  A    between atoms: C_5  and  C_7
REMARK    3  A    between atoms: C_7  and  C_9
REMARK    4  A    between atoms: C_9  and  O_10
REMARK    5  A    between atoms: O_10  and  C_11
REMARK    6  A    between atoms: C_11  and  C_13
REMARK    7  A    between atoms: C_13  and  C_14
REMARK    8  A    between atoms: C_14  and  C_15
REMARK    9  A    between atoms: C_20  and  C_21
REMARK   10  A    between atoms: C_23  and  O_24
REMARK   11  A    between atoms: C_37  and  C_38
REMARK                            x       y       z     vdW  Elec       q    Type
REMARK                         _______ _______ _______ _____ _____    ______ ____
ROOT
ATOM      1  C   UNL     1      -3.908   4.413 126.465  0.00  0.00    +0.000 C 
ATOM      2  C   UNL     1      -2.924   3.406 126.316  0.00  0.00    +0.000 C 
ATOM      3  C   UNL     1      -4.035   3.111 127.276  0.00  0.00    +0.000 C 
ATOM      4  C   UNL     1      -5.795   4.257 127.112  0.00  0.00    +0.000 C 
ATOM      5  C   UNL     1      -5.334   3.130 126.454  0.00  0.00    +0.000 C 
ATOM      6  C   UNL     1      -5.653   2.645 125.099  0.00  0.00    +0.000 C 
ATOM      7  C   UNL     1      -5.827   2.356 128.111  0.00  0.00    +0.000 C 
ATOM      8  C   UNL     1      -5.509   3.434 129.422  0.00  0.00    +0.000 C 
ATOM      9  C   UNL     1      -4.077   4.273 129.510  0.00  0.00    +0.000 C 
ATOM     10  C   UNL     1      -3.761   5.226 128.093  0.00  0.00    +0.000 C 
ATOM     11  C   UNL     1      -2.363   5.809 128.139  0.00  0.00    +0.000 C 
ATOM     12  C   UNL     1      -2.090   6.521 129.436  0.00  0.00    +0.000 C 
ATOM     13  C   UNL     1      -2.389   5.754 130.689  0.00  0.00    +0.000 C 
ATOM     14  C   UNL     1      -1.544   5.817 131.727  0.00  0.00    +0.000 C 
ATOM     15  C   UNL     1      -2.112   5.351 132.992  0.00  0.00    +0.000 C 
ATOM     16  O   UNL     1      -2.942   5.951 133.670  0.00  0.00    +0.000 OA
ATOM     17  C   UNL     1      -2.016   3.919 133.121  0.00  0.00    +0.000 C 
ATOM     18  C   UNL     1      -3.420   3.813 132.136  0.00  0.00    +0.000 C 
ATOM     19  C   UNL     1      -3.710   5.005 130.847  0.00  0.00    +0.000 C 
ATOM     20  C   UNL     1      -4.808   6.088 130.972  0.00  0.00    +0.000 C 
ENDROOT
BRANCH   4  21
ATOM     21  O   UNL     1      -5.845   5.341 126.097  0.00  0.00    +0.000 OA
ATOM     22  H   UNL     1      -6.398   5.117 125.335  0.00  0.00    +0.000 HD
ENDBRANCH   4  21
BRANCH   4  23
ATOM     23  C   UNL     1      -7.602   3.885 126.914  0.00  0.00    +0.000 C 
ATOM     24  O   UNL     1      -8.478   4.771 126.954  0.00  0.00    +0.000 OA
BRANCH  23  25
ATOM     25  C   UNL     1      -8.280   2.382 126.796  0.00  0.00    +0.000 C 
BRANCH  25  26
ATOM     26  O   UNL     1      -9.069   2.264 125.483  0.00  0.00    +0.000 OA
BRANCH  26  27
ATOM     27  C   UNL     1      -9.448   1.045 124.961  0.00  0.00    +0.000 C 
ATOM     28  O   UNL     1     -10.174   0.262 125.560  0.00  0.00    +0.000 OA
BRANCH  27  29
ATOM     29  C   UNL     1      -8.877   0.741 123.544  0.00  0.00    +0.000 C 
BRANCH  29  30
ATOM     30  C   UNL     1      -7.560  -0.099 123.578  0.00  0.00    +0.000 C 
BRANCH  30  31
ATOM     31  C   UNL     1      -7.767  -1.629 123.500  0.00  0.00    +0.000 C 
ATOM     32  C   UNL     1      -7.749  -2.356 124.854  0.00  0.00    +0.000 C 
ATOM     33  C   UNL     1      -8.414  -3.696 124.548  0.00  0.00    +0.000 C 
ATOM     34  C   UNL     1      -9.515  -3.357 123.553  0.00  0.00    +0.000 C 
ATOM     35  C   UNL     1      -9.119  -2.031 122.907  0.00  0.00    +0.000 C 
ENDBRANCH  30  31
ENDBRANCH  29  30
ENDBRANCH  27  29
ENDBRANCH  26  27
ENDBRANCH  25  26
ENDBRANCH  23  25
ENDBRANCH   4  23
BRANCH   8  36
ATOM     36  O   UNL     1      -6.622   4.354 129.432  0.00  0.00    +0.000 OA
ATOM     37  H   UNL     1      -6.992   4.426 130.332  0.00  0.00    +0.000 HD
ENDBRANCH   8  36
TORSDOF 9
ENDMDL
MODEL 6
REMARK VINA RESULT:      -8.7      3.615      8.352
REMARK  Name = Hydrocortisone cypionate
REMARK  11 active torsions:
REMARK  status: ('A' for Active; 'I' for Inactive)
REMARK    1  A    between atoms: C_5  and  O_6
REMARK    2  A    between atoms: C_5  and  C_7
REMARK    3  A    between atoms: C_7  and  C_9
REMARK    4  A    between atoms: C_9  and  O_10
REMARK    5  A    between atoms: O_10  and  C_11
REMARK    6  A    between atoms: C_11  and  C_13
REMARK    7  A    between atoms: C_13  and  C_14
REMARK    8  A    between atoms: C_14  and  C_15
REMARK    9  A    between atoms: C_20  and  C_21
REMARK   10  A    between atoms: C_23  and  O_24
REMARK   11  A    between atoms: C_37  and  C_38
REMARK                            x       y       z     vdW  Elec       q    Type
REMARK                         _______ _______ _______ _____ _____    ______ ____
ROOT
ATOM      1  C   UNL     1      -6.997  -3.290 130.545  0.00  0.00    +0.000 C 
ATOM      2  C   UNL     1      -6.142  -4.403 130.362  0.00  0.00    +0.000 C 
ATOM      3  C   UNL     1      -5.618  -3.079 129.896  0.00  0.00    +0.000 C 
ATOM      4  C   UNL     1      -6.543  -1.344 130.651  0.00  0.00    +0.000 C 
ATOM      5  C   UNL     1      -5.552  -2.177 131.139  0.00  0.00    +0.000 C 
ATOM      6  C   UNL     1      -5.163  -2.446 132.535  0.00  0.00    +0.000 C 
ATOM      7  C   UNL     1      -4.567  -1.244 129.817  0.00  0.00    +0.000 C 
ATOM      8  C   UNL     1      -5.545  -0.900 128.437  0.00  0.00    +0.000 C 
ATOM      9  C   UNL     1      -6.546  -2.058 127.789  0.00  0.00    +0.000 C 
ATOM     10  C   UNL     1      -7.663  -2.714 128.945  0.00  0.00    +0.000 C 
ATOM     11  C   UNL     1      -8.410  -3.895 128.359  0.00  0.00    +0.000 C 
ATOM     12  C   UNL     1      -9.023  -3.570 127.024  0.00  0.00    +0.000 C 
ATOM     13  C   UNL     1      -8.107  -2.959 126.006  0.00  0.00    +0.000 C 
ATOM     14  C   UNL     1      -8.176  -3.353 124.727  0.00  0.00    +0.000 C 
ATOM     15  C   UNL     1      -7.523  -2.446 123.784  0.00  0.00    +0.000 C 
ATOM     16  O   UNL     1      -7.946  -1.345 123.436  0.00  0.00    +0.000 OA
ATOM     17  C   UNL     1      -6.108  -2.706 123.689  0.00  0.00    +0.000 C 
ATOM     18  C   UNL     1      -5.922  -1.785 125.129  0.00  0.00    +0.000 C 
ATOM     19  C   UNL     1      -7.186  -1.801 126.381  0.00  0.00    +0.000 C 
ATOM     20  C   UNL     1      -8.105  -0.581 126.625  0.00  0.00    +0.000 C 
ENDROOT
BRANCH   4  21
ATOM     21  O   UNL     1      -7.706  -1.498 131.564  0.00  0.00    +0.000 OA
ATOM     22  H   UNL     1      -7.829  -2.411 131.863  0.00  0.00    +0.000 HD
ENDBRANCH   4  21
BRANCH   4  23
ATOM     23  C   UNL     1      -5.968   0.191 131.521  0.00  0.00    +0.000 C 
ATOM     24  O   UNL     1      -5.062   0.919 131.068  0.00  0.00    +0.000 OA
BRANCH  23  25
ATOM     25  C   UNL     1      -6.460   0.709 133.011  0.00  0.00    +0.000 C 
BRANCH  25  26
ATOM     26  O   UNL     1      -7.950   1.081 132.971  0.00  0.00    +0.000 OA
BRANCH  26  27
ATOM     27  C   UNL     1      -8.397   2.263 132.418  0.00  0.00    +0.000 C 
ATOM     28  O   UNL     1      -8.206   2.563 131.245  0.00  0.00    +0.000 OA
BRANCH  27  29
ATOM     29  C   UNL     1      -9.166   3.190 133.405  0.00  0.00    +0.000 C 
BRANCH  29  30
ATOM     30  C   UNL     1      -8.275   4.327 134.002  0.00  0.00    +0.000 C 
BRANCH  30  31
ATOM     31  C   UNL     1      -8.286   5.647 133.195  0.00  0.00    +0.000 C 
ATOM     32  C   UNL     1      -7.166   5.777 132.150  0.00  0.00    +0.000 C 
ATOM     33  C   UNL     1      -7.666   6.886 131.229  0.00  0.00    +0.000 C 
ATOM     34  C   UNL     1      -9.167   6.657 131.135  0.00  0.00    +0.000 C 
ATOM     35  C   UNL     1      -9.558   5.846 132.369  0.00  0.00    +0.000 C 
ENDBRANCH  30  31
ENDBRANCH  29  30
ENDBRANCH  27  29
ENDBRANCH  26  27
ENDBRANCH  25  26
ENDBRANCH  23  25
ENDBRANCH   4  23
BRANCH   8  36
ATOM     36  O   UNL     1      -6.313   0.269 128.801  0.00  0.00    +0.000 OA
ATOM     37  H   UNL     1      -7.252   0.140 128.574  0.00  0.00    +0.000 HD
ENDBRANCH   8  36
TORSDOF 9
ENDMDL
MODEL 7
REMARK VINA RESULT:      -8.6      1.802      6.241
REMARK  Name = Hydrocortisone cypionate
REMARK  11 active torsions:
REMARK  status: ('A' for Active; 'I' for Inactive)
REMARK    1  A    between atoms: C_5  and  O_6
REMARK    2  A    between atoms: C_5  and  C_7
REMARK    3  A    between atoms: C_7  and  C_9
REMARK    4  A    between atoms: C_9  and  O_10
REMARK    5  A    between atoms: O_10  and  C_11
REMARK    6  A    between atoms: C_11  and  C_13
REMARK    7  A    between atoms: C_13  and  C_14
REMARK    8  A    between atoms: C_14  and  C_15
REMARK    9  A    between atoms: C_20  and  C_21
REMARK   10  A    between atoms: C_23  and  O_24
REMARK   11  A    between atoms: C_37  and  C_38
REMARK                            x       y       z     vdW  Elec       q    Type
REMARK                         _______ _______ _______ _____ _____    ______ ____
ROOT
ATOM      1  C   UNL     1      -6.624  -1.987 129.442  0.00  0.00    +0.000 C 
ATOM      2  C   UNL     1      -5.546  -2.836 129.093  0.00  0.00    +0.000 C 
ATOM      3  C   UNL     1      -5.573  -1.491 128.432  0.00  0.00    +0.000 C 
ATOM      4  C   UNL     1      -6.762   0.006 129.317  0.00  0.00    +0.000 C 
ATOM      5  C   UNL     1      -5.479  -0.453 129.562  0.00  0.00    +0.000 C 
ATOM      6  C   UNL     1      -4.699  -0.420 130.812  0.00  0.00    +0.000 C 
ATOM      7  C   UNL     1      -5.172   0.535 127.975  0.00  0.00    +0.000 C 
ATOM      8  C   UNL     1      -6.514   0.415 126.895  0.00  0.00    +0.000 C 
ATOM      9  C   UNL     1      -7.249  -1.048 126.606  0.00  0.00    +0.000 C 
ATOM     10  C   UNL     1      -7.800  -1.830 128.055  0.00  0.00    +0.000 C 
ATOM     11  C   UNL     1      -8.279  -3.236 127.757  0.00  0.00    +0.000 C 
ATOM     12  C   UNL     1      -9.268  -3.268 126.623  0.00  0.00    +0.000 C 
ATOM     13  C   UNL     1      -8.854  -2.568 125.364  0.00  0.00    +0.000 C 
ATOM     14  C   UNL     1      -9.112  -3.128 124.174  0.00  0.00    +0.000 C 
ATOM     15  C   UNL     1      -9.011  -2.207 123.043  0.00  0.00    +0.000 C 
ATOM     16  O   UNL     1      -9.816  -1.320 122.765  0.00  0.00    +0.000 OA
ATOM     17  C   UNL     1      -7.652  -2.079 122.581  0.00  0.00    +0.000 C 
ATOM     18  C   UNL     1      -7.404  -0.963 123.865  0.00  0.00    +0.000 C 
ATOM     19  C   UNL     1      -8.260  -1.163 125.413  0.00  0.00    +0.000 C 
ATOM     20  C   UNL     1      -9.413  -0.221 125.832  0.00  0.00    +0.000 C 
ENDROOT
BRANCH   4  21
ATOM     21  O   UNL     1      -7.565  -0.342 130.519  0.00  0.00    +0.000 OA
ATOM     22  H   UNL     1      -7.603  -1.295 130.681  0.00  0.00    +0.000 HD
ENDBRANCH   4  21
BRANCH   4  23
ATOM     23  C   UNL     1      -6.478   1.739 129.915  0.00  0.00    +0.000 C 
ATOM     24  O   UNL     1      -7.224   2.292 130.747  0.00  0.00    +0.000 OA
BRANCH  23  25
ATOM     25  C   UNL     1      -5.330   2.787 129.355  0.00  0.00    +0.000 C 
BRANCH  25  26
ATOM     26  O   UNL     1      -5.922   3.670 128.246  0.00  0.00    +0.000 OA
BRANCH  26  27
ATOM     27  C   UNL     1      -5.129   4.414 127.397  0.00  0.00    +0.000 C 
ATOM     28  O   UNL     1      -4.824   5.579 127.623  0.00  0.00    +0.000 OA
BRANCH  27  29
ATOM     29  C   UNL     1      -4.649   3.654 126.126  0.00  0.00    +0.000 C 
BRANCH  29  30
ATOM     30  C   UNL     1      -5.388   4.104 124.824  0.00  0.00    +0.000 C 
BRANCH  30  31
ATOM     31  C   UNL     1      -6.507   3.146 124.354  0.00  0.00    +0.000 C 
ATOM     32  C   UNL     1      -7.926   3.541 124.794  0.00  0.00    +0.000 C 
ATOM     33  C   UNL     1      -8.826   2.746 123.852  0.00  0.00    +0.000 C 
ATOM     34  C   UNL     1      -8.097   2.769 122.517  0.00  0.00    +0.000 C 
ATOM     35  C   UNL     1      -6.629   3.051 122.831  0.00  0.00    +0.000 C 
ENDBRANCH  30  31
ENDBRANCH  29  30
ENDBRANCH  27  29
ENDBRANCH  26  27
ENDBRANCH  25  26
ENDBRANCH  23  25
ENDBRANCH   4  23
BRANCH   8  36
ATOM     36  O   UNL     1      -7.483   1.364 127.391  0.00  0.00    +0.000 OA
ATOM     37  H   UNL     1      -7.085   2.253 127.449  0.00  0.00    +0.000 HD
ENDBRANCH   8  36
TORSDOF 9
ENDMDL
MODEL 8
REMARK VINA RESULT:      -8.4      2.158      6.807
REMARK  Name = Hydrocortisone cypionate
REMARK  11 active torsions:
REMARK  status: ('A' for Active; 'I' for Inactive)
REMARK    1  A    between atoms: C_5  and  O_6
REMARK    2  A    between atoms: C_5  and  C_7
REMARK    3  A    between atoms: C_7  and  C_9
REMARK    4  A    between atoms: C_9  and  O_10
REMARK    5  A    between atoms: O_10  and  C_11
REMARK    6  A    between atoms: C_11  and  C_13
REMARK    7  A    between atoms: C_13  and  C_14
REMARK    8  A    between atoms: C_14  and  C_15
REMARK    9  A    between atoms: C_20  and  C_21
REMARK   10  A    between atoms: C_23  and  O_24
REMARK   11  A    between atoms: C_37  and  C_38
REMARK                            x       y       z     vdW  Elec       q    Type
REMARK                         _______ _______ _______ _____ _____    ______ ____
ROOT
ATOM      1  C   UNL     1      -7.060  -2.940 130.559  0.00  0.00    +0.000 C 
ATOM      2  C   UNL     1      -6.161  -4.030 130.481  0.00  0.00    +0.000 C 
ATOM      3  C   UNL     1      -5.686  -2.735 129.897  0.00  0.00    +0.000 C 
ATOM      4  C   UNL     1      -6.683  -0.976 130.488  0.00  0.00    +0.000 C 
ATOM      5  C   UNL     1      -5.664  -1.722 131.054  0.00  0.00    +0.000 C 
ATOM      6  C   UNL     1      -5.274  -1.847 132.470  0.00  0.00    +0.000 C 
ATOM      7  C   UNL     1      -4.707  -0.874 129.656  0.00  0.00    +0.000 C 
ATOM      8  C   UNL     1      -5.688  -0.696 128.246  0.00  0.00    +0.000 C 
ATOM      9  C   UNL     1      -6.638  -1.947 127.703  0.00  0.00    +0.000 C 
ATOM     10  C   UNL     1      -7.737  -2.539 128.911  0.00  0.00    +0.000 C 
ATOM     11  C   UNL     1      -8.433  -3.797 128.432  0.00  0.00    +0.000 C 
ATOM     12  C   UNL     1      -9.049  -3.619 127.072  0.00  0.00    +0.000 C 
ATOM     13  C   UNL     1      -8.151  -3.068 126.005  0.00  0.00    +0.000 C 
ATOM     14  C   UNL     1      -8.196  -3.579 124.767  0.00  0.00    +0.000 C 
ATOM     15  C   UNL     1      -7.572  -2.736 123.747  0.00  0.00    +0.000 C 
ATOM     16  O   UNL     1      -8.035  -1.690 123.299  0.00  0.00    +0.000 OA
ATOM     17  C   UNL     1      -6.148  -2.948 123.681  0.00  0.00    +0.000 C 
ATOM     18  C   UNL     1      -6.007  -1.893 125.031  0.00  0.00    +0.000 C 
ATOM     19  C   UNL     1      -7.278  -1.845 126.276  0.00  0.00    +0.000 C 
ATOM     20  C   UNL     1      -8.246  -0.645 126.405  0.00  0.00    +0.000 C 
ENDROOT
BRANCH   4  21
ATOM     21  O   UNL     1      -7.845  -1.092 131.408  0.00  0.00    +0.000 OA
ATOM     22  H   UNL     1      -8.692  -0.940 130.964  0.00  0.00    +0.000 HD
ENDBRANCH   4  21
BRANCH   4  23
ATOM     23  C   UNL     1      -6.174   0.654 131.216  0.00  0.00    +0.000 C 
ATOM     24  O   UNL     1      -6.926   1.325 131.948  0.00  0.00    +0.000 OA
BRANCH  23  25
ATOM     25  C   UNL     1      -4.769   1.464 130.900  0.00  0.00    +0.000 C 
BRANCH  25  26
ATOM     26  O   UNL     1      -5.022   2.570 129.864  0.00  0.00    +0.000 OA
BRANCH  26  27
ATOM     27  C   UNL     1      -4.001   3.138 129.132  0.00  0.00    +0.000 C 
ATOM     28  O   UNL     1      -3.274   4.018 129.577  0.00  0.00    +0.000 OA
BRANCH  27  29
ATOM     29  C   UNL     1      -3.843   2.571 127.691  0.00  0.00    +0.000 C 
BRANCH  29  30
ATOM     30  C   UNL     1      -4.070   3.645 126.578  0.00  0.00    +0.000 C 
BRANCH  30  31
ATOM     31  C   UNL     1      -5.407   3.511 125.815  0.00  0.00    +0.000 C 
ATOM     32  C   UNL     1      -5.414   4.123 124.404  0.00  0.00    +0.000 C 
ATOM     33  C   UNL     1      -6.620   3.469 123.737  0.00  0.00    +0.000 C 
ATOM     34  C   UNL     1      -6.619   2.040 124.261  0.00  0.00    +0.000 C 
ATOM     35  C   UNL     1      -5.825   2.060 125.566  0.00  0.00    +0.000 C 
ENDBRANCH  30  31
ENDBRANCH  29  30
ENDBRANCH  27  29
ENDBRANCH  26  27
ENDBRANCH  25  26
ENDBRANCH  23  25
ENDBRANCH   4  23
BRANCH   8  36
ATOM     36  O   UNL     1      -6.503   0.469 128.499  0.00  0.00    +0.000 OA
ATOM     37  H   UNL     1      -6.037   1.276 128.211  0.00  0.00    +0.000 HD
ENDBRANCH   8  36
TORSDOF 9
ENDMDL
MODEL 9
REMARK VINA RESULT:      -8.3      2.927      4.582
REMARK  Name = Hydrocortisone cypionate
REMARK  11 active torsions:
REMARK  status: ('A' for Active; 'I' for Inactive)
REMARK    1  A    between atoms: C_5  and  O_6
REMARK    2  A    between atoms: C_5  and  C_7
REMARK    3  A    between atoms: C_7  and  C_9
REMARK    4  A    between atoms: C_9  and  O_10
REMARK    5  A    between atoms: O_10  and  C_11
REMARK    6  A    between atoms: C_11  and  C_13
REMARK    7  A    between atoms: C_13  and  C_14
REMARK    8  A    between atoms: C_14  and  C_15
REMARK    9  A    between atoms: C_20  and  C_21
REMARK   10  A    between atoms: C_23  and  O_24
REMARK   11  A    between atoms: C_37  and  C_38
REMARK                            x       y       z     vdW  Elec       q    Type
REMARK                         _______ _______ _______ _____ _____    ______ ____
ROOT
ATOM      1  C   UNL     1      -3.905   4.350 126.387  0.00  0.00    +0.000 C 
ATOM      2  C   UNL     1      -3.052   3.220 126.346  0.00  0.00    +0.000 C 
ATOM      3  C   UNL     1      -4.266   3.104 127.217  0.00  0.00    +0.000 C 
ATOM      4  C   UNL     1      -5.842   4.460 126.879  0.00  0.00    +0.000 C 
ATOM      5  C   UNL     1      -5.481   3.261 126.289  0.00  0.00    +0.000 C 
ATOM      6  C   UNL     1      -5.752   2.774 124.924  0.00  0.00    +0.000 C 
ATOM      7  C   UNL     1      -6.202   2.616 127.918  0.00  0.00    +0.000 C 
ATOM      8  C   UNL     1      -5.851   3.689 129.224  0.00  0.00    +0.000 C 
ATOM      9  C   UNL     1      -4.333   4.340 129.410  0.00  0.00    +0.000 C 
ATOM     10  C   UNL     1      -3.783   5.194 128.002  0.00  0.00    +0.000 C 
ATOM     11  C   UNL     1      -2.329   5.594 128.151  0.00  0.00    +0.000 C 
ATOM     12  C   UNL     1      -2.069   6.310 129.448  0.00  0.00    +0.000 C 
ATOM     13  C   UNL     1      -2.565   5.632 130.690  0.00  0.00    +0.000 C 
ATOM     14  C   UNL     1      -1.805   5.623 131.793  0.00  0.00    +0.000 C 
ATOM     15  C   UNL     1      -2.528   5.278 133.017  0.00  0.00    +0.000 C 
ATOM     16  O   UNL     1      -3.323   6.004 133.609  0.00  0.00    +0.000 OA
ATOM     17  C   UNL     1      -2.630   3.851 133.189  0.00  0.00    +0.000 C 
ATOM     18  C   UNL     1      -3.954   3.892 132.093  0.00  0.00    +0.000 C 
ATOM     19  C   UNL     1      -3.981   5.065 130.755  0.00  0.00    +0.000 C 
ATOM     20  C   UNL     1      -4.934   6.284 130.761  0.00  0.00    +0.000 C 
ENDROOT
BRANCH   4  21
ATOM     21  O   UNL     1      -5.669   5.506 125.837  0.00  0.00    +0.000 OA
ATOM     22  H   UNL     1      -6.380   5.504 125.181  0.00  0.00    +0.000 HD
ENDBRANCH   4  21
BRANCH   4  23
ATOM     23  C   UNL     1      -7.661   4.317 126.540  0.00  0.00    +0.000 C 
ATOM     24  O   UNL     1      -8.517   4.928 127.207  0.00  0.00    +0.000 OA
BRANCH  23  25
ATOM     25  C   UNL     1      -8.370   3.304 125.444  0.00  0.00    +0.000 C 
BRANCH  25  26
ATOM     26  O   UNL     1      -9.089   2.161 126.175  0.00  0.00    +0.000 OA
BRANCH  26  27
ATOM     27  C   UNL     1      -9.261   0.917 125.604  0.00  0.00    +0.000 C 
ATOM     28  O   UNL     1     -10.263   0.609 124.969  0.00  0.00    +0.000 OA
BRANCH  27  29
ATOM     29  C   UNL     1      -8.078  -0.070 125.831  0.00  0.00    +0.000 C 
BRANCH  29  30
ATOM     30  C   UNL     1      -8.465  -1.563 125.580  0.00  0.00    +0.000 C 
BRANCH  30  31
ATOM     31  C   UNL     1      -8.030  -2.539 126.697  0.00  0.00    +0.000 C 
ATOM     32  C   UNL     1      -7.797  -1.891 128.071  0.00  0.00    +0.000 C 
ATOM     33  C   UNL     1      -7.843  -3.072 129.036  0.00  0.00    +0.000 C 
ATOM     34  C   UNL     1      -8.927  -3.981 128.475  0.00  0.00    +0.000 C 
ATOM     35  C   UNL     1      -9.066  -3.625 126.996  0.00  0.00    +0.000 C 
ENDBRANCH  30  31
ENDBRANCH  29  30
ENDBRANCH  27  29
ENDBRANCH  26  27
ENDBRANCH  25  26
ENDBRANCH  23  25
ENDBRANCH   4  23
BRANCH   8  36
ATOM     36  O   UNL     1      -6.831   4.745 129.119  0.00  0.00    +0.000 OA
ATOM     37  H   UNL     1      -6.894   5.232 129.961  0.00  0.00    +0.000 HD
ENDBRANCH   8  36
TORSDOF 9
ENDMDL
