MODEL 1
REMARK VINA RESULT:      -7.7      0.000      0.000
REMARK  Name = Hydroflumethiazide
REMARK  3 active torsions:
REMARK  status: ('A' for Active; 'I' for Inactive)
REMARK    1  A    between atoms: N_1  and  S_2
REMARK    2  A    between atoms: S_2  and  C_5
REMARK    3  A    between atoms: C_16  and  C_17
REMARK                            x       y       z     vdW  Elec       q    Type
REMARK                         _______ _______ _______ _____ _____    ______ ____
ROOT
ATOM      1  C   UNL     1     -10.548   6.721 129.666  0.00  0.00    +0.000 A 
ATOM      2  C   UNL     1      -9.332   6.059 129.955  0.00  0.00    +0.000 A 
ATOM      3  C   UNL     1      -9.080   5.540 131.239  0.00  0.00    +0.000 A 
ATOM      4  C   UNL     1     -10.021   5.598 132.258  0.00  0.00    +0.000 A 
ATOM      5  N   UNL     1      -9.965   4.820 133.405  0.00  0.00    +0.000 N 
ATOM      6  C   UNL     1      -8.813   4.030 133.778  0.00  0.00    +0.000 C 
ATOM      7  N   UNL     1      -8.195   3.465 132.605  0.00  0.00    +0.000 NA
ATOM      8  S   UNL     1      -7.596   4.653 131.583  0.00  0.00    +0.000 S 
ATOM      9  O   UNL     1      -7.179   3.984 130.371  0.00  0.00    +0.000 OA
ATOM     10  O   UNL     1      -6.716   5.517 132.337  0.00  0.00    +0.000 OA
ATOM     11  C   UNL     1     -11.175   6.343 131.984  0.00  0.00    +0.000 A 
ATOM     12  C   UNL     1     -11.455   6.945 130.714  0.00  0.00    +0.000 A 
ATOM     13  H   UNL     1     -10.543   5.108 134.189  0.00  0.00    +0.000 HD
ATOM     14  H   UNL     1      -8.805   2.830 132.095  0.00  0.00    +0.000 HD
ENDROOT
BRANCH  12  15
ATOM     15  C   UNL     1     -12.738   7.745 130.686  0.00  0.00    +0.000 C 
ATOM     16  F   UNL     1     -13.690   7.109 129.945  0.00  0.00    +0.000 F 
ATOM     17  F   UNL     1     -13.266   7.856 131.940  0.00  0.00    +0.000 F 
ATOM     18  F   UNL     1     -12.709   9.001 130.217  0.00  0.00    +0.000 F 
ENDBRANCH  12  15
BRANCH   1  19
ATOM     19  S   UNL     1     -10.788   7.179 127.942  0.00  0.00    +0.000 S 
ATOM     20  O   UNL     1     -10.463   8.576 127.800  0.00  0.00    +0.000 OA
ATOM     21  O   UNL     1     -12.001   6.651 127.377  0.00  0.00    +0.000 OA
BRANCH  19  22
ATOM     22  N   UNL     1      -9.573   6.299 127.166  0.00  0.00    +0.000 NA
ATOM     23  H   UNL     1      -9.496   5.400 127.654  0.00  0.00    +0.000 HD
ATOM     24  H   UNL     1      -8.666   6.766 127.213  0.00  0.00    +0.000 HD
ENDBRANCH  19  22
ENDBRANCH   1  19
TORSDOF 3
ENDMDL
MODEL 2
REMARK VINA RESULT:      -6.8      3.267      5.498
REMARK  Name = Hydroflumethiazide
REMARK  3 active torsions:
REMARK  status: ('A' for Active; 'I' for Inactive)
REMARK    1  A    between atoms: N_1  and  S_2
REMARK    2  A    between atoms: S_2  and  C_5
REMARK    3  A    between atoms: C_16  and  C_17
REMARK                            x       y       z     vdW  Elec       q    Type
REMARK                         _______ _______ _______ _____ _____    ______ ____
ROOT
ATOM      1  C   UNL     1      -7.960   6.007 131.627  0.00  0.00    +0.000 A 
ATOM      2  C   UNL     1      -8.615   6.560 130.501  0.00  0.00    +0.000 A 
ATOM      3  C   UNL     1     -10.015   6.705 130.480  0.00  0.00    +0.000 A 
ATOM      4  C   UNL     1     -10.810   6.371 131.568  0.00  0.00    +0.000 A 
ATOM      5  N   UNL     1     -12.118   6.802 131.729  0.00  0.00    +0.000 N 
ATOM      6  C   UNL     1     -12.877   7.455 130.687  0.00  0.00    +0.000 C 
ATOM      7  N   UNL     1     -12.021   8.320 129.915  0.00  0.00    +0.000 NA
ATOM      8  S   UNL     1     -10.828   7.458 129.109  0.00  0.00    +0.000 S 
ATOM      9  O   UNL     1      -9.930   8.434 128.534  0.00  0.00    +0.000 OA
ATOM     10  O   UNL     1     -11.453   6.417 128.325  0.00  0.00    +0.000 OA
ATOM     11  C   UNL     1     -10.157   5.733 132.631  0.00  0.00    +0.000 A 
ATOM     12  C   UNL     1      -8.742   5.505 132.679  0.00  0.00    +0.000 A 
ATOM     13  H   UNL     1     -12.687   6.311 132.412  0.00  0.00    +0.000 HD
ATOM     14  H   UNL     1     -11.610   9.072 130.462  0.00  0.00    +0.000 HD
ENDROOT
BRANCH  12  15
ATOM     15  C   UNL     1      -8.286   4.748 133.905  0.00  0.00    +0.000 C 
ATOM     16  F   UNL     1      -7.945   5.607 134.908  0.00  0.00    +0.000 F 
ATOM     17  F   UNL     1      -9.301   3.985 134.408  0.00  0.00    +0.000 F 
ATOM     18  F   UNL     1      -7.248   3.905 133.798  0.00  0.00    +0.000 F 
ENDBRANCH  12  15
BRANCH   1  19
ATOM     19  S   UNL     1      -6.161   6.042 131.568  0.00  0.00    +0.000 S 
ATOM     20  O   UNL     1      -5.712   4.863 130.873  0.00  0.00    +0.000 OA
ATOM     21  O   UNL     1      -5.560   6.427 132.817  0.00  0.00    +0.000 OA
BRANCH  19  22
ATOM     22  N   UNL     1      -5.862   7.364 130.561  0.00  0.00    +0.000 NA
ATOM     23  H   UNL     1      -6.012   8.209 131.123  0.00  0.00    +0.000 HD
ATOM     24  H   UNL     1      -6.499   7.395 129.763  0.00  0.00    +0.000 HD
ENDBRANCH  19  22
ENDBRANCH   1  19
TORSDOF 3
ENDMDL
MODEL 3
REMARK VINA RESULT:      -6.7      8.646     10.170
REMARK  Name = Hydroflumethiazide
REMARK  3 active torsions:
REMARK  status: ('A' for Active; 'I' for Inactive)
REMARK    1  A    between atoms: N_1  and  S_2
REMARK    2  A    between atoms: S_2  and  C_5
REMARK    3  A    between atoms: C_16  and  C_17
REMARK                            x       y       z     vdW  Elec       q    Type
REMARK                         _______ _______ _______ _____ _____    ______ ____
ROOT
ATOM      1  C   UNL     1      -7.820  -0.709 124.907  0.00  0.00    +0.000 A 
ATOM      2  C   UNL     1      -8.323   0.537 124.463  0.00  0.00    +0.000 A 
ATOM      3  C   UNL     1      -7.607   1.727 124.691  0.00  0.00    +0.000 A 
ATOM      4  C   UNL     1      -6.361   1.736 125.304  0.00  0.00    +0.000 A 
ATOM      5  N   UNL     1      -5.480   2.805 125.246  0.00  0.00    +0.000 N 
ATOM      6  C   UNL     1      -5.841   4.109 124.739  0.00  0.00    +0.000 C 
ATOM      7  N   UNL     1      -6.744   3.978 123.624  0.00  0.00    +0.000 NA
ATOM      8  S   UNL     1      -8.196   3.271 124.077  0.00  0.00    +0.000 S 
ATOM      9  O   UNL     1      -8.933   3.020 122.859  0.00  0.00    +0.000 OA
ATOM     10  O   UNL     1      -8.752   4.016 125.184  0.00  0.00    +0.000 OA
ATOM     11  C   UNL     1      -5.927   0.510 125.825  0.00  0.00    +0.000 A 
ATOM     12  C   UNL     1      -6.645  -0.722 125.675  0.00  0.00    +0.000 A 
ATOM     13  H   UNL     1      -4.721   2.816 125.920  0.00  0.00    +0.000 HD
ATOM     14  H   UNL     1      -6.339   3.484 122.833  0.00  0.00    +0.000 HD
ENDROOT
BRANCH  12  15
ATOM     15  C   UNL     1      -5.998  -1.896 126.376  0.00  0.00    +0.000 C 
ATOM     16  F   UNL     1      -5.353  -2.699 125.483  0.00  0.00    +0.000 F 
ATOM     17  F   UNL     1      -5.035  -1.469 127.245  0.00  0.00    +0.000 F 
ATOM     18  F   UNL     1      -6.767  -2.722 127.100  0.00  0.00    +0.000 F 
ENDBRANCH  12  15
BRANCH   1  19
ATOM     19  S   UNL     1      -8.766  -2.151 124.395  0.00  0.00    +0.000 S 
ATOM     20  O   UNL     1      -9.692  -2.478 125.450  0.00  0.00    +0.000 OA
ATOM     21  O   UNL     1      -7.958  -3.176 123.791  0.00  0.00    +0.000 OA
BRANCH  19  22
ATOM     22  N   UNL     1      -9.669  -1.547 123.103  0.00  0.00    +0.000 NA
ATOM     23  H   UNL     1     -10.397  -0.943 123.503  0.00  0.00    +0.000 HD
ATOM     24  H   UNL     1     -10.127  -2.287 122.570  0.00  0.00    +0.000 HD
ENDBRANCH  19  22
ENDBRANCH   1  19
TORSDOF 3
ENDMDL
MODEL 4
REMARK VINA RESULT:      -6.6      9.401     10.898
REMARK  Name = Hydroflumethiazide
REMARK  3 active torsions:
REMARK  status: ('A' for Active; 'I' for Inactive)
REMARK    1  A    between atoms: N_1  and  S_2
REMARK    2  A    between atoms: S_2  and  C_5
REMARK    3  A    between atoms: C_16  and  C_17
REMARK                            x       y       z     vdW  Elec       q    Type
REMARK                         _______ _______ _______ _____ _____    ______ ____
ROOT
ATOM      1  C   UNL     1      -7.166  -1.132 124.900  0.00  0.00    +0.000 A 
ATOM      2  C   UNL     1      -6.654   0.139 124.551  0.00  0.00    +0.000 A 
ATOM      3  C   UNL     1      -7.354   0.982 123.667  0.00  0.00    +0.000 A 
ATOM      4  C   UNL     1      -8.594   0.638 123.143  0.00  0.00    +0.000 A 
ATOM      5  N   UNL     1      -9.463   1.547 122.559  0.00  0.00    +0.000 N 
ATOM      6  C   UNL     1      -9.094   2.904 122.226  0.00  0.00    +0.000 C 
ATOM      7  N   UNL     1      -8.204   3.438 123.226  0.00  0.00    +0.000 NA
ATOM      8  S   UNL     1      -6.755   2.595 123.286  0.00  0.00    +0.000 S 
ATOM      9  O   UNL     1      -6.035   3.091 124.436  0.00  0.00    +0.000 OA
ATOM     10  O   UNL     1      -6.179   2.563 121.961  0.00  0.00    +0.000 OA
ATOM     11  C   UNL     1      -9.035  -0.662 123.418  0.00  0.00    +0.000 A 
ATOM     12  C   UNL     1      -8.333  -1.584 124.263  0.00  0.00    +0.000 A 
ATOM     13  H   UNL     1     -10.215   1.169 121.991  0.00  0.00    +0.000 HD
ATOM     14  H   UNL     1      -8.624   3.492 124.151  0.00  0.00    +0.000 HD
ENDROOT
BRANCH  12  15
ATOM     15  C   UNL     1      -8.985  -2.944 124.359  0.00  0.00    +0.000 C 
ATOM     16  F   UNL     1      -9.755  -3.036 125.480  0.00  0.00    +0.000 F 
ATOM     17  F   UNL     1      -9.838  -3.147 123.312  0.00  0.00    +0.000 F 
ATOM     18  F   UNL     1      -8.206  -4.036 124.377  0.00  0.00    +0.000 F 
ENDBRANCH  12  15
BRANCH   1  19
ATOM     19  S   UNL     1      -6.241  -2.018 126.165  0.00  0.00    +0.000 S 
ATOM     20  O   UNL     1      -5.380  -2.968 125.509  0.00  0.00    +0.000 OA
ATOM     21  O   UNL     1      -7.051  -2.418 127.285  0.00  0.00    +0.000 OA
BRANCH  19  22
ATOM     22  N   UNL     1      -5.256  -0.804 126.803  0.00  0.00    +0.000 NA
ATOM     23  H   UNL     1      -5.874  -0.131 127.270  0.00  0.00    +0.000 HD
ATOM     24  H   UNL     1      -4.735  -0.307 126.078  0.00  0.00    +0.000 HD
ENDBRANCH  19  22
ENDBRANCH   1  19
TORSDOF 3
ENDMDL
MODEL 5
REMARK VINA RESULT:      -6.4      9.437     10.505
REMARK  Name = Hydroflumethiazide
REMARK  3 active torsions:
REMARK  status: ('A' for Active; 'I' for Inactive)
REMARK    1  A    between atoms: N_1  and  S_2
REMARK    2  A    between atoms: S_2  and  C_5
REMARK    3  A    between atoms: C_16  and  C_17
REMARK                            x       y       z     vdW  Elec       q    Type
REMARK                         _______ _______ _______ _____ _____    ______ ____
ROOT
ATOM      1  C   UNL     1      -7.616  -1.293 124.503  0.00  0.00    +0.000 A 
ATOM      2  C   UNL     1      -8.001  -0.158 125.254  0.00  0.00    +0.000 A 
ATOM      3  C   UNL     1      -7.087   0.487 126.107  0.00  0.00    +0.000 A 
ATOM      4  C   UNL     1      -5.762   0.085 126.212  0.00  0.00    +0.000 A 
ATOM      5  N   UNL     1      -4.758   0.872 126.756  0.00  0.00    +0.000 N 
ATOM      6  C   UNL     1      -5.008   2.099 127.477  0.00  0.00    +0.000 C 
ATOM      7  N   UNL     1      -6.111   2.811 126.883  0.00  0.00    +0.000 NA
ATOM      8  S   UNL     1      -7.543   1.943 126.990  0.00  0.00    +0.000 S 
ATOM      9  O   UNL     1      -8.521   2.660 126.203  0.00  0.00    +0.000 OA
ATOM     10  O   UNL     1      -7.768   1.584 128.372  0.00  0.00    +0.000 OA
ATOM     11  C   UNL     1      -5.426  -1.097 125.541  0.00  0.00    +0.000 A 
ATOM     12  C   UNL     1      -6.335  -1.829 124.707  0.00  0.00    +0.000 A 
ATOM     13  H   UNL     1      -3.894   0.406 127.016  0.00  0.00    +0.000 HD
ATOM     14  H   UNL     1      -5.936   3.093 125.921  0.00  0.00    +0.000 HD
ENDROOT
BRANCH  12  15
ATOM     15  C   UNL     1      -5.752  -3.103 124.139  0.00  0.00    +0.000 C 
ATOM     16  F   UNL     1      -6.683  -4.099 124.122  0.00  0.00    +0.000 F 
ATOM     17  F   UNL     1      -5.382  -2.927 122.836  0.00  0.00    +0.000 F 
ATOM     18  F   UNL     1      -4.673  -3.642 124.727  0.00  0.00    +0.000 F 
ENDBRANCH  12  15
BRANCH   1  19
ATOM     19  S   UNL     1      -8.844  -1.902 123.337  0.00  0.00    +0.000 S 
ATOM     20  O   UNL     1      -9.665  -2.872 124.016  0.00  0.00    +0.000 OA
ATOM     21  O   UNL     1      -8.300  -2.190 122.037  0.00  0.00    +0.000 OA
BRANCH  19  22
ATOM     22  N   UNL     1      -9.797  -0.534 123.074  0.00  0.00    +0.000 NA
ATOM     23  H   UNL     1      -9.295   0.264 123.480  0.00  0.00    +0.000 HD
ATOM     24  H   UNL     1     -10.708  -0.602 123.530  0.00  0.00    +0.000 HD
ENDBRANCH  19  22
ENDBRANCH   1  19
TORSDOF 3
ENDMDL
MODEL 6
REMARK VINA RESULT:      -6.3      7.374      8.343
REMARK  Name = Hydroflumethiazide
REMARK  3 active torsions:
REMARK  status: ('A' for Active; 'I' for Inactive)
REMARK    1  A    between atoms: N_1  and  S_2
REMARK    2  A    between atoms: S_2  and  C_5
REMARK    3  A    between atoms: C_16  and  C_17
REMARK                            x       y       z     vdW  Elec       q    Type
REMARK                         _______ _______ _______ _____ _____    ______ ____
ROOT
ATOM      1  C   UNL     1      -6.831   2.777 125.525  0.00  0.00    +0.000 A 
ATOM      2  C   UNL     1      -6.211   3.792 126.291  0.00  0.00    +0.000 A 
ATOM      3  C   UNL     1      -4.922   3.607 126.826  0.00  0.00    +0.000 A 
ATOM      4  C   UNL     1      -4.179   2.459 126.586  0.00  0.00    +0.000 A 
ATOM      5  N   UNL     1      -2.810   2.369 126.792  0.00  0.00    +0.000 N 
ATOM      6  C   UNL     1      -2.040   3.374 127.487  0.00  0.00    +0.000 C 
ATOM      7  N   UNL     1      -2.544   4.689 127.180  0.00  0.00    +0.000 NA
ATOM      8  S   UNL     1      -4.119   4.896 127.721  0.00  0.00    +0.000 S 
ATOM      9  O   UNL     1      -4.574   6.162 127.194  0.00  0.00    +0.000 OA
ATOM     10  O   UNL     1      -4.174   4.573 129.129  0.00  0.00    +0.000 OA
ATOM     11  C   UNL     1      -4.846   1.428 125.913  0.00  0.00    +0.000 A 
ATOM     12  C   UNL     1      -6.180   1.539 125.399  0.00  0.00    +0.000 A 
ATOM     13  H   UNL     1      -2.408   1.437 126.830  0.00  0.00    +0.000 HD
ATOM     14  H   UNL     1      -2.472   4.928 126.194  0.00  0.00    +0.000 HD
ENDROOT
BRANCH  12  15
ATOM     15  C   UNL     1      -6.698   0.271 124.762  0.00  0.00    +0.000 C 
ATOM     16  F   UNL     1      -6.922   0.453 123.429  0.00  0.00    +0.000 F 
ATOM     17  F   UNL     1      -5.768  -0.726 124.842  0.00  0.00    +0.000 F 
ATOM     18  F   UNL     1      -7.826  -0.279 125.235  0.00  0.00    +0.000 F 
ENDBRANCH  12  15
BRANCH   1  19
ATOM     19  S   UNL     1      -8.403   3.227 124.774  0.00  0.00    +0.000 S 
ATOM     20  O   UNL     1      -9.426   2.381 125.333  0.00  0.00    +0.000 OA
ATOM     21  O   UNL     1      -8.317   3.426 123.352  0.00  0.00    +0.000 OA
BRANCH  19  22
ATOM     22  N   UNL     1      -8.654   4.784 125.377  0.00  0.00    +0.000 NA
ATOM     23  H   UNL     1      -9.663   4.965 125.328  0.00  0.00    +0.000 HD
ATOM     24  H   UNL     1      -8.176   5.497 124.822  0.00  0.00    +0.000 HD
ENDBRANCH  19  22
ENDBRANCH   1  19
TORSDOF 3
ENDMDL
MODEL 7
REMARK VINA RESULT:      -6.3      9.276     10.806
REMARK  Name = Hydroflumethiazide
REMARK  3 active torsions:
REMARK  status: ('A' for Active; 'I' for Inactive)
REMARK    1  A    between atoms: N_1  and  S_2
REMARK    2  A    between atoms: S_2  and  C_5
REMARK    3  A    between atoms: C_16  and  C_17
REMARK                            x       y       z     vdW  Elec       q    Type
REMARK                         _______ _______ _______ _____ _____    ______ ____
ROOT
ATOM      1  C   UNL     1      -6.860  -1.606 127.537  0.00  0.00    +0.000 A 
ATOM      2  C   UNL     1      -6.625  -1.279 126.180  0.00  0.00    +0.000 A 
ATOM      3  C   UNL     1      -7.370  -1.887 125.152  0.00  0.00    +0.000 A 
ATOM      4  C   UNL     1      -8.397  -2.784 125.413  0.00  0.00    +0.000 A 
ATOM      5  N   UNL     1      -9.365  -3.139 124.486  0.00  0.00    +0.000 N 
ATOM      6  C   UNL     1      -9.290  -2.798 123.083  0.00  0.00    +0.000 C 
ATOM      7  N   UNL     1      -8.714  -1.487 122.919  0.00  0.00    +0.000 NA
ATOM      8  S   UNL     1      -7.129  -1.429 123.467  0.00  0.00    +0.000 S 
ATOM      9  O   UNL     1      -6.729  -0.041 123.429  0.00  0.00    +0.000 OA
ATOM     10  O   UNL     1      -6.373  -2.476 122.817  0.00  0.00    +0.000 OA
ATOM     11  C   UNL     1      -8.547  -3.170 126.751  0.00  0.00    +0.000 A 
ATOM     12  C   UNL     1      -7.775  -2.629 127.831  0.00  0.00    +0.000 A 
ATOM     13  H   UNL     1      -9.910  -3.973 124.682  0.00  0.00    +0.000 HD
ATOM     14  H   UNL     1      -9.266  -0.748 123.348  0.00  0.00    +0.000 HD
ENDROOT
BRANCH  12  15
ATOM     15  C   UNL     1      -8.085  -3.249 129.175  0.00  0.00    +0.000 C 
ATOM     16  F   UNL     1      -9.228  -3.989 129.116  0.00  0.00    +0.000 F 
ATOM     17  F   UNL     1      -7.103  -4.124 129.542  0.00  0.00    +0.000 F 
ATOM     18  F   UNL     1      -8.240  -2.447 130.239  0.00  0.00    +0.000 F 
ENDBRANCH  12  15
BRANCH   1  19
ATOM     19  S   UNL     1      -5.946  -0.625 128.737  0.00  0.00    +0.000 S 
ATOM     20  O   UNL     1      -5.053  -1.505 129.448  0.00  0.00    +0.000 OA
ATOM     21  O   UNL     1      -6.772   0.310 129.454  0.00  0.00    +0.000 OA
BRANCH  19  22
ATOM     22  N   UNL     1      -4.998   0.360 127.747  0.00  0.00    +0.000 NA
ATOM     23  H   UNL     1      -4.502  -0.258 127.096  0.00  0.00    +0.000 HD
ATOM     24  H   UNL     1      -4.303   0.889 128.277  0.00  0.00    +0.000 HD
ENDBRANCH  19  22
ENDBRANCH   1  19
TORSDOF 3
ENDMDL
MODEL 8
REMARK VINA RESULT:      -6.1      3.586      6.063
REMARK  Name = Hydroflumethiazide
REMARK  3 active torsions:
REMARK  status: ('A' for Active; 'I' for Inactive)
REMARK    1  A    between atoms: N_1  and  S_2
REMARK    2  A    between atoms: S_2  and  C_5
REMARK    3  A    between atoms: C_16  and  C_17
REMARK                            x       y       z     vdW  Elec       q    Type
REMARK                         _______ _______ _______ _____ _____    ______ ____
ROOT
ATOM      1  C   UNL     1      -8.886   6.060 132.044  0.00  0.00    +0.000 A 
ATOM      2  C   UNL     1     -10.261   6.340 131.866  0.00  0.00    +0.000 A 
ATOM      3  C   UNL     1     -10.706   7.119 130.782  0.00  0.00    +0.000 A 
ATOM      4  C   UNL     1      -9.837   7.600 129.811  0.00  0.00    +0.000 A 
ATOM      5  N   UNL     1     -10.247   8.066 128.571  0.00  0.00    +0.000 N 
ATOM      6  C   UNL     1     -11.629   8.315 128.230  0.00  0.00    +0.000 C 
ATOM      7  N   UNL     1     -12.481   7.327 128.843  0.00  0.00    +0.000 NA
ATOM      8  S   UNL     1     -12.424   7.409 130.518  0.00  0.00    +0.000 S 
ATOM      9  O   UNL     1     -13.156   6.265 131.013  0.00  0.00    +0.000 OA
ATOM     10  O   UNL     1     -12.724   8.762 130.929  0.00  0.00    +0.000 OA
ATOM     11  C   UNL     1      -8.473   7.400 130.058  0.00  0.00    +0.000 A 
ATOM     12  C   UNL     1      -7.961   6.666 131.179  0.00  0.00    +0.000 A 
ATOM     13  H   UNL     1      -9.581   8.619 128.041  0.00  0.00    +0.000 HD
ATOM     14  H   UNL     1     -12.291   6.380 128.526  0.00  0.00    +0.000 HD
ENDROOT
BRANCH  12  15
ATOM     15  C   UNL     1      -6.452   6.638 131.254  0.00  0.00    +0.000 C 
ATOM     16  F   UNL     1      -5.951   5.573 130.567  0.00  0.00    +0.000 F 
ATOM     17  F   UNL     1      -5.917   7.743 130.655  0.00  0.00    +0.000 F 
ATOM     18  F   UNL     1      -5.864   6.587 132.458  0.00  0.00    +0.000 F 
ENDBRANCH  12  15
BRANCH   1  19
ATOM     19  S   UNL     1      -8.495   4.918 133.378  0.00  0.00    +0.000 S 
ATOM     20  O   UNL     1      -8.109   5.690 134.532  0.00  0.00    +0.000 OA
ATOM     21  O   UNL     1      -7.701   3.797 132.952  0.00  0.00    +0.000 OA
BRANCH  19  22
ATOM     22  N   UNL     1     -10.001   4.232 133.714  0.00  0.00    +0.000 NA
ATOM     23  H   UNL     1     -10.690   4.723 133.134  0.00  0.00    +0.000 HD
ATOM     24  H   UNL     1     -10.270   4.345 134.693  0.00  0.00    +0.000 HD
ENDBRANCH  19  22
ENDBRANCH   1  19
TORSDOF 3
ENDMDL
MODEL 9
REMARK VINA RESULT:      -6.1      9.254     10.218
REMARK  Name = Hydroflumethiazide
REMARK  3 active torsions:
REMARK  status: ('A' for Active; 'I' for Inactive)
REMARK    1  A    between atoms: N_1  and  S_2
REMARK    2  A    between atoms: S_2  and  C_5
REMARK    3  A    between atoms: C_16  and  C_17
REMARK                            x       y       z     vdW  Elec       q    Type
REMARK                         _______ _______ _______ _____ _____    ______ ____
ROOT
ATOM      1  C   UNL     1      -7.593  -1.537 125.596  0.00  0.00    +0.000 A 
ATOM      2  C   UNL     1      -7.912  -0.928 126.833  0.00  0.00    +0.000 A 
ATOM      3  C   UNL     1      -7.002  -0.954 127.906  0.00  0.00    +0.000 A 
ATOM      4  C   UNL     1      -5.740  -1.522 127.793  0.00  0.00    +0.000 A 
ATOM      5  N   UNL     1      -4.702  -1.279 128.680  0.00  0.00    +0.000 N 
ATOM      6  C   UNL     1      -4.875  -0.594 129.941  0.00  0.00    +0.000 C 
ATOM      7  N   UNL     1      -5.846   0.462 129.806  0.00  0.00    +0.000 NA
ATOM      8  S   UNL     1      -7.367  -0.135 129.424  0.00  0.00    +0.000 S 
ATOM      9  O   UNL     1      -8.199   1.010 129.130  0.00  0.00    +0.000 OA
ATOM     10  O   UNL     1      -7.735  -1.135 130.401  0.00  0.00    +0.000 OA
ATOM     11  C   UNL     1      -5.482  -2.207 126.599  0.00  0.00    +0.000 A 
ATOM     12  C   UNL     1      -6.396  -2.264 125.495  0.00  0.00    +0.000 A 
ATOM     13  H   UNL     1      -3.916  -1.921 128.660  0.00  0.00    +0.000 HD
ATOM     14  H   UNL     1      -5.569   1.182 129.144  0.00  0.00    +0.000 HD
ENDROOT
BRANCH  12  15
ATOM     15  C   UNL     1      -5.911  -3.111 124.342  0.00  0.00    +0.000 C 
ATOM     16  F   UNL     1      -4.736  -3.729 124.654  0.00  0.00    +0.000 F 
ATOM     17  F   UNL     1      -6.793  -4.119 124.077  0.00  0.00    +0.000 F 
ATOM     18  F   UNL     1      -5.695  -2.528 123.154  0.00  0.00    +0.000 F 
ENDBRANCH  12  15
BRANCH   1  19
ATOM     19  S   UNL     1      -8.786  -1.274 124.275  0.00  0.00    +0.000 S 
ATOM     20  O   UNL     1      -9.579  -2.470 124.142  0.00  0.00    +0.000 OA
ATOM     21  O   UNL     1      -8.218  -0.643 123.114  0.00  0.00    +0.000 OA
BRANCH  19  22
ATOM     22  N   UNL     1      -9.785  -0.080 124.927  0.00  0.00    +0.000 NA
ATOM     23  H   UNL     1     -10.558  -0.561 125.401  0.00  0.00    +0.000 HD
ATOM     24  H   UNL     1     -10.181   0.529 124.209  0.00  0.00    +0.000 HD
ENDBRANCH  19  22
ENDBRANCH   1  19
TORSDOF 3
ENDMDL
