MODEL 1
REMARK VINA RESULT:      -8.1      0.000      0.000
REMARK  Name = Hydrocortisone probutate
REMARK  14 active torsions:
REMARK  status: ('A' for Active; 'I' for Inactive)
REMARK    1  A    between atoms: C_5  and  O_6
REMARK    2  A    between atoms: C_5  and  C_12
REMARK    3  A    between atoms: O_6  and  C_7
REMARK    4  A    between atoms: C_7  and  C_9
REMARK    5  A    between atoms: C_9  and  C_10
REMARK    6  A    between atoms: C_10  and  C_11
REMARK    7  A    between atoms: C_12  and  C_14
REMARK    8  A    between atoms: C_14  and  O_15
REMARK    9  A    between atoms: O_15  and  C_16
REMARK   10  A    between atoms: C_16  and  C_18
REMARK   11  A    between atoms: C_18  and  C_19
REMARK   12  A    between atoms: C_20  and  C_21
REMARK   13  A    between atoms: C_23  and  O_24
REMARK   14  A    between atoms: C_37  and  C_38
REMARK                            x       y       z     vdW  Elec       q    Type
REMARK                         _______ _______ _______ _____ _____    ______ ____
ROOT
ATOM      1  C   UNL     1      -7.329   3.039 130.364  0.00  0.00    +0.000 C 
ATOM      2  C   UNL     1      -7.248   2.178 131.487  0.00  0.00    +0.000 C 
ATOM      3  C   UNL     1      -7.565   3.611 131.706  0.00  0.00    +0.000 C 
ATOM      4  C   UNL     1      -8.223   4.719 130.030  0.00  0.00    +0.000 C 
ATOM      5  C   UNL     1      -8.892   3.937 130.972  0.00  0.00    +0.000 C 
ATOM      6  C   UNL     1     -10.118   3.135 130.762  0.00  0.00    +0.000 C 
ATOM      7  C   UNL     1      -8.632   5.415 132.105  0.00  0.00    +0.000 C 
ATOM      8  C   UNL     1      -7.152   6.213 131.771  0.00  0.00    +0.000 C 
ATOM      9  C   UNL     1      -5.739   5.358 131.553  0.00  0.00    +0.000 C 
ATOM     10  C   UNL     1      -5.874   4.193 130.330  0.00  0.00    +0.000 C 
ATOM     11  C   UNL     1      -4.647   3.315 130.203  0.00  0.00    +0.000 C 
ATOM     12  C   UNL     1      -3.388   4.127 130.115  0.00  0.00    +0.000 C 
ATOM     13  C   UNL     1      -3.231   5.177 131.172  0.00  0.00    +0.000 C 
ATOM     14  C   UNL     1      -2.041   5.344 131.762  0.00  0.00    +0.000 C 
ATOM     15  C   UNL     1      -1.915   6.608 132.486  0.00  0.00    +0.000 C 
ATOM     16  O   UNL     1      -1.778   7.717 131.974  0.00  0.00    +0.000 OA
ATOM     17  C   UNL     1      -2.478   6.517 133.811  0.00  0.00    +0.000 C 
ATOM     18  C   UNL     1      -4.014   6.772 133.110  0.00  0.00    +0.000 C 
ATOM     19  C   UNL     1      -4.377   6.137 131.497  0.00  0.00    +0.000 C 
ATOM     20  C   UNL     1      -4.512   7.069 130.264  0.00  0.00    +0.000 C 
ENDROOT
BRANCH   4  21
ATOM     21  C   UNL     1      -9.692   5.827 129.718  0.00  0.00    +0.000 C 
ATOM     22  O   UNL     1      -9.604   6.860 129.016  0.00  0.00    +0.000 OA
BRANCH  21  23
ATOM     23  C   UNL     1     -11.210   5.712 130.353  0.00  0.00    +0.000 C 
BRANCH  23  24
ATOM     24  O   UNL     1     -12.284   5.751 129.214  0.00  0.00    +0.000 OA
BRANCH  24  25
ATOM     25  C   UNL     1     -13.082   6.858 128.984  0.00  0.00    +0.000 C 
ATOM     26  O   UNL     1     -13.887   6.912 128.061  0.00  0.00    +0.000 OA
BRANCH  25  27
ATOM     27  C   UNL     1     -12.889   8.047 129.978  0.00  0.00    +0.000 C 
ATOM     28  C   UNL     1     -12.744   9.408 129.258  0.00  0.00    +0.000 C 
ENDBRANCH  25  27
ENDBRANCH  24  25
ENDBRANCH  23  24
ENDBRANCH  21  23
ENDBRANCH   4  21
BRANCH   8  29
ATOM     29  O   UNL     1      -7.435   7.044 130.627  0.00  0.00    +0.000 OA
ATOM     30  H   UNL     1      -7.125   6.627 129.803  0.00  0.00    +0.000 HD
ENDBRANCH   8  29
BRANCH   4  31
ATOM     31  O   UNL     1      -8.496   3.949 128.600  0.00  0.00    +0.000 OA
BRANCH  31  32
ATOM     32  C   UNL     1      -7.883   4.234 127.403  0.00  0.00    +0.000 C 
ATOM     33  O   UNL     1      -8.205   5.165 126.675  0.00  0.00    +0.000 OA
BRANCH  32  34
ATOM     34  C   UNL     1      -6.656   3.449 126.994  0.00  0.00    +0.000 C 
BRANCH  34  35
ATOM     35  C   UNL     1      -5.553   4.502 126.674  0.00  0.00    +0.000 C 
ATOM     36  C   UNL     1      -4.203   3.916 126.330  0.00  0.00    +0.000 C 
ENDBRANCH  34  35
ENDBRANCH  32  34
ENDBRANCH  31  32
ENDBRANCH   4  31
TORSDOF 10
ENDMDL
MODEL 2
REMARK VINA RESULT:      -7.9      4.115      7.888
REMARK  Name = Hydrocortisone probutate
REMARK  14 active torsions:
REMARK  status: ('A' for Active; 'I' for Inactive)
REMARK    1  A    between atoms: C_5  and  O_6
REMARK    2  A    between atoms: C_5  and  C_12
REMARK    3  A    between atoms: O_6  and  C_7
REMARK    4  A    between atoms: C_7  and  C_9
REMARK    5  A    between atoms: C_9  and  C_10
REMARK    6  A    between atoms: C_10  and  C_11
REMARK    7  A    between atoms: C_12  and  C_14
REMARK    8  A    between atoms: C_14  and  O_15
REMARK    9  A    between atoms: O_15  and  C_16
REMARK   10  A    between atoms: C_16  and  C_18
REMARK   11  A    between atoms: C_18  and  C_19
REMARK   12  A    between atoms: C_20  and  C_21
REMARK   13  A    between atoms: C_23  and  O_24
REMARK   14  A    between atoms: C_37  and  C_38
REMARK                            x       y       z     vdW  Elec       q    Type
REMARK                         _______ _______ _______ _____ _____    ______ ____
ROOT
ATOM      1  C   UNL     1      -5.316   1.399 127.391  0.00  0.00    +0.000 C 
ATOM      2  C   UNL     1      -4.441   1.802 126.352  0.00  0.00    +0.000 C 
ATOM      3  C   UNL     1      -5.886   2.119 126.233  0.00  0.00    +0.000 C 
ATOM      4  C   UNL     1      -7.043   2.019 127.999  0.00  0.00    +0.000 C 
ATOM      5  C   UNL     1      -6.285   3.037 127.418  0.00  0.00    +0.000 C 
ATOM      6  C   UNL     1      -5.548   4.114 128.114  0.00  0.00    +0.000 C 
ATOM      7  C   UNL     1      -7.737   3.180 126.231  0.00  0.00    +0.000 C 
ATOM      8  C   UNL     1      -8.463   1.657 125.936  0.00  0.00    +0.000 C 
ATOM      9  C   UNL     1      -7.541   0.308 125.608  0.00  0.00    +0.000 C 
ATOM     10  C   UNL     1      -6.397   0.001 126.819  0.00  0.00    +0.000 C 
ATOM     11  C   UNL     1      -5.460  -1.139 126.481  0.00  0.00    +0.000 C 
ATOM     12  C   UNL     1      -6.209  -2.365 126.045  0.00  0.00    +0.000 C 
ATOM     13  C   UNL     1      -7.239  -2.137 124.981  0.00  0.00    +0.000 C 
ATOM     14  C   UNL     1      -7.340  -3.006 123.968  0.00  0.00    +0.000 C 
ATOM     15  C   UNL     1      -8.588  -2.891 123.215  0.00  0.00    +0.000 C 
ATOM     16  O   UNL     1      -9.694  -3.264 123.600  0.00  0.00    +0.000 OA
ATOM     17  C   UNL     1      -8.512  -1.850 122.220  0.00  0.00    +0.000 C 
ATOM     18  C   UNL     1      -8.850  -0.724 123.459  0.00  0.00    +0.000 C 
ATOM     19  C   UNL     1      -8.251  -0.997 125.103  0.00  0.00    +0.000 C 
ATOM     20  C   UNL     1      -9.202  -1.397 126.262  0.00  0.00    +0.000 C 
ENDROOT
BRANCH   4  21
ATOM     21  C   UNL     1      -8.226   3.200 128.829  0.00  0.00    +0.000 C 
ATOM     22  O   UNL     1      -9.378   2.850 129.172  0.00  0.00    +0.000 OA
BRANCH  21  23
ATOM     23  C   UNL     1      -8.020   4.809 129.129  0.00  0.00    +0.000 C 
BRANCH  23  24
ATOM     24  O   UNL     1      -9.213   5.633 128.538  0.00  0.00    +0.000 OA
BRANCH  24  25
ATOM     25  C   UNL     1      -9.946   6.527 129.298  0.00  0.00    +0.000 C 
ATOM     26  O   UNL     1      -9.579   7.681 129.497  0.00  0.00    +0.000 OA
BRANCH  25  27
ATOM     27  C   UNL     1     -11.277   5.973 129.896  0.00  0.00    +0.000 C 
ATOM     28  C   UNL     1     -11.717   6.729 131.172  0.00  0.00    +0.000 C 
ENDBRANCH  25  27
ENDBRANCH  24  25
ENDBRANCH  23  24
ENDBRANCH  21  23
ENDBRANCH   4  21
BRANCH   8  29
ATOM     29  O   UNL     1      -9.319   1.433 127.074  0.00  0.00    +0.000 OA
ATOM     30  H   UNL     1      -9.550   0.490 127.162  0.00  0.00    +0.000 HD
ENDBRANCH   8  29
BRANCH   4  31
ATOM     31  O   UNL     1      -6.302   1.741 129.444  0.00  0.00    +0.000 OA
BRANCH  31  32
ATOM     32  C   UNL     1      -6.665   0.785 130.363  0.00  0.00    +0.000 C 
ATOM     33  O   UNL     1      -6.220   0.730 131.503  0.00  0.00    +0.000 OA
BRANCH  32  34
ATOM     34  C   UNL     1      -7.768  -0.192 130.020  0.00  0.00    +0.000 C 
BRANCH  34  35
ATOM     35  C   UNL     1      -7.103  -1.601 129.979  0.00  0.00    +0.000 C 
ATOM     36  C   UNL     1      -8.008  -2.710 129.493  0.00  0.00    +0.000 C 
ENDBRANCH  34  35
ENDBRANCH  32  34
ENDBRANCH  31  32
ENDBRANCH   4  31
TORSDOF 10
ENDMDL
MODEL 3
REMARK VINA RESULT:      -7.8      3.750      7.153
REMARK  Name = Hydrocortisone probutate
REMARK  14 active torsions:
REMARK  status: ('A' for Active; 'I' for Inactive)
REMARK    1  A    between atoms: C_5  and  O_6
REMARK    2  A    between atoms: C_5  and  C_12
REMARK    3  A    between atoms: O_6  and  C_7
REMARK    4  A    between atoms: C_7  and  C_9
REMARK    5  A    between atoms: C_9  and  C_10
REMARK    6  A    between atoms: C_10  and  C_11
REMARK    7  A    between atoms: C_12  and  C_14
REMARK    8  A    between atoms: C_14  and  O_15
REMARK    9  A    between atoms: O_15  and  C_16
REMARK   10  A    between atoms: C_16  and  C_18
REMARK   11  A    between atoms: C_18  and  C_19
REMARK   12  A    between atoms: C_20  and  C_21
REMARK   13  A    between atoms: C_23  and  O_24
REMARK   14  A    between atoms: C_37  and  C_38
REMARK                            x       y       z     vdW  Elec       q    Type
REMARK                         _______ _______ _______ _____ _____    ______ ____
ROOT
ATOM      1  C   UNL     1      -5.325   1.708 128.952  0.00  0.00    +0.000 C 
ATOM      2  C   UNL     1      -4.155   2.160 128.293  0.00  0.00    +0.000 C 
ATOM      3  C   UNL     1      -5.478   2.475 127.698  0.00  0.00    +0.000 C 
ATOM      4  C   UNL     1      -7.168   2.291 128.955  0.00  0.00    +0.000 C 
ATOM      5  C   UNL     1      -6.278   3.337 128.709  0.00  0.00    +0.000 C 
ATOM      6  C   UNL     1      -5.846   4.387 129.658  0.00  0.00    +0.000 C 
ATOM      7  C   UNL     1      -7.237   3.524 127.103  0.00  0.00    +0.000 C 
ATOM      8  C   UNL     1      -7.788   2.011 126.516  0.00  0.00    +0.000 C 
ATOM      9  C   UNL     1      -6.782   0.683 126.472  0.00  0.00    +0.000 C 
ATOM     10  C   UNL     1      -6.116   0.330 127.989  0.00  0.00    +0.000 C 
ATOM     11  C   UNL     1      -5.097  -0.789 127.949  0.00  0.00    +0.000 C 
ATOM     12  C   UNL     1      -5.627  -1.998 127.235  0.00  0.00    +0.000 C 
ATOM     13  C   UNL     1      -6.234  -1.731 125.892  0.00  0.00    +0.000 C 
ATOM     14  C   UNL     1      -5.964  -2.555 124.872  0.00  0.00    +0.000 C 
ATOM     15  C   UNL     1      -6.881  -2.414 123.742  0.00  0.00    +0.000 C 
ATOM     16  O   UNL     1      -8.044  -2.810 123.709  0.00  0.00    +0.000 OA
ATOM     17  C   UNL     1      -6.490  -1.330 122.875  0.00  0.00    +0.000 C 
ATOM     18  C   UNL     1      -7.255  -0.261 123.966  0.00  0.00    +0.000 C 
ATOM     19  C   UNL     1      -7.250  -0.603 125.704  0.00  0.00    +0.000 C 
ATOM     20  C   UNL     1      -8.531  -1.058 126.450  0.00  0.00    +0.000 C 
ENDROOT
BRANCH   4  21
ATOM     21  C   UNL     1      -8.588   3.427 129.374  0.00  0.00    +0.000 C 
ATOM     22  O   UNL     1      -9.771   3.022 129.410  0.00  0.00    +0.000 OA
BRANCH  21  23
ATOM     23  C   UNL     1      -8.548   5.056 129.637  0.00  0.00    +0.000 C 
BRANCH  23  24
ATOM     24  O   UNL     1      -9.367   5.809 128.534  0.00  0.00    +0.000 OA
BRANCH  24  25
ATOM     25  C   UNL     1     -10.541   6.484 128.814  0.00  0.00    +0.000 C 
ATOM     26  O   UNL     1     -11.554   5.915 129.204  0.00  0.00    +0.000 OA
BRANCH  25  27
ATOM     27  C   UNL     1     -10.499   8.030 128.595  0.00  0.00    +0.000 C 
ATOM     28  C   UNL     1     -11.887   8.693 128.754  0.00  0.00    +0.000 C 
ENDBRANCH  25  27
ENDBRANCH  24  25
ENDBRANCH  23  24
ENDBRANCH  21  23
ENDBRANCH   4  21
BRANCH   8  29
ATOM     29  O   UNL     1      -8.978   1.733 127.282  0.00  0.00    +0.000 OA
ATOM     30  H   UNL     1      -8.796   1.765 128.239  0.00  0.00    +0.000 HD
ENDBRANCH   8  29
BRANCH   4  31
ATOM     31  O   UNL     1      -6.962   1.954 130.554  0.00  0.00    +0.000 OA
BRANCH  31  32
ATOM     32  C   UNL     1      -7.599   0.957 131.255  0.00  0.00    +0.000 C 
ATOM     33  O   UNL     1      -7.678   0.925 132.477  0.00  0.00    +0.000 OA
BRANCH  32  34
ATOM     34  C   UNL     1      -8.362  -0.108 130.498  0.00  0.00    +0.000 C 
BRANCH  34  35
ATOM     35  C   UNL     1      -7.637  -1.455 130.796  0.00  0.00    +0.000 C 
ATOM     36  C   UNL     1      -8.002  -2.586 129.861  0.00  0.00    +0.000 C 
ENDBRANCH  34  35
ENDBRANCH  32  34
ENDBRANCH  31  32
ENDBRANCH   4  31
TORSDOF 10
ENDMDL
MODEL 4
REMARK VINA RESULT:      -7.8      2.002      3.013
REMARK  Name = Hydrocortisone probutate
REMARK  14 active torsions:
REMARK  status: ('A' for Active; 'I' for Inactive)
REMARK    1  A    between atoms: C_5  and  O_6
REMARK    2  A    between atoms: C_5  and  C_12
REMARK    3  A    between atoms: O_6  and  C_7
REMARK    4  A    between atoms: C_7  and  C_9
REMARK    5  A    between atoms: C_9  and  C_10
REMARK    6  A    between atoms: C_10  and  C_11
REMARK    7  A    between atoms: C_12  and  C_14
REMARK    8  A    between atoms: C_14  and  O_15
REMARK    9  A    between atoms: O_15  and  C_16
REMARK   10  A    between atoms: C_16  and  C_18
REMARK   11  A    between atoms: C_18  and  C_19
REMARK   12  A    between atoms: C_20  and  C_21
REMARK   13  A    between atoms: C_23  and  O_24
REMARK   14  A    between atoms: C_37  and  C_38
REMARK                            x       y       z     vdW  Elec       q    Type
REMARK                         _______ _______ _______ _____ _____    ______ ____
ROOT
ATOM      1  C   UNL     1      -7.502   4.541 133.286  0.00  0.00    +0.000 C 
ATOM      2  C   UNL     1      -7.724   5.420 134.375  0.00  0.00    +0.000 C 
ATOM      3  C   UNL     1      -7.474   5.996 133.030  0.00  0.00    +0.000 C 
ATOM      4  C   UNL     1      -7.707   4.708 131.371  0.00  0.00    +0.000 C 
ATOM      5  C   UNL     1      -8.599   5.517 132.076  0.00  0.00    +0.000 C 
ATOM      6  C   UNL     1     -10.041   5.276 132.304  0.00  0.00    +0.000 C 
ATOM      7  C   UNL     1      -7.776   6.920 131.131  0.00  0.00    +0.000 C 
ATOM      8  C   UNL     1      -6.113   6.606 130.858  0.00  0.00    +0.000 C 
ATOM      9  C   UNL     1      -5.130   6.033 132.075  0.00  0.00    +0.000 C 
ATOM     10  C   UNL     1      -5.722   4.601 132.760  0.00  0.00    +0.000 C 
ATOM     11  C   UNL     1      -4.918   4.134 133.955  0.00  0.00    +0.000 C 
ATOM     12  C   UNL     1      -3.448   4.086 133.653  0.00  0.00    +0.000 C 
ATOM     13  C   UNL     1      -2.884   5.330 133.036  0.00  0.00    +0.000 C 
ATOM     14  C   UNL     1      -1.704   5.798 133.462  0.00  0.00    +0.000 C 
ATOM     15  C   UNL     1      -1.096   6.772 132.558  0.00  0.00    +0.000 C 
ATOM     16  O   UNL     1      -0.565   6.515 131.480  0.00  0.00    +0.000 OA
ATOM     17  C   UNL     1      -1.620   8.097 132.778  0.00  0.00    +0.000 C 
ATOM     18  C   UNL     1      -2.964   7.659 131.820  0.00  0.00    +0.000 C 
ATOM     19  C   UNL     1      -3.577   5.997 131.848  0.00  0.00    +0.000 C 
ATOM     20  C   UNL     1      -3.381   5.035 130.647  0.00  0.00    +0.000 C 
ENDROOT
BRANCH   4  21
ATOM     21  C   UNL     1      -8.660   4.832 129.771  0.00  0.00    +0.000 C 
ATOM     22  O   UNL     1      -8.375   4.128 128.775  0.00  0.00    +0.000 OA
BRANCH  21  23
ATOM     23  C   UNL     1      -9.870   5.884 129.383  0.00  0.00    +0.000 C 
BRANCH  23  24
ATOM     24  O   UNL     1      -9.744   6.335 127.888  0.00  0.00    +0.000 OA
BRANCH  24  25
ATOM     25  C   UNL     1     -10.645   7.202 127.296  0.00  0.00    +0.000 C 
ATOM     26  O   UNL     1     -11.231   6.935 126.253  0.00  0.00    +0.000 OA
BRANCH  25  27
ATOM     27  C   UNL     1     -10.868   8.556 128.042  0.00  0.00    +0.000 C 
ATOM     28  C   UNL     1     -12.336   8.756 128.486  0.00  0.00    +0.000 C 
ENDBRANCH  25  27
ENDBRANCH  24  25
ENDBRANCH  23  24
ENDBRANCH  21  23
ENDBRANCH   4  21
BRANCH   8  29
ATOM     29  O   UNL     1      -6.090   5.724 129.717  0.00  0.00    +0.000 OA
ATOM     30  H   UNL     1      -6.988   5.420 129.488  0.00  0.00    +0.000 HD
ENDBRANCH   8  29
BRANCH   4  31
ATOM     31  O   UNL     1      -8.284   3.181 131.599  0.00  0.00    +0.000 OA
BRANCH  31  32
ATOM     32  C   UNL     1      -7.631   2.017 131.268  0.00  0.00    +0.000 C 
ATOM     33  O   UNL     1      -8.100   0.899 131.441  0.00  0.00    +0.000 OA
BRANCH  32  34
ATOM     34  C   UNL     1      -6.311   2.092 130.533  0.00  0.00    +0.000 C 
BRANCH  34  35
ATOM     35  C   UNL     1      -5.286   1.297 131.398  0.00  0.00    +0.000 C 
ATOM     36  C   UNL     1      -4.181   0.630 130.612  0.00  0.00    +0.000 C 
ENDBRANCH  34  35
ENDBRANCH  32  34
ENDBRANCH  31  32
ENDBRANCH   4  31
TORSDOF 10
ENDMDL
MODEL 5
REMARK VINA RESULT:      -7.7      4.635      6.722
REMARK  Name = Hydrocortisone probutate
REMARK  14 active torsions:
REMARK  status: ('A' for Active; 'I' for Inactive)
REMARK    1  A    between atoms: C_5  and  O_6
REMARK    2  A    between atoms: C_5  and  C_12
REMARK    3  A    between atoms: O_6  and  C_7
REMARK    4  A    between atoms: C_7  and  C_9
REMARK    5  A    between atoms: C_9  and  C_10
REMARK    6  A    between atoms: C_10  and  C_11
REMARK    7  A    between atoms: C_12  and  C_14
REMARK    8  A    between atoms: C_14  and  O_15
REMARK    9  A    between atoms: O_15  and  C_16
REMARK   10  A    between atoms: C_16  and  C_18
REMARK   11  A    between atoms: C_18  and  C_19
REMARK   12  A    between atoms: C_20  and  C_21
REMARK   13  A    between atoms: C_23  and  O_24
REMARK   14  A    between atoms: C_37  and  C_38
REMARK                            x       y       z     vdW  Elec       q    Type
REMARK                         _______ _______ _______ _____ _____    ______ ____
ROOT
ATOM      1  C   UNL     1      -7.624   0.886 127.403  0.00  0.00    +0.000 C 
ATOM      2  C   UNL     1      -8.532   1.420 128.351  0.00  0.00    +0.000 C 
ATOM      3  C   UNL     1      -8.123   2.261 127.199  0.00  0.00    +0.000 C 
ATOM      4  C   UNL     1      -7.245   1.275 125.549  0.00  0.00    +0.000 C 
ATOM      5  C   UNL     1      -8.568   1.554 125.893  0.00  0.00    +0.000 C 
ATOM      6  C   UNL     1      -9.766   0.745 125.576  0.00  0.00    +0.000 C 
ATOM      7  C   UNL     1      -8.146   3.300 125.335  0.00  0.00    +0.000 C 
ATOM      8  C   UNL     1      -6.515   3.695 125.681  0.00  0.00    +0.000 C 
ATOM      9  C   UNL     1      -5.837   3.350 127.164  0.00  0.00    +0.000 C 
ATOM     10  C   UNL     1      -5.966   1.709 127.563  0.00  0.00    +0.000 C 
ATOM     11  C   UNL     1      -5.478   1.394 128.962  0.00  0.00    +0.000 C 
ATOM     12  C   UNL     1      -4.112   1.963 129.215  0.00  0.00    +0.000 C 
ATOM     13  C   UNL     1      -3.950   3.411 128.866  0.00  0.00    +0.000 C 
ATOM     14  C   UNL     1      -3.282   4.218 129.700  0.00  0.00    +0.000 C 
ATOM     15  C   UNL     1      -2.877   5.485 129.096  0.00  0.00    +0.000 C 
ATOM     16  O   UNL     1      -1.968   5.633 128.281  0.00  0.00    +0.000 OA
ATOM     17  C   UNL     1      -3.945   6.453 129.130  0.00  0.00    +0.000 C 
ATOM     18  C   UNL     1      -4.593   5.699 127.742  0.00  0.00    +0.000 C 
ATOM     19  C   UNL     1      -4.430   3.949 127.517  0.00  0.00    +0.000 C 
ATOM     20  C   UNL     1      -3.473   3.347 126.456  0.00  0.00    +0.000 C 
ENDROOT
BRANCH   4  21
ATOM     21  C   UNL     1      -7.585   1.288 123.714  0.00  0.00    +0.000 C 
ATOM     22  O   UNL     1      -6.941   0.569 122.917  0.00  0.00    +0.000 OA
BRANCH  21  23
ATOM     23  C   UNL     1      -8.629   2.253 122.876  0.00  0.00    +0.000 C 
BRANCH  23  24
ATOM     24  O   UNL     1      -7.854   3.426 122.184  0.00  0.00    +0.000 OA
BRANCH  24  25
ATOM     25  C   UNL     1      -8.027   3.743 120.849  0.00  0.00    +0.000 C 
ATOM     26  O   UNL     1      -9.134   3.820 120.326  0.00  0.00    +0.000 OA
BRANCH  25  27
ATOM     27  C   UNL     1      -6.716   3.994 120.039  0.00  0.00    +0.000 C 
ATOM     28  C   UNL     1      -5.445   3.596 120.824  0.00  0.00    +0.000 C 
ENDBRANCH  25  27
ENDBRANCH  24  25
ENDBRANCH  23  24
ENDBRANCH  21  23
ENDBRANCH   4  21
BRANCH   8  29
ATOM     29  O   UNL     1      -5.757   3.091 124.614  0.00  0.00    +0.000 OA
ATOM     30  H   UNL     1      -4.823   3.363 124.646  0.00  0.00    +0.000 HD
ENDBRANCH   8  29
BRANCH   4  31
ATOM     31  O   UNL     1      -7.173  -0.370 125.527  0.00  0.00    +0.000 OA
BRANCH  31  32
ATOM     32  C   UNL     1      -6.043  -1.123 125.307  0.00  0.00    +0.000 C 
ATOM     33  O   UNL     1      -4.906  -0.733 125.543  0.00  0.00    +0.000 OA
BRANCH  32  34
ATOM     34  C   UNL     1      -6.188  -2.565 124.870  0.00  0.00    +0.000 C 
BRANCH  34  35
ATOM     35  C   UNL     1      -5.192  -2.761 123.687  0.00  0.00    +0.000 C 
ATOM     36  C   UNL     1      -4.463  -4.086 123.691  0.00  0.00    +0.000 C 
ENDBRANCH  34  35
ENDBRANCH  32  34
ENDBRANCH  31  32
ENDBRANCH   4  31
TORSDOF 10
ENDMDL
MODEL 6
REMARK VINA RESULT:      -7.5      3.275      6.103
REMARK  Name = Hydrocortisone probutate
REMARK  14 active torsions:
REMARK  status: ('A' for Active; 'I' for Inactive)
REMARK    1  A    between atoms: C_5  and  O_6
REMARK    2  A    between atoms: C_5  and  C_12
REMARK    3  A    between atoms: O_6  and  C_7
REMARK    4  A    between atoms: C_7  and  C_9
REMARK    5  A    between atoms: C_9  and  C_10
REMARK    6  A    between atoms: C_10  and  C_11
REMARK    7  A    between atoms: C_12  and  C_14
REMARK    8  A    between atoms: C_14  and  O_15
REMARK    9  A    between atoms: O_15  and  C_16
REMARK   10  A    between atoms: C_16  and  C_18
REMARK   11  A    between atoms: C_18  and  C_19
REMARK   12  A    between atoms: C_20  and  C_21
REMARK   13  A    between atoms: C_23  and  O_24
REMARK   14  A    between atoms: C_37  and  C_38
REMARK                            x       y       z     vdW  Elec       q    Type
REMARK                         _______ _______ _______ _____ _____    ______ ____
ROOT
ATOM      1  C   UNL     1      -5.047   2.482 128.327  0.00  0.00    +0.000 C 
ATOM      2  C   UNL     1      -4.328   1.667 129.237  0.00  0.00    +0.000 C 
ATOM      3  C   UNL     1      -5.802   1.513 129.148  0.00  0.00    +0.000 C 
ATOM      4  C   UNL     1      -6.753   2.306 127.436  0.00  0.00    +0.000 C 
ATOM      5  C   UNL     1      -6.163   1.071 127.706  0.00  0.00    +0.000 C 
ATOM      6  C   UNL     1      -5.465   0.183 126.751  0.00  0.00    +0.000 C 
ATOM      7  C   UNL     1      -7.737   0.746 128.682  0.00  0.00    +0.000 C 
ATOM      8  C   UNL     1      -8.339   2.178 129.405  0.00  0.00    +0.000 C 
ATOM      9  C   UNL     1      -7.329   3.229 130.213  0.00  0.00    +0.000 C 
ATOM     10  C   UNL     1      -6.041   3.754 129.247  0.00  0.00    +0.000 C 
ATOM     11  C   UNL     1      -5.038   4.603 129.998  0.00  0.00    +0.000 C 
ATOM     12  C   UNL     1      -5.706   5.714 130.755  0.00  0.00    +0.000 C 
ATOM     13  C   UNL     1      -6.858   5.296 131.617  0.00  0.00    +0.000 C 
ATOM     14  C   UNL     1      -6.980   5.808 132.847  0.00  0.00    +0.000 C 
ATOM     15  C   UNL     1      -8.304   5.620 133.435  0.00  0.00    +0.000 C 
ATOM     16  O   UNL     1      -9.323   6.231 133.118  0.00  0.00    +0.000 OA
ATOM     17  C   UNL     1      -8.434   4.319 134.043  0.00  0.00    +0.000 C 
ATOM     18  C   UNL     1      -8.749   3.690 132.486  0.00  0.00    +0.000 C 
ATOM     19  C   UNL     1      -7.958   4.388 131.063  0.00  0.00    +0.000 C 
ATOM     20  C   UNL     1      -8.739   5.247 130.034  0.00  0.00    +0.000 C 
ENDROOT
BRANCH   4  21
ATOM     21  C   UNL     1      -7.952   1.604 126.190  0.00  0.00    +0.000 C 
ATOM     22  O   UNL     1      -8.995   2.213 125.860  0.00  0.00    +0.000 OA
BRANCH  21  23
ATOM     23  C   UNL     1      -7.910   0.129 125.452  0.00  0.00    +0.000 C 
BRANCH  23  24
ATOM     24  O   UNL     1      -9.166  -0.719 125.851  0.00  0.00    +0.000 OA
BRANCH  24  25
ATOM     25  C   UNL     1      -9.117  -2.093 125.995  0.00  0.00    +0.000 C 
ATOM     26  O   UNL     1      -9.862  -2.849 125.379  0.00  0.00    +0.000 OA
BRANCH  25  27
ATOM     27  C   UNL     1      -8.051  -2.630 127.002  0.00  0.00    +0.000 C 
ATOM     28  C   UNL     1      -8.652  -3.601 128.045  0.00  0.00    +0.000 C 
ENDBRANCH  25  27
ENDBRANCH  24  25
ENDBRANCH  23  24
ENDBRANCH  21  23
ENDBRANCH   4  21
BRANCH   8  29
ATOM     29  O   UNL     1      -9.046   2.854 128.345  0.00  0.00    +0.000 OA
ATOM     30  H   UNL     1      -9.981   2.583 128.317  0.00  0.00    +0.000 HD
ENDBRANCH   8  29
BRANCH   4  31
ATOM     31  O   UNL     1      -5.842   2.928 126.212  0.00  0.00    +0.000 OA
BRANCH  31  32
ATOM     32  C   UNL     1      -6.064   4.125 125.572  0.00  0.00    +0.000 C 
ATOM     33  O   UNL     1      -6.578   5.100 126.107  0.00  0.00    +0.000 OA
BRANCH  32  34
ATOM     34  C   UNL     1      -5.541   4.321 124.166  0.00  0.00    +0.000 C 
BRANCH  34  35
ATOM     35  C   UNL     1      -6.268   3.264 123.281  0.00  0.00    +0.000 C 
ATOM     36  C   UNL     1      -6.116   3.477 121.793  0.00  0.00    +0.000 C 
ENDBRANCH  34  35
ENDBRANCH  32  34
ENDBRANCH  31  32
ENDBRANCH   4  31
TORSDOF 10
ENDMDL
MODEL 7
REMARK VINA RESULT:      -7.5      5.384      7.787
REMARK  Name = Hydrocortisone probutate
REMARK  14 active torsions:
REMARK  status: ('A' for Active; 'I' for Inactive)
REMARK    1  A    between atoms: C_5  and  O_6
REMARK    2  A    between atoms: C_5  and  C_12
REMARK    3  A    between atoms: O_6  and  C_7
REMARK    4  A    between atoms: C_7  and  C_9
REMARK    5  A    between atoms: C_9  and  C_10
REMARK    6  A    between atoms: C_10  and  C_11
REMARK    7  A    between atoms: C_12  and  C_14
REMARK    8  A    between atoms: C_14  and  O_15
REMARK    9  A    between atoms: O_15  and  C_16
REMARK   10  A    between atoms: C_16  and  C_18
REMARK   11  A    between atoms: C_18  and  C_19
REMARK   12  A    between atoms: C_20  and  C_21
REMARK   13  A    between atoms: C_23  and  O_24
REMARK   14  A    between atoms: C_37  and  C_38
REMARK                            x       y       z     vdW  Elec       q    Type
REMARK                         _______ _______ _______ _____ _____    ______ ____
ROOT
ATOM      1  C   UNL     1      -8.326   0.886 128.804  0.00  0.00    +0.000 C 
ATOM      2  C   UNL     1      -8.402   1.793 129.890  0.00  0.00    +0.000 C 
ATOM      3  C   UNL     1      -7.110   1.638 129.178  0.00  0.00    +0.000 C 
ATOM      4  C   UNL     1      -7.165   0.739 127.266  0.00  0.00    +0.000 C 
ATOM      5  C   UNL     1      -7.312   2.057 127.698  0.00  0.00    +0.000 C 
ATOM      6  C   UNL     1      -8.147   3.114 127.086  0.00  0.00    +0.000 C 
ATOM      7  C   UNL     1      -5.443   2.000 127.897  0.00  0.00    +0.000 C 
ATOM      8  C   UNL     1      -4.905   0.443 128.367  0.00  0.00    +0.000 C 
ATOM      9  C   UNL     1      -5.671  -0.407 129.579  0.00  0.00    +0.000 C 
ATOM     10  C   UNL     1      -7.326  -0.606 129.277  0.00  0.00    +0.000 C 
ATOM     11  C   UNL     1      -8.068  -1.258 130.425  0.00  0.00    +0.000 C 
ATOM     12  C   UNL     1      -7.390  -2.517 130.882  0.00  0.00    +0.000 C 
ATOM     13  C   UNL     1      -5.922  -2.389 131.151  0.00  0.00    +0.000 C 
ATOM     14  C   UNL     1      -5.400  -2.970 132.238  0.00  0.00    +0.000 C 
ATOM     15  C   UNL     1      -3.944  -3.091 132.199  0.00  0.00    +0.000 C 
ATOM     16  O   UNL     1      -3.309  -3.888 131.511  0.00  0.00    +0.000 OA
ATOM     17  C   UNL     1      -3.299  -1.875 132.628  0.00  0.00    +0.000 C 
ATOM     18  C   UNL     1      -3.551  -1.258 131.056  0.00  0.00    +0.000 C 
ATOM     19  C   UNL     1      -4.998  -1.709 130.139  0.00  0.00    +0.000 C 
ATOM     20  C   UNL     1      -4.927  -2.667 128.921  0.00  0.00    +0.000 C 
ENDROOT
BRANCH   4  21
ATOM     21  C   UNL     1      -6.491   1.228 125.596  0.00  0.00    +0.000 C 
ATOM     22  O   UNL     1      -6.026   0.383 124.797  0.00  0.00    +0.000 OA
BRANCH  21  23
ATOM     23  C   UNL     1      -6.299   2.746 124.977  0.00  0.00    +0.000 C 
BRANCH  23  24
ATOM     24  O   UNL     1      -6.350   2.708 123.411  0.00  0.00    +0.000 OA
BRANCH  24  25
ATOM     25  C   UNL     1      -5.963   3.783 122.631  0.00  0.00    +0.000 C 
ATOM     26  O   UNL     1      -5.465   4.799 123.105  0.00  0.00    +0.000 OA
BRANCH  25  27
ATOM     27  C   UNL     1      -6.204   3.625 121.096  0.00  0.00    +0.000 C 
ATOM     28  C   UNL     1      -5.411   4.656 120.259  0.00  0.00    +0.000 C 
ENDBRANCH  25  27
ENDBRANCH  24  25
ENDBRANCH  23  24
ENDBRANCH  21  23
ENDBRANCH   4  21
BRANCH   8  29
ATOM     29  O   UNL     1      -4.874  -0.318 127.142  0.00  0.00    +0.000 OA
ATOM     30  H   UNL     1      -4.380  -1.150 127.257  0.00  0.00    +0.000 HD
ENDBRANCH   8  29
BRANCH   4  31
ATOM     31  O   UNL     1      -8.617   0.378 126.576  0.00  0.00    +0.000 OA
BRANCH  31  32
ATOM     32  C   UNL     1      -8.934  -0.799 125.939  0.00  0.00    +0.000 C 
ATOM     33  O   UNL     1      -9.771  -0.889 125.049  0.00  0.00    +0.000 OA
BRANCH  32  34
ATOM     34  C   UNL     1      -8.132  -2.045 126.243  0.00  0.00    +0.000 C 
BRANCH  34  35
ATOM     35  C   UNL     1      -9.171  -3.157 126.584  0.00  0.00    +0.000 C 
ATOM     36  C   UNL     1      -8.863  -3.943 127.838  0.00  0.00    +0.000 C 
ENDBRANCH  34  35
ENDBRANCH  32  34
ENDBRANCH  31  32
ENDBRANCH   4  31
TORSDOF 10
ENDMDL
MODEL 8
REMARK VINA RESULT:      -7.5      1.915      2.620
REMARK  Name = Hydrocortisone probutate
REMARK  14 active torsions:
REMARK  status: ('A' for Active; 'I' for Inactive)
REMARK    1  A    between atoms: C_5  and  O_6
REMARK    2  A    between atoms: C_5  and  C_12
REMARK    3  A    between atoms: O_6  and  C_7
REMARK    4  A    between atoms: C_7  and  C_9
REMARK    5  A    between atoms: C_9  and  C_10
REMARK    6  A    between atoms: C_10  and  C_11
REMARK    7  A    between atoms: C_12  and  C_14
REMARK    8  A    between atoms: C_14  and  O_15
REMARK    9  A    between atoms: O_15  and  C_16
REMARK   10  A    between atoms: C_16  and  C_18
REMARK   11  A    between atoms: C_18  and  C_19
REMARK   12  A    between atoms: C_20  and  C_21
REMARK   13  A    between atoms: C_23  and  O_24
REMARK   14  A    between atoms: C_37  and  C_38
REMARK                            x       y       z     vdW  Elec       q    Type
REMARK                         _______ _______ _______ _____ _____    ______ ____
ROOT
ATOM      1  C   UNL     1      -6.965   3.650 133.304  0.00  0.00    +0.000 C 
ATOM      2  C   UNL     1      -6.969   4.239 134.593  0.00  0.00    +0.000 C 
ATOM      3  C   UNL     1      -7.027   5.123 133.403  0.00  0.00    +0.000 C 
ATOM      4  C   UNL     1      -7.579   4.233 131.567  0.00  0.00    +0.000 C 
ATOM      5  C   UNL     1      -8.318   4.794 132.609  0.00  0.00    +0.000 C 
ATOM      6  C   UNL     1      -9.671   4.402 133.061  0.00  0.00    +0.000 C 
ATOM      7  C   UNL     1      -7.749   6.431 131.879  0.00  0.00    +0.000 C 
ATOM      8  C   UNL     1      -6.176   6.310 131.208  0.00  0.00    +0.000 C 
ATOM      9  C   UNL     1      -4.942   5.548 132.029  0.00  0.00    +0.000 C 
ATOM     10  C   UNL     1      -5.341   3.959 132.459  0.00  0.00    +0.000 C 
ATOM     11  C   UNL     1      -4.289   3.291 133.320  0.00  0.00    +0.000 C 
ATOM     12  C   UNL     1      -2.917   3.421 132.724  0.00  0.00    +0.000 C 
ATOM     13  C   UNL     1      -2.527   4.810 132.320  0.00  0.00    +0.000 C 
ATOM     14  C   UNL     1      -1.295   5.254 132.597  0.00  0.00    +0.000 C 
ATOM     15  C   UNL     1      -0.916   6.449 131.847  0.00  0.00    +0.000 C 
ATOM     16  O   UNL     1      -0.623   6.484 130.654  0.00  0.00    +0.000 OA
ATOM     17  C   UNL     1      -1.412   7.648 132.477  0.00  0.00    +0.000 C 
ATOM     18  C   UNL     1      -2.920   7.343 131.736  0.00  0.00    +0.000 C 
ATOM     19  C   UNL     1      -3.474   5.678 131.490  0.00  0.00    +0.000 C 
ATOM     20  C   UNL     1      -3.517   5.032 130.081  0.00  0.00    +0.000 C 
ENDROOT
BRANCH   4  21
ATOM     21  C   UNL     1      -8.855   4.649 130.269  0.00  0.00    +0.000 C 
ATOM     22  O   UNL     1      -8.547   5.218 129.197  0.00  0.00    +0.000 OA
BRANCH  21  23
ATOM     23  C   UNL     1     -10.492   4.459 130.350  0.00  0.00    +0.000 C 
BRANCH  23  24
ATOM     24  O   UNL     1     -11.217   5.654 129.643  0.00  0.00    +0.000 OA
BRANCH  24  25
ATOM     25  C   UNL     1     -11.839   6.667 130.351  0.00  0.00    +0.000 C 
ATOM     26  O   UNL     1     -12.321   6.494 131.465  0.00  0.00    +0.000 OA
BRANCH  25  27
ATOM     27  C   UNL     1     -11.897   8.054 129.636  0.00  0.00    +0.000 C 
ATOM     28  C   UNL     1     -10.732   8.260 128.639  0.00  0.00    +0.000 C 
ENDBRANCH  25  27
ENDBRANCH  24  25
ENDBRANCH  23  24
ENDBRANCH  21  23
ENDBRANCH   4  21
BRANCH   8  29
ATOM     29  O   UNL     1      -6.378   5.715 129.910  0.00  0.00    +0.000 OA
ATOM     30  H   UNL     1      -5.694   5.047 129.718  0.00  0.00    +0.000 HD
ENDBRANCH   8  29
BRANCH   4  31
ATOM     31  O   UNL     1      -8.058   2.658 131.537  0.00  0.00    +0.000 OA
BRANCH  31  32
ATOM     32  C   UNL     1      -7.757   1.744 130.554  0.00  0.00    +0.000 C 
ATOM     33  O   UNL     1      -8.476   0.797 130.259  0.00  0.00    +0.000 OA
BRANCH  32  34
ATOM     34  C   UNL     1      -6.538   1.965 129.685  0.00  0.00    +0.000 C 
BRANCH  34  35
ATOM     35  C   UNL     1      -5.401   1.097 130.304  0.00  0.00    +0.000 C 
ATOM     36  C   UNL     1      -4.034   1.328 129.702  0.00  0.00    +0.000 C 
ENDBRANCH  34  35
ENDBRANCH  32  34
ENDBRANCH  31  32
ENDBRANCH   4  31
TORSDOF 10
ENDMDL
MODEL 9
REMARK VINA RESULT:      -7.5      6.544     10.850
REMARK  Name = Hydrocortisone probutate
REMARK  14 active torsions:
REMARK  status: ('A' for Active; 'I' for Inactive)
REMARK    1  A    between atoms: C_5  and  O_6
REMARK    2  A    between atoms: C_5  and  C_12
REMARK    3  A    between atoms: O_6  and  C_7
REMARK    4  A    between atoms: C_7  and  C_9
REMARK    5  A    between atoms: C_9  and  C_10
REMARK    6  A    between atoms: C_10  and  C_11
REMARK    7  A    between atoms: C_12  and  C_14
REMARK    8  A    between atoms: C_14  and  O_15
REMARK    9  A    between atoms: O_15  and  C_16
REMARK   10  A    between atoms: C_16  and  C_18
REMARK   11  A    between atoms: C_18  and  C_19
REMARK   12  A    between atoms: C_20  and  C_21
REMARK   13  A    between atoms: C_23  and  O_24
REMARK   14  A    between atoms: C_37  and  C_38
REMARK                            x       y       z     vdW  Elec       q    Type
REMARK                         _______ _______ _______ _____ _____    ______ ____
ROOT
ATOM      1  C   UNL     1      -6.054  -4.190 131.194  0.00  0.00    +0.000 C 
ATOM      2  C   UNL     1      -5.637  -5.459 130.722  0.00  0.00    +0.000 C 
ATOM      3  C   UNL     1      -4.854  -4.260 130.335  0.00  0.00    +0.000 C 
ATOM      4  C   UNL     1      -5.148  -2.506 131.477  0.00  0.00    +0.000 C 
ATOM      5  C   UNL     1      -4.296  -3.601 131.623  0.00  0.00    +0.000 C 
ATOM      6  C   UNL     1      -3.800  -4.189 132.887  0.00  0.00    +0.000 C 
ATOM      7  C   UNL     1      -3.317  -2.783 130.242  0.00  0.00    +0.000 C 
ATOM      8  C   UNL     1      -4.344  -1.968 129.138  0.00  0.00    +0.000 C 
ATOM      9  C   UNL     1      -5.732  -2.684 128.558  0.00  0.00    +0.000 C 
ATOM     10  C   UNL     1      -6.765  -3.186 129.803  0.00  0.00    +0.000 C 
ATOM     11  C   UNL     1      -7.969  -3.958 129.305  0.00  0.00    +0.000 C 
ATOM     12  C   UNL     1      -8.678  -3.230 128.199  0.00  0.00    +0.000 C 
ATOM     13  C   UNL     1      -7.800  -2.760 127.080  0.00  0.00    +0.000 C 
ATOM     14  C   UNL     1      -8.210  -2.908 125.815  0.00  0.00    +0.000 C 
ATOM     15  C   UNL     1      -7.463  -2.098 124.854  0.00  0.00    +0.000 C 
ATOM     16  O   UNL     1      -7.566  -0.882 124.709  0.00  0.00    +0.000 OA
ATOM     17  C   UNL     1      -6.237  -2.745 124.457  0.00  0.00    +0.000 C 
ATOM     18  C   UNL     1      -5.531  -2.158 125.897  0.00  0.00    +0.000 C 
ATOM     19  C   UNL     1      -6.501  -2.005 127.370  0.00  0.00    +0.000 C 
ATOM     20  C   UNL     1      -6.930  -0.621 127.925  0.00  0.00    +0.000 C 
ENDROOT
BRANCH   4  21
ATOM     21  C   UNL     1      -3.990  -1.327 132.344  0.00  0.00    +0.000 C 
ATOM     22  O   UNL     1      -3.764  -0.177 131.903  0.00  0.00    +0.000 OA
BRANCH  21  23
ATOM     23  C   UNL     1      -3.050  -1.610 133.670  0.00  0.00    +0.000 C 
BRANCH  23  24
ATOM     24  O   UNL     1      -1.535  -1.413 133.319  0.00  0.00    +0.000 OA
BRANCH  24  25
ATOM     25  C   UNL     1      -0.520  -1.797 134.176  0.00  0.00    +0.000 C 
ATOM     26  O   UNL     1       0.592  -2.128 133.776  0.00  0.00    +0.000 OA
BRANCH  25  27
ATOM     27  C   UNL     1      -0.878  -1.788 135.696  0.00  0.00    +0.000 C 
ATOM     28  C   UNL     1       0.362  -1.972 136.602  0.00  0.00    +0.000 C 
ENDBRANCH  25  27
ENDBRANCH  24  25
ENDBRANCH  23  24
ENDBRANCH  21  23
ENDBRANCH   4  21
BRANCH   8  29
ATOM     29  O   UNL     1      -4.640  -0.709 129.776  0.00  0.00    +0.000 OA
ATOM     30  H   UNL     1      -3.864  -0.365 130.255  0.00  0.00    +0.000 HD
ENDBRANCH   8  29
BRANCH   4  31
ATOM     31  O   UNL     1      -6.103  -2.558 132.818  0.00  0.00    +0.000 OA
BRANCH  31  32
ATOM     32  C   UNL     1      -7.234  -1.805 133.030  0.00  0.00    +0.000 C 
ATOM     33  O   UNL     1      -8.170  -2.162 133.736  0.00  0.00    +0.000 OA
BRANCH  32  34
ATOM     34  C   UNL     1      -7.303  -0.399 132.475  0.00  0.00    +0.000 C 
BRANCH  34  35
ATOM     35  C   UNL     1      -8.638  -0.312 131.676  0.00  0.00    +0.000 C 
ATOM     36  C   UNL     1      -9.391   0.988 131.847  0.00  0.00    +0.000 C 
ENDBRANCH  34  35
ENDBRANCH  32  34
ENDBRANCH  31  32
ENDBRANCH   4  31
TORSDOF 10
ENDMDL
