MODEL 1
REMARK VINA RESULT:      -8.6      0.000      0.000
REMARK  Name = Hydrocortisone succinate
REMARK  12 active torsions:
REMARK  status: ('A' for Active; 'I' for Inactive)
REMARK    1  A    between atoms: C_5  and  O_6
REMARK    2  A    between atoms: C_5  and  C_7
REMARK    3  A    between atoms: C_7  and  C_9
REMARK    4  A    between atoms: C_9  and  O_10
REMARK    5  A    between atoms: O_10  and  C_11
REMARK    6  A    between atoms: C_11  and  C_13
REMARK    7  A    between atoms: C_13  and  C_14
REMARK    8  A    between atoms: C_14  and  C_15
REMARK    9  A    between atoms: C_15  and  O_16
REMARK   10  A    between atoms: C_18  and  C_19
REMARK   11  A    between atoms: C_21  and  O_22
REMARK   12  A    between atoms: C_35  and  C_36
REMARK                            x       y       z     vdW  Elec       q    Type
REMARK                         _______ _______ _______ _____ _____    ______ ____
ROOT
ATOM      1  C   UNL     1      -8.966   2.111 131.490  0.00  0.00    +0.000 C 
ATOM      2  C   UNL     1      -8.002   1.468 132.306  0.00  0.00    +0.000 C 
ATOM      3  C   UNL     1      -7.685   2.869 131.882  0.00  0.00    +0.000 C 
ATOM      4  C   UNL     1      -9.279   4.064 131.195  0.00  0.00    +0.000 C 
ATOM      5  C   UNL     1      -8.799   3.759 132.457  0.00  0.00    +0.000 C 
ATOM      6  C   UNL     1      -9.515   3.737 133.746  0.00  0.00    +0.000 C 
ATOM      7  C   UNL     1      -7.462   4.974 131.891  0.00  0.00    +0.000 C 
ATOM      8  C   UNL     1      -7.146   4.811 130.200  0.00  0.00    +0.000 C 
ATOM      9  C   UNL     1      -6.983   3.310 129.504  0.00  0.00    +0.000 C 
ATOM     10  C   UNL     1      -8.355   2.282 129.778  0.00  0.00    +0.000 C 
ATOM     11  C   UNL     1      -8.074   0.873 129.298  0.00  0.00    +0.000 C 
ATOM     12  C   UNL     1      -7.559   0.850 127.883  0.00  0.00    +0.000 C 
ATOM     13  C   UNL     1      -6.402   1.756 127.587  0.00  0.00    +0.000 C 
ATOM     14  C   UNL     1      -5.398   1.322 126.811  0.00  0.00    +0.000 C 
ATOM     15  C   UNL     1      -4.539   2.386 126.292  0.00  0.00    +0.000 C 
ATOM     16  O   UNL     1      -4.839   3.183 125.407  0.00  0.00    +0.000 OA
ATOM     17  C   UNL     1      -3.520   2.757 127.241  0.00  0.00    +0.000 C 
ATOM     18  C   UNL     1      -4.709   3.723 128.021  0.00  0.00    +0.000 C 
ATOM     19  C   UNL     1      -6.413   3.211 128.047  0.00  0.00    +0.000 C 
ATOM     20  C   UNL     1      -7.490   3.926 127.195  0.00  0.00    +0.000 C 
ENDROOT
BRANCH   4  21
ATOM     21  O   UNL     1     -10.635   3.461 131.110  0.00  0.00    +0.000 OA
ATOM     22  H   UNL     1     -11.330   4.051 131.437  0.00  0.00    +0.000 HD
ENDBRANCH   4  21
BRANCH   4  23
ATOM     23  C   UNL     1      -9.970   5.730 131.635  0.00  0.00    +0.000 C 
ATOM     24  O   UNL     1      -9.292   6.614 132.196  0.00  0.00    +0.000 OA
BRANCH  23  25
ATOM     25  C   UNL     1     -11.545   6.205 131.471  0.00  0.00    +0.000 C 
BRANCH  25  26
ATOM     26  O   UNL     1     -12.023   5.944 130.031  0.00  0.00    +0.000 OA
BRANCH  26  27
ATOM     27  C   UNL     1     -12.569   6.933 129.240  0.00  0.00    +0.000 C 
ATOM     28  O   UNL     1     -13.618   6.796 128.621  0.00  0.00    +0.000 OA
BRANCH  27  29
ATOM     29  C   UNL     1     -11.735   8.245 129.191  0.00  0.00    +0.000 C 
BRANCH  29  30
ATOM     30  C   UNL     1     -10.912   8.399 127.890  0.00  0.00    +0.000 C 
BRANCH  30  31
ATOM     31  C   UNL     1     -10.700   7.166 127.021  0.00  0.00    +0.000 C 
ATOM     32  O   UNL     1      -9.715   6.446 127.144  0.00  0.00    +0.000 OA
BRANCH  31  33
ATOM     33  O   UNL     1     -11.638   6.882 126.100  0.00  0.00    +0.000 OA
ATOM     34  H   UNL     1     -11.614   7.358 125.254  0.00  0.00    +0.000 HD
ENDBRANCH  31  33
ENDBRANCH  30  31
ENDBRANCH  29  30
ENDBRANCH  27  29
ENDBRANCH  26  27
ENDBRANCH  25  26
ENDBRANCH  23  25
ENDBRANCH   4  23
BRANCH   8  35
ATOM     35  O   UNL     1      -8.203   5.547 129.548  0.00  0.00    +0.000 OA
ATOM     36  H   UNL     1      -7.938   6.477 129.427  0.00  0.00    +0.000 HD
ENDBRANCH   8  35
TORSDOF 10
ENDMDL
MODEL 2
REMARK VINA RESULT:      -8.5      4.914      6.792
REMARK  Name = Hydrocortisone succinate
REMARK  12 active torsions:
REMARK  status: ('A' for Active; 'I' for Inactive)
REMARK    1  A    between atoms: C_5  and  O_6
REMARK    2  A    between atoms: C_5  and  C_7
REMARK    3  A    between atoms: C_7  and  C_9
REMARK    4  A    between atoms: C_9  and  O_10
REMARK    5  A    between atoms: O_10  and  C_11
REMARK    6  A    between atoms: C_11  and  C_13
REMARK    7  A    between atoms: C_13  and  C_14
REMARK    8  A    between atoms: C_14  and  C_15
REMARK    9  A    between atoms: C_15  and  O_16
REMARK   10  A    between atoms: C_18  and  C_19
REMARK   11  A    between atoms: C_21  and  O_22
REMARK   12  A    between atoms: C_35  and  C_36
REMARK                            x       y       z     vdW  Elec       q    Type
REMARK                         _______ _______ _______ _____ _____    ______ ____
ROOT
ATOM      1  C   UNL     1      -7.316  -2.776 130.388  0.00  0.00    +0.000 C 
ATOM      2  C   UNL     1      -6.399  -3.855 130.410  0.00  0.00    +0.000 C 
ATOM      3  C   UNL     1      -5.897  -2.569 129.829  0.00  0.00    +0.000 C 
ATOM      4  C   UNL     1      -6.960  -0.810 130.291  0.00  0.00    +0.000 C 
ATOM      5  C   UNL     1      -5.978  -1.525 130.954  0.00  0.00    +0.000 C 
ATOM      6  C   UNL     1      -5.699  -1.605 132.399  0.00  0.00    +0.000 C 
ATOM      7  C   UNL     1      -4.926  -0.701 129.612  0.00  0.00    +0.000 C 
ATOM      8  C   UNL     1      -5.798  -0.574 128.126  0.00  0.00    +0.000 C 
ATOM      9  C   UNL     1      -6.686  -1.855 127.546  0.00  0.00    +0.000 C 
ATOM     10  C   UNL     1      -7.868  -2.430 128.682  0.00  0.00    +0.000 C 
ATOM     11  C   UNL     1      -8.508  -3.711 128.187  0.00  0.00    +0.000 C 
ATOM     12  C   UNL     1      -9.019  -3.580 126.778  0.00  0.00    +0.000 C 
ATOM     13  C   UNL     1      -8.047  -3.044 125.769  0.00  0.00    +0.000 C 
ATOM     14  C   UNL     1      -7.990  -3.589 124.546  0.00  0.00    +0.000 C 
ATOM     15  C   UNL     1      -7.300  -2.765 123.554  0.00  0.00    +0.000 C 
ATOM     16  O   UNL     1      -7.740  -1.737 123.044  0.00  0.00    +0.000 OA
ATOM     17  C   UNL     1      -5.872  -2.956 123.604  0.00  0.00    +0.000 C 
ATOM     18  C   UNL     1      -5.851  -1.863 124.931  0.00  0.00    +0.000 C 
ATOM     19  C   UNL     1      -7.215  -1.802 126.071  0.00  0.00    +0.000 C 
ATOM     20  C   UNL     1      -8.205  -0.613 126.092  0.00  0.00    +0.000 C 
ENDROOT
BRANCH   4  21
ATOM     21  O   UNL     1      -8.186  -0.918 131.126  0.00  0.00    +0.000 OA
ATOM     22  H   UNL     1      -8.381  -1.829 131.390  0.00  0.00    +0.000 HD
ENDBRANCH   4  21
BRANCH   4  23
ATOM     23  C   UNL     1      -6.531   0.847 131.010  0.00  0.00    +0.000 C 
ATOM     24  O   UNL     1      -7.394   1.693 131.313  0.00  0.00    +0.000 OA
BRANCH  23  25
ATOM     25  C   UNL     1      -5.006   1.453 131.215  0.00  0.00    +0.000 C 
BRANCH  25  26
ATOM     26  O   UNL     1      -4.958   2.917 130.740  0.00  0.00    +0.000 OA
BRANCH  26  27
ATOM     27  C   UNL     1      -4.635   3.267 129.446  0.00  0.00    +0.000 C 
ATOM     28  O   UNL     1      -5.412   3.152 128.506  0.00  0.00    +0.000 OA
BRANCH  27  29
ATOM     29  C   UNL     1      -3.190   3.815 129.274  0.00  0.00    +0.000 C 
BRANCH  29  30
ATOM     30  C   UNL     1      -2.814   4.099 127.801  0.00  0.00    +0.000 C 
BRANCH  30  31
ATOM     31  C   UNL     1      -2.410   2.924 126.920  0.00  0.00    +0.000 C 
ATOM     32  O   UNL     1      -1.249   2.743 126.570  0.00  0.00    +0.000 OA
BRANCH  31  33
ATOM     33  O   UNL     1      -3.377   2.073 126.531  0.00  0.00    +0.000 OA
ATOM     34  H   UNL     1      -4.300   2.370 126.579  0.00  0.00    +0.000 HD
ENDBRANCH  31  33
ENDBRANCH  30  31
ENDBRANCH  29  30
ENDBRANCH  27  29
ENDBRANCH  26  27
ENDBRANCH  25  26
ENDBRANCH  23  25
ENDBRANCH   4  23
BRANCH   8  35
ATOM     35  O   UNL     1      -6.645   0.584 128.284  0.00  0.00    +0.000 OA
ATOM     36  H   UNL     1      -6.667   1.099 127.457  0.00  0.00    +0.000 HD
ENDBRANCH   8  35
TORSDOF 10
ENDMDL
MODEL 3
REMARK VINA RESULT:      -8.5      3.177      4.134
REMARK  Name = Hydrocortisone succinate
REMARK  12 active torsions:
REMARK  status: ('A' for Active; 'I' for Inactive)
REMARK    1  A    between atoms: C_5  and  O_6
REMARK    2  A    between atoms: C_5  and  C_7
REMARK    3  A    between atoms: C_7  and  C_9
REMARK    4  A    between atoms: C_9  and  O_10
REMARK    5  A    between atoms: O_10  and  C_11
REMARK    6  A    between atoms: C_11  and  C_13
REMARK    7  A    between atoms: C_13  and  C_14
REMARK    8  A    between atoms: C_14  and  C_15
REMARK    9  A    between atoms: C_15  and  O_16
REMARK   10  A    between atoms: C_18  and  C_19
REMARK   11  A    between atoms: C_21  and  O_22
REMARK   12  A    between atoms: C_35  and  C_36
REMARK                            x       y       z     vdW  Elec       q    Type
REMARK                         _______ _______ _______ _____ _____    ______ ____
ROOT
ATOM      1  C   UNL     1      -7.011   3.418 132.988  0.00  0.00    +0.000 C 
ATOM      2  C   UNL     1      -7.015   3.881 134.328  0.00  0.00    +0.000 C 
ATOM      3  C   UNL     1      -7.065   4.932 133.262  0.00  0.00    +0.000 C 
ATOM      4  C   UNL     1      -7.649   4.333 131.328  0.00  0.00    +0.000 C 
ATOM      5  C   UNL     1      -8.356   4.682 132.466  0.00  0.00    +0.000 C 
ATOM      6  C   UNL     1      -9.711   4.275 132.882  0.00  0.00    +0.000 C 
ATOM      7  C   UNL     1      -7.777   6.396 131.910  0.00  0.00    +0.000 C 
ATOM      8  C   UNL     1      -6.198   6.327 131.215  0.00  0.00    +0.000 C 
ATOM      9  C   UNL     1      -4.986   5.446 131.937  0.00  0.00    +0.000 C 
ATOM     10  C   UNL     1      -5.412   3.781 132.183  0.00  0.00    +0.000 C 
ATOM     11  C   UNL     1      -4.362   3.075 133.016  0.00  0.00    +0.000 C 
ATOM     12  C   UNL     1      -2.975   3.282 132.470  0.00  0.00    +0.000 C 
ATOM     13  C   UNL     1      -2.576   4.702 132.198  0.00  0.00    +0.000 C 
ATOM     14  C   UNL     1      -1.343   5.120 132.516  0.00  0.00    +0.000 C 
ATOM     15  C   UNL     1      -0.951   6.376 131.876  0.00  0.00    +0.000 C 
ATOM     16  O   UNL     1      -0.662   6.517 130.690  0.00  0.00    +0.000 OA
ATOM     17  C   UNL     1      -1.427   7.519 132.613  0.00  0.00    +0.000 C 
ATOM     18  C   UNL     1      -2.947   7.283 131.845  0.00  0.00    +0.000 C 
ATOM     19  C   UNL     1      -3.511   5.644 131.444  0.00  0.00    +0.000 C 
ATOM     20  C   UNL     1      -3.554   5.133 129.984  0.00  0.00    +0.000 C 
ENDROOT
BRANCH   4  21
ATOM     21  O   UNL     1      -7.937   2.895 131.085  0.00  0.00    +0.000 OA
ATOM     22  H   UNL     1      -7.987   2.379 131.902  0.00  0.00    +0.000 HD
ENDBRANCH   4  21
BRANCH   4  23
ATOM     23  C   UNL     1      -8.942   4.871 130.109  0.00  0.00    +0.000 C 
ATOM     24  O   UNL     1      -8.996   4.428 128.946  0.00  0.00    +0.000 OA
BRANCH  23  25
ATOM     25  C   UNL     1     -10.069   6.058 130.346  0.00  0.00    +0.000 C 
BRANCH  25  26
ATOM     26  O   UNL     1     -11.374   5.693 129.614  0.00  0.00    +0.000 OA
BRANCH  26  27
ATOM     27  C   UNL     1     -12.455   6.547 129.557  0.00  0.00    +0.000 C 
ATOM     28  O   UNL     1     -13.076   6.912 130.548  0.00  0.00    +0.000 OA
BRANCH  27  29
ATOM     29  C   UNL     1     -12.832   7.005 128.119  0.00  0.00    +0.000 C 
BRANCH  29  30
ATOM     30  C   UNL     1     -11.839   8.029 127.522  0.00  0.00    +0.000 C 
BRANCH  30  31
ATOM     31  C   UNL     1     -10.804   7.531 126.522  0.00  0.00    +0.000 C 
ATOM     32  O   UNL     1     -10.736   7.975 125.382  0.00  0.00    +0.000 OA
BRANCH  31  33
ATOM     33  O   UNL     1      -9.951   6.574 126.931  0.00  0.00    +0.000 OA
ATOM     34  H   UNL     1      -9.043   6.832 127.160  0.00  0.00    +0.000 HD
ENDBRANCH  31  33
ENDBRANCH  30  31
ENDBRANCH  29  30
ENDBRANCH  27  29
ENDBRANCH  26  27
ENDBRANCH  25  26
ENDBRANCH  23  25
ENDBRANCH   4  23
BRANCH   8  35
ATOM     35  O   UNL     1      -6.402   5.870 129.861  0.00  0.00    +0.000 OA
ATOM     36  H   UNL     1      -7.293   6.118 129.554  0.00  0.00    +0.000 HD
ENDBRANCH   8  35
TORSDOF 10
ENDMDL
MODEL 4
REMARK VINA RESULT:      -8.4      3.892      6.072
REMARK  Name = Hydrocortisone succinate
REMARK  12 active torsions:
REMARK  status: ('A' for Active; 'I' for Inactive)
REMARK    1  A    between atoms: C_5  and  O_6
REMARK    2  A    between atoms: C_5  and  C_7
REMARK    3  A    between atoms: C_7  and  C_9
REMARK    4  A    between atoms: C_9  and  O_10
REMARK    5  A    between atoms: O_10  and  C_11
REMARK    6  A    between atoms: C_11  and  C_13
REMARK    7  A    between atoms: C_13  and  C_14
REMARK    8  A    between atoms: C_14  and  C_15
REMARK    9  A    between atoms: C_15  and  O_16
REMARK   10  A    between atoms: C_18  and  C_19
REMARK   11  A    between atoms: C_21  and  O_22
REMARK   12  A    between atoms: C_35  and  C_36
REMARK                            x       y       z     vdW  Elec       q    Type
REMARK                         _______ _______ _______ _____ _____    ______ ____
ROOT
ATOM      1  C   UNL     1      -7.188  -3.195 130.372  0.00  0.00    +0.000 C 
ATOM      2  C   UNL     1      -6.276  -4.275 130.277  0.00  0.00    +0.000 C 
ATOM      3  C   UNL     1      -5.772  -2.939 129.824  0.00  0.00    +0.000 C 
ATOM      4  C   UNL     1      -6.822  -1.230 130.470  0.00  0.00    +0.000 C 
ATOM      5  C   UNL     1      -5.838  -2.012 131.048  0.00  0.00    +0.000 C 
ATOM      6  C   UNL     1      -5.546  -2.238 132.476  0.00  0.00    +0.000 C 
ATOM      7  C   UNL     1      -4.794  -1.063 129.786  0.00  0.00    +0.000 C 
ATOM      8  C   UNL     1      -5.678  -0.784 128.328  0.00  0.00    +0.000 C 
ATOM      9  C   UNL     1      -6.578  -1.997 127.632  0.00  0.00    +0.000 C 
ATOM     10  C   UNL     1      -7.753  -2.678 128.714  0.00  0.00    +0.000 C 
ATOM     11  C   UNL     1      -8.403  -3.900 128.100  0.00  0.00    +0.000 C 
ATOM     12  C   UNL     1      -8.926  -3.626 126.715  0.00  0.00    +0.000 C 
ATOM     13  C   UNL     1      -7.961  -2.996 125.756  0.00  0.00    +0.000 C 
ATOM     14  C   UNL     1      -7.917  -3.416 124.484  0.00  0.00    +0.000 C 
ATOM     15  C   UNL     1      -7.231  -2.499 123.574  0.00  0.00    +0.000 C 
ATOM     16  O   UNL     1      -7.670  -1.424 123.173  0.00  0.00    +0.000 OA
ATOM     17  C   UNL     1      -5.804  -2.701 123.591  0.00  0.00    +0.000 C 
ATOM     18  C   UNL     1      -5.765  -1.747 125.021  0.00  0.00    +0.000 C 
ATOM     19  C   UNL     1      -7.119  -1.794 126.174  0.00  0.00    +0.000 C 
ATOM     20  C   UNL     1      -8.103  -0.608 126.323  0.00  0.00    +0.000 C 
ENDROOT
BRANCH   4  21
ATOM     21  O   UNL     1      -8.041  -1.417 131.301  0.00  0.00    +0.000 OA
ATOM     22  H   UNL     1      -8.471  -2.271 131.151  0.00  0.00    +0.000 HD
ENDBRANCH   4  21
BRANCH   4  23
ATOM     23  C   UNL     1      -6.378   0.344 131.347  0.00  0.00    +0.000 C 
ATOM     24  O   UNL     1      -5.419   1.060 131.000  0.00  0.00    +0.000 OA
BRANCH  23  25
ATOM     25  C   UNL     1      -7.080   0.920 132.729  0.00  0.00    +0.000 C 
BRANCH  25  26
ATOM     26  O   UNL     1      -8.127   1.993 132.376  0.00  0.00    +0.000 OA
BRANCH  26  27
ATOM     27  C   UNL     1      -9.387   1.675 131.916  0.00  0.00    +0.000 C 
ATOM     28  O   UNL     1      -9.825   0.532 131.890  0.00  0.00    +0.000 OA
BRANCH  27  29
ATOM     29  C   UNL     1     -10.213   2.897 131.421  0.00  0.00    +0.000 C 
BRANCH  29  30
ATOM     30  C   UNL     1      -9.540   3.659 130.255  0.00  0.00    +0.000 C 
BRANCH  30  31
ATOM     31  C   UNL     1      -8.595   2.890 129.341  0.00  0.00    +0.000 C 
ATOM     32  O   UNL     1      -9.007   2.161 128.445  0.00  0.00    +0.000 OA
BRANCH  31  33
ATOM     33  O   UNL     1      -7.273   3.033 129.546  0.00  0.00    +0.000 OA
ATOM     34  H   UNL     1      -6.722   3.345 128.809  0.00  0.00    +0.000 HD
ENDBRANCH  31  33
ENDBRANCH  30  31
ENDBRANCH  29  30
ENDBRANCH  27  29
ENDBRANCH  26  27
ENDBRANCH  25  26
ENDBRANCH  23  25
ENDBRANCH   4  23
BRANCH   8  35
ATOM     35  O   UNL     1      -6.517   0.356 128.610  0.00  0.00    +0.000 OA
ATOM     36  H   UNL     1      -7.326   0.320 128.066  0.00  0.00    +0.000 HD
ENDBRANCH   8  35
TORSDOF 10
ENDMDL
MODEL 5
REMARK VINA RESULT:      -8.4      3.098      4.661
REMARK  Name = Hydrocortisone succinate
REMARK  12 active torsions:
REMARK  status: ('A' for Active; 'I' for Inactive)
REMARK    1  A    between atoms: C_5  and  O_6
REMARK    2  A    between atoms: C_5  and  C_7
REMARK    3  A    between atoms: C_7  and  C_9
REMARK    4  A    between atoms: C_9  and  O_10
REMARK    5  A    between atoms: O_10  and  C_11
REMARK    6  A    between atoms: C_11  and  C_13
REMARK    7  A    between atoms: C_13  and  C_14
REMARK    8  A    between atoms: C_14  and  C_15
REMARK    9  A    between atoms: C_15  and  O_16
REMARK   10  A    between atoms: C_18  and  C_19
REMARK   11  A    between atoms: C_21  and  O_22
REMARK   12  A    between atoms: C_35  and  C_36
REMARK                            x       y       z     vdW  Elec       q    Type
REMARK                         _______ _______ _______ _____ _____    ______ ____
ROOT
ATOM      1  C   UNL     1      -5.967   3.359 129.497  0.00  0.00    +0.000 C 
ATOM      2  C   UNL     1      -5.701   2.314 130.417  0.00  0.00    +0.000 C 
ATOM      3  C   UNL     1      -6.376   3.531 130.972  0.00  0.00    +0.000 C 
ATOM      4  C   UNL     1      -7.317   4.831 129.607  0.00  0.00    +0.000 C 
ATOM      5  C   UNL     1      -7.715   3.660 130.228  0.00  0.00    +0.000 C 
ATOM      6  C   UNL     1      -8.699   2.657 129.781  0.00  0.00    +0.000 C 
ATOM      7  C   UNL     1      -7.860   4.861 131.684  0.00  0.00    +0.000 C 
ATOM      8  C   UNL     1      -6.617   6.059 131.631  0.00  0.00    +0.000 C 
ATOM      9  C   UNL     1      -5.042   5.641 131.301  0.00  0.00    +0.000 C 
ATOM     10  C   UNL     1      -4.867   4.784 129.800  0.00  0.00    +0.000 C 
ATOM     11  C   UNL     1      -3.456   4.257 129.645  0.00  0.00    +0.000 C 
ATOM     12  C   UNL     1      -2.424   5.330 129.867  0.00  0.00    +0.000 C 
ATOM     13  C   UNL     1      -2.560   6.128 131.129  0.00  0.00    +0.000 C 
ATOM     14  C   UNL     1      -1.467   6.443 131.838  0.00  0.00    +0.000 C 
ATOM     15  C   UNL     1      -1.673   7.515 132.812  0.00  0.00    +0.000 C 
ATOM     16  O   UNL     1      -1.811   8.707 132.549  0.00  0.00    +0.000 OA
ATOM     17  C   UNL     1      -2.215   7.012 134.049  0.00  0.00    +0.000 C 
ATOM     18  C   UNL     1      -3.758   7.032 133.290  0.00  0.00    +0.000 C 
ATOM     19  C   UNL     1      -3.911   6.698 131.549  0.00  0.00    +0.000 C 
ATOM     20  C   UNL     1      -4.243   7.817 130.532  0.00  0.00    +0.000 C 
ENDROOT
BRANCH   4  21
ATOM     21  O   UNL     1      -7.231   4.522 128.155  0.00  0.00    +0.000 OA
ATOM     22  H   UNL     1      -6.638   3.782 127.963  0.00  0.00    +0.000 HD
ENDBRANCH   4  21
BRANCH   4  23
ATOM     23  C   UNL     1      -9.016   5.557 129.425  0.00  0.00    +0.000 C 
ATOM     24  O   UNL     1      -9.466   5.951 128.331  0.00  0.00    +0.000 OA
BRANCH  23  25
ATOM     25  C   UNL     1     -10.070   5.888 130.655  0.00  0.00    +0.000 C 
BRANCH  25  26
ATOM     26  O   UNL     1     -10.763   7.239 130.400  0.00  0.00    +0.000 OA
BRANCH  26  27
ATOM     27  C   UNL     1     -12.104   7.443 130.650  0.00  0.00    +0.000 C 
ATOM     28  O   UNL     1     -12.742   6.792 131.468  0.00  0.00    +0.000 OA
BRANCH  27  29
ATOM     29  C   UNL     1     -12.748   8.571 129.794  0.00  0.00    +0.000 C 
BRANCH  29  30
ATOM     30  C   UNL     1     -13.238   8.086 128.410  0.00  0.00    +0.000 C 
BRANCH  30  31
ATOM     31  C   UNL     1     -12.198   7.624 127.398  0.00  0.00    +0.000 C 
ATOM     32  O   UNL     1     -12.422   6.721 126.601  0.00  0.00    +0.000 OA
BRANCH  31  33
ATOM     33  O   UNL     1     -11.004   8.246 127.401  0.00  0.00    +0.000 OA
ATOM     34  H   UNL     1     -10.946   9.138 127.020  0.00  0.00    +0.000 HD
ENDBRANCH  31  33
ENDBRANCH  30  31
ENDBRANCH  29  30
ENDBRANCH  27  29
ENDBRANCH  26  27
ENDBRANCH  25  26
ENDBRANCH  23  25
ENDBRANCH   4  23
BRANCH   8  35
ATOM     35  O   UNL     1      -7.079   7.038 130.676  0.00  0.00    +0.000 OA
ATOM     36  H   UNL     1      -8.044   7.154 130.754  0.00  0.00    +0.000 HD
ENDBRANCH   8  35
TORSDOF 10
ENDMDL
MODEL 6
REMARK VINA RESULT:      -8.3      3.563      5.520
REMARK  Name = Hydrocortisone succinate
REMARK  12 active torsions:
REMARK  status: ('A' for Active; 'I' for Inactive)
REMARK    1  A    between atoms: C_5  and  O_6
REMARK    2  A    between atoms: C_5  and  C_7
REMARK    3  A    between atoms: C_7  and  C_9
REMARK    4  A    between atoms: C_9  and  O_10
REMARK    5  A    between atoms: O_10  and  C_11
REMARK    6  A    between atoms: C_11  and  C_13
REMARK    7  A    between atoms: C_13  and  C_14
REMARK    8  A    between atoms: C_14  and  C_15
REMARK    9  A    between atoms: C_15  and  O_16
REMARK   10  A    between atoms: C_18  and  C_19
REMARK   11  A    between atoms: C_21  and  O_22
REMARK   12  A    between atoms: C_35  and  C_36
REMARK                            x       y       z     vdW  Elec       q    Type
REMARK                         _______ _______ _______ _____ _____    ______ ____
ROOT
ATOM      1  C   UNL     1      -7.544  -2.605 130.524  0.00  0.00    +0.000 C 
ATOM      2  C   UNL     1      -6.605  -3.660 130.640  0.00  0.00    +0.000 C 
ATOM      3  C   UNL     1      -6.099  -2.383 130.042  0.00  0.00    +0.000 C 
ATOM      4  C   UNL     1      -7.227  -0.635 130.376  0.00  0.00    +0.000 C 
ATOM      5  C   UNL     1      -6.270  -1.302 131.121  0.00  0.00    +0.000 C 
ATOM      6  C   UNL     1      -6.076  -1.324 132.582  0.00  0.00    +0.000 C 
ATOM      7  C   UNL     1      -5.159  -0.500 129.814  0.00  0.00    +0.000 C 
ATOM      8  C   UNL     1      -5.943  -0.448 128.276  0.00  0.00    +0.000 C 
ATOM      9  C   UNL     1      -6.766  -1.770 127.693  0.00  0.00    +0.000 C 
ATOM     10  C   UNL     1      -8.001  -2.334 128.777  0.00  0.00    +0.000 C 
ATOM     11  C   UNL     1      -8.581  -3.647 128.293  0.00  0.00    +0.000 C 
ATOM     12  C   UNL     1      -9.010  -3.578 126.852  0.00  0.00    +0.000 C 
ATOM     13  C   UNL     1      -7.992  -3.055 125.883  0.00  0.00    +0.000 C 
ATOM     14  C   UNL     1      -7.849  -3.642 124.686  0.00  0.00    +0.000 C 
ATOM     15  C   UNL     1      -7.120  -2.836 123.707  0.00  0.00    +0.000 C 
ATOM     16  O   UNL     1      -7.551  -1.838 123.134  0.00  0.00    +0.000 OA
ATOM     17  C   UNL     1      -5.694  -2.991 123.848  0.00  0.00    +0.000 C 
ATOM     18  C   UNL     1      -5.776  -1.851 125.133  0.00  0.00    +0.000 C 
ATOM     19  C   UNL     1      -7.207  -1.782 126.188  0.00  0.00    +0.000 C 
ATOM     20  C   UNL     1      -8.223  -0.618 126.107  0.00  0.00    +0.000 C 
ENDROOT
BRANCH   4  21
ATOM     21  O   UNL     1      -8.498  -0.744 131.141  0.00  0.00    +0.000 OA
ATOM     22  H   UNL     1      -8.986   0.091 131.178  0.00  0.00    +0.000 HD
ENDBRANCH   4  21
BRANCH   4  23
ATOM     23  C   UNL     1      -6.878   1.056 131.057  0.00  0.00    +0.000 C 
ATOM     24  O   UNL     1      -5.778   1.624 130.917  0.00  0.00    +0.000 OA
BRANCH  23  25
ATOM     25  C   UNL     1      -7.890   1.948 132.015  0.00  0.00    +0.000 C 
BRANCH  25  26
ATOM     26  O   UNL     1      -9.169   2.304 131.235  0.00  0.00    +0.000 OA
BRANCH  26  27
ATOM     27  C   UNL     1      -9.148   3.061 130.082  0.00  0.00    +0.000 C 
ATOM     28  O   UNL     1      -9.262   2.581 128.961  0.00  0.00    +0.000 OA
BRANCH  27  29
ATOM     29  C   UNL     1      -8.956   4.585 130.323  0.00  0.00    +0.000 C 
BRANCH  29  30
ATOM     30  C   UNL     1     -10.288   5.369 130.377  0.00  0.00    +0.000 C 
BRANCH  30  31
ATOM     31  C   UNL     1     -10.707   5.987 131.705  0.00  0.00    +0.000 C 
ATOM     32  O   UNL     1      -9.890   6.445 132.496  0.00  0.00    +0.000 OA
BRANCH  31  33
ATOM     33  O   UNL     1     -12.021   6.018 131.992  0.00  0.00    +0.000 OA
ATOM     34  H   UNL     1     -12.535   5.200 131.896  0.00  0.00    +0.000 HD
ENDBRANCH  31  33
ENDBRANCH  30  31
ENDBRANCH  29  30
ENDBRANCH  27  29
ENDBRANCH  26  27
ENDBRANCH  25  26
ENDBRANCH  23  25
ENDBRANCH   4  23
BRANCH   8  35
ATOM     35  O   UNL     1      -6.823   0.694 128.341  0.00  0.00    +0.000 OA
ATOM     36  H   UNL     1      -7.438   0.687 127.585  0.00  0.00    +0.000 HD
ENDBRANCH   8  35
TORSDOF 10
ENDMDL
MODEL 7
REMARK VINA RESULT:      -8.1      3.747      6.137
REMARK  Name = Hydrocortisone succinate
REMARK  12 active torsions:
REMARK  status: ('A' for Active; 'I' for Inactive)
REMARK    1  A    between atoms: C_5  and  O_6
REMARK    2  A    between atoms: C_5  and  C_7
REMARK    3  A    between atoms: C_7  and  C_9
REMARK    4  A    between atoms: C_9  and  O_10
REMARK    5  A    between atoms: O_10  and  C_11
REMARK    6  A    between atoms: C_11  and  C_13
REMARK    7  A    between atoms: C_13  and  C_14
REMARK    8  A    between atoms: C_14  and  C_15
REMARK    9  A    between atoms: C_15  and  O_16
REMARK   10  A    between atoms: C_18  and  C_19
REMARK   11  A    between atoms: C_21  and  O_22
REMARK   12  A    between atoms: C_35  and  C_36
REMARK                            x       y       z     vdW  Elec       q    Type
REMARK                         _______ _______ _______ _____ _____    ______ ____
ROOT
ATOM      1  C   UNL     1      -7.364  -2.761 130.435  0.00  0.00    +0.000 C 
ATOM      2  C   UNL     1      -6.416  -3.814 130.462  0.00  0.00    +0.000 C 
ATOM      3  C   UNL     1      -5.946  -2.513 129.888  0.00  0.00    +0.000 C 
ATOM      4  C   UNL     1      -7.062  -0.786 130.345  0.00  0.00    +0.000 C 
ATOM      5  C   UNL     1      -6.065  -1.474 131.014  0.00  0.00    +0.000 C 
ATOM      6  C   UNL     1      -5.796  -1.550 132.462  0.00  0.00    +0.000 C 
ATOM      7  C   UNL     1      -5.026  -0.618 129.683  0.00  0.00    +0.000 C 
ATOM      8  C   UNL     1      -5.889  -0.513 128.190  0.00  0.00    +0.000 C 
ATOM      9  C   UNL     1      -6.736  -1.816 127.601  0.00  0.00    +0.000 C 
ATOM     10  C   UNL     1      -7.911  -2.427 128.725  0.00  0.00    +0.000 C 
ATOM     11  C   UNL     1      -8.510  -3.724 128.223  0.00  0.00    +0.000 C 
ATOM     12  C   UNL     1      -9.013  -3.604 126.809  0.00  0.00    +0.000 C 
ATOM     13  C   UNL     1      -8.049  -3.039 125.810  0.00  0.00    +0.000 C 
ATOM     14  C   UNL     1      -7.966  -3.580 124.586  0.00  0.00    +0.000 C 
ATOM     15  C   UNL     1      -7.291  -2.734 123.601  0.00  0.00    +0.000 C 
ATOM     16  O   UNL     1      -7.756  -1.717 123.090  0.00  0.00    +0.000 OA
ATOM     17  C   UNL     1      -5.860  -2.885 123.663  0.00  0.00    +0.000 C 
ATOM     18  C   UNL     1      -5.880  -1.795 124.992  0.00  0.00    +0.000 C 
ATOM     19  C   UNL     1      -7.254  -1.774 126.121  0.00  0.00    +0.000 C 
ATOM     20  C   UNL     1      -8.278  -0.614 126.137  0.00  0.00    +0.000 C 
ENDROOT
BRANCH   4  21
ATOM     21  O   UNL     1      -8.291  -0.930 131.170  0.00  0.00    +0.000 OA
ATOM     22  H   UNL     1      -8.922  -0.209 131.033  0.00  0.00    +0.000 HD
ENDBRANCH   4  21
BRANCH   4  23
ATOM     23  C   UNL     1      -6.685   0.881 131.071  0.00  0.00    +0.000 C 
ATOM     24  O   UNL     1      -7.569   1.725 131.314  0.00  0.00    +0.000 OA
BRANCH  23  25
ATOM     25  C   UNL     1      -5.178   1.499 131.360  0.00  0.00    +0.000 C 
BRANCH  25  26
ATOM     26  O   UNL     1      -5.056   2.896 130.723  0.00  0.00    +0.000 OA
BRANCH  26  27
ATOM     27  C   UNL     1      -4.628   3.084 129.426  0.00  0.00    +0.000 C 
ATOM     28  O   UNL     1      -3.617   2.565 128.970  0.00  0.00    +0.000 OA
BRANCH  27  29
ATOM     29  C   UNL     1      -5.538   4.024 128.584  0.00  0.00    +0.000 C 
BRANCH  29  30
ATOM     30  C   UNL     1      -6.822   4.461 129.328  0.00  0.00    +0.000 C 
BRANCH  30  31
ATOM     31  C   UNL     1      -8.165   4.216 128.652  0.00  0.00    +0.000 C 
ATOM     32  O   UNL     1      -8.756   5.100 128.042  0.00  0.00    +0.000 OA
BRANCH  31  33
ATOM     33  O   UNL     1      -8.695   2.983 128.743  0.00  0.00    +0.000 OA
ATOM     34  H   UNL     1      -9.184   2.632 127.980  0.00  0.00    +0.000 HD
ENDBRANCH  31  33
ENDBRANCH  30  31
ENDBRANCH  29  30
ENDBRANCH  27  29
ENDBRANCH  26  27
ENDBRANCH  25  26
ENDBRANCH  23  25
ENDBRANCH   4  23
BRANCH   8  35
ATOM     35  O   UNL     1      -6.769   0.621 128.344  0.00  0.00    +0.000 OA
ATOM     36  H   UNL     1      -7.348   0.705 127.564  0.00  0.00    +0.000 HD
ENDBRANCH   8  35
TORSDOF 10
ENDMDL
MODEL 8
REMARK VINA RESULT:      -8.1      3.876      7.202
REMARK  Name = Hydrocortisone succinate
REMARK  12 active torsions:
REMARK  status: ('A' for Active; 'I' for Inactive)
REMARK    1  A    between atoms: C_5  and  O_6
REMARK    2  A    between atoms: C_5  and  C_7
REMARK    3  A    between atoms: C_7  and  C_9
REMARK    4  A    between atoms: C_9  and  O_10
REMARK    5  A    between atoms: O_10  and  C_11
REMARK    6  A    between atoms: C_11  and  C_13
REMARK    7  A    between atoms: C_13  and  C_14
REMARK    8  A    between atoms: C_14  and  C_15
REMARK    9  A    between atoms: C_15  and  O_16
REMARK   10  A    between atoms: C_18  and  C_19
REMARK   11  A    between atoms: C_21  and  O_22
REMARK   12  A    between atoms: C_35  and  C_36
REMARK                            x       y       z     vdW  Elec       q    Type
REMARK                         _______ _______ _______ _____ _____    ______ ____
ROOT
ATOM      1  C   UNL     1      -3.885   4.266 126.594  0.00  0.00    +0.000 C 
ATOM      2  C   UNL     1      -2.907   3.241 126.571  0.00  0.00    +0.000 C 
ATOM      3  C   UNL     1      -3.994   3.099 127.592  0.00  0.00    +0.000 C 
ATOM      4  C   UNL     1      -5.754   4.220 127.305  0.00  0.00    +0.000 C 
ATOM      5  C   UNL     1      -5.314   3.005 126.810  0.00  0.00    +0.000 C 
ATOM      6  C   UNL     1      -5.670   2.328 125.550  0.00  0.00    +0.000 C 
ATOM      7  C   UNL     1      -5.766   2.488 128.574  0.00  0.00    +0.000 C 
ATOM      8  C   UNL     1      -5.412   3.746 129.703  0.00  0.00    +0.000 C 
ATOM      9  C   UNL     1      -3.974   4.579 129.629  0.00  0.00    +0.000 C 
ATOM     10  C   UNL     1      -3.693   5.311 128.080  0.00  0.00    +0.000 C 
ATOM     11  C   UNL     1      -2.293   5.883 128.003  0.00  0.00    +0.000 C 
ATOM     12  C   UNL     1      -1.983   6.779 129.173  0.00  0.00    +0.000 C 
ATOM     13  C   UNL     1      -2.253   6.206 130.533  0.00  0.00    +0.000 C 
ATOM     14  C   UNL     1      -1.381   6.417 131.529  0.00  0.00    +0.000 C 
ATOM     15  C   UNL     1      -1.917   6.147 132.863  0.00  0.00    +0.000 C 
ATOM     16  O   UNL     1      -2.729   6.846 133.465  0.00  0.00    +0.000 OA
ATOM     17  C   UNL     1      -1.822   4.749 133.201  0.00  0.00    +0.000 C 
ATOM     18  C   UNL     1      -3.252   4.509 132.277  0.00  0.00    +0.000 C 
ATOM     19  C   UNL     1      -3.571   5.499 130.834  0.00  0.00    +0.000 C 
ATOM     20  C   UNL     1      -4.663   6.595 130.824  0.00  0.00    +0.000 C 
ENDROOT
BRANCH   4  21
ATOM     21  O   UNL     1      -5.830   5.140 126.139  0.00  0.00    +0.000 OA
ATOM     22  H   UNL     1      -5.024   5.663 126.021  0.00  0.00    +0.000 HD
ENDBRANCH   4  21
BRANCH   4  23
ATOM     23  C   UNL     1      -7.568   3.836 127.210  0.00  0.00    +0.000 C 
ATOM     24  O   UNL     1      -8.431   4.709 126.991  0.00  0.00    +0.000 OA
BRANCH  23  25
ATOM     25  C   UNL     1      -8.271   2.371 127.519  0.00  0.00    +0.000 C 
BRANCH  25  26
ATOM     26  O   UNL     1      -9.042   1.888 126.277  0.00  0.00    +0.000 OA
BRANCH  26  27
ATOM     27  C   UNL     1      -9.255   0.552 126.010  0.00  0.00    +0.000 C 
ATOM     28  O   UNL     1     -10.156   0.148 125.285  0.00  0.00    +0.000 OA
BRANCH  27  29
ATOM     29  C   UNL     1      -8.255  -0.407 126.715  0.00  0.00    +0.000 C 
BRANCH  29  30
ATOM     30  C   UNL     1      -8.066  -1.750 125.972  0.00  0.00    +0.000 C 
BRANCH  30  31
ATOM     31  C   UNL     1      -9.030  -2.888 126.282  0.00  0.00    +0.000 C 
ATOM     32  O   UNL     1      -8.791  -3.726 127.143  0.00  0.00    +0.000 OA
BRANCH  31  33
ATOM     33  O   UNL     1     -10.172  -2.949 125.573  0.00  0.00    +0.000 OA
ATOM     34  H   UNL     1     -10.475  -2.148 125.115  0.00  0.00    +0.000 HD
ENDBRANCH  31  33
ENDBRANCH  30  31
ENDBRANCH  29  30
ENDBRANCH  27  29
ENDBRANCH  26  27
ENDBRANCH  25  26
ENDBRANCH  23  25
ENDBRANCH   4  23
BRANCH   8  35
ATOM     35  O   UNL     1      -6.522   4.665 129.603  0.00  0.00    +0.000 OA
ATOM     36  H   UNL     1      -7.345   4.228 129.888  0.00  0.00    +0.000 HD
ENDBRANCH   8  35
TORSDOF 10
ENDMDL
MODEL 9
REMARK VINA RESULT:      -8.0      3.318      5.156
REMARK  Name = Hydrocortisone succinate
REMARK  12 active torsions:
REMARK  status: ('A' for Active; 'I' for Inactive)
REMARK    1  A    between atoms: C_5  and  O_6
REMARK    2  A    between atoms: C_5  and  C_7
REMARK    3  A    between atoms: C_7  and  C_9
REMARK    4  A    between atoms: C_9  and  O_10
REMARK    5  A    between atoms: O_10  and  C_11
REMARK    6  A    between atoms: C_11  and  C_13
REMARK    7  A    between atoms: C_13  and  C_14
REMARK    8  A    between atoms: C_14  and  C_15
REMARK    9  A    between atoms: C_15  and  O_16
REMARK   10  A    between atoms: C_18  and  C_19
REMARK   11  A    between atoms: C_21  and  O_22
REMARK   12  A    between atoms: C_35  and  C_36
REMARK                            x       y       z     vdW  Elec       q    Type
REMARK                         _______ _______ _______ _____ _____    ______ ____
ROOT
ATOM      1  C   UNL     1      -7.489  -1.728 130.544  0.00  0.00    +0.000 C 
ATOM      2  C   UNL     1      -6.271  -2.440 130.674  0.00  0.00    +0.000 C 
ATOM      3  C   UNL     1      -6.233  -1.211 129.818  0.00  0.00    +0.000 C 
ATOM      4  C   UNL     1      -7.792   0.187 130.050  0.00  0.00    +0.000 C 
ATOM      5  C   UNL     1      -6.608  -0.035 130.733  0.00  0.00    +0.000 C 
ATOM      6  C   UNL     1      -6.268   0.277 132.133  0.00  0.00    +0.000 C 
ATOM      7  C   UNL     1      -5.927   0.778 129.164  0.00  0.00    +0.000 C 
ATOM      8  C   UNL     1      -6.844   0.317 127.775  0.00  0.00    +0.000 C 
ATOM      9  C   UNL     1      -7.290  -1.267 127.533  0.00  0.00    +0.000 C 
ATOM     10  C   UNL     1      -8.182  -1.931 128.867  0.00  0.00    +0.000 C 
ATOM     11  C   UNL     1      -8.390  -3.420 128.684  0.00  0.00    +0.000 C 
ATOM     12  C   UNL     1      -8.965  -3.749 127.332  0.00  0.00    +0.000 C 
ATOM     13  C   UNL     1      -8.255  -3.160 126.150  0.00  0.00    +0.000 C 
ATOM     14  C   UNL     1      -8.066  -3.901 125.050  0.00  0.00    +0.000 C 
ATOM     15  C   UNL     1      -7.715  -3.128 123.859  0.00  0.00    +0.000 C 
ATOM     16  O   UNL     1      -8.481  -2.416 123.214  0.00  0.00    +0.000 OA
ATOM     17  C   UNL     1      -6.302  -2.853 123.801  0.00  0.00    +0.000 C 
ATOM     18  C   UNL     1      -6.588  -1.557 124.894  0.00  0.00    +0.000 C 
ATOM     19  C   UNL     1      -7.859  -1.686 126.133  0.00  0.00    +0.000 C 
ATOM     20  C   UNL     1      -9.179  -0.885 126.032  0.00  0.00    +0.000 C 
ENDROOT
BRANCH   4  21
ATOM     21  O   UNL     1      -8.886  -0.120 131.008  0.00  0.00    +0.000 OA
ATOM     22  H   UNL     1      -8.560  -0.428 131.866  0.00  0.00    +0.000 HD
ENDBRANCH   4  21
BRANCH   4  23
ATOM     23  C   UNL     1      -7.896   2.006 130.404  0.00  0.00    +0.000 C 
ATOM     24  O   UNL     1      -8.975   2.588 130.629  0.00  0.00    +0.000 OA
BRANCH  23  25
ATOM     25  C   UNL     1      -6.643   3.084 130.341  0.00  0.00    +0.000 C 
BRANCH  25  26
ATOM     26  O   UNL     1      -6.927   4.271 131.280  0.00  0.00    +0.000 OA
BRANCH  26  27
ATOM     27  C   UNL     1      -6.973   5.575 130.833  0.00  0.00    +0.000 C 
ATOM     28  O   UNL     1      -6.185   6.033 130.015  0.00  0.00    +0.000 OA
BRANCH  27  29
ATOM     29  C   UNL     1      -8.111   6.426 131.464  0.00  0.00    +0.000 C 
BRANCH  29  30
ATOM     30  C   UNL     1      -9.173   6.886 130.438  0.00  0.00    +0.000 C 
BRANCH  30  31
ATOM     31  C   UNL     1      -9.664   5.878 129.408  0.00  0.00    +0.000 C 
ATOM     32  O   UNL     1      -9.328   5.936 128.230  0.00  0.00    +0.000 OA
BRANCH  31  33
ATOM     33  O   UNL     1     -10.490   4.904 129.831  0.00  0.00    +0.000 OA
ATOM     34  H   UNL     1     -11.403   5.141 130.066  0.00  0.00    +0.000 HD
ENDBRANCH  31  33
ENDBRANCH  30  31
ENDBRANCH  29  30
ENDBRANCH  27  29
ENDBRANCH  26  27
ENDBRANCH  25  26
ENDBRANCH  23  25
ENDBRANCH   4  23
BRANCH   8  35
ATOM     35  O   UNL     1      -8.014   1.163 127.799  0.00  0.00    +0.000 OA
ATOM     36  H   UNL     1      -8.783   0.682 127.441  0.00  0.00    +0.000 HD
ENDBRANCH   8  35
TORSDOF 10
ENDMDL
