MODEL 1
REMARK VINA RESULT:      -7.7      0.000      0.000
REMARK  Name = Hydroxystilbamidine
REMARK  5 active torsions:
REMARK  status: ('A' for Active; 'I' for Inactive)
REMARK    1  A    between atoms: C_2  and  C_4
REMARK    2  A    between atoms: C_7  and  C_8
REMARK    3  A    between atoms: C_9  and  C_10
REMARK    4  A    between atoms: C_11  and  O_12
REMARK    5  A    between atoms: C_14  and  C_17
REMARK                            x       y       z     vdW  Elec       q    Type
REMARK                         _______ _______ _______ _____ _____    ______ ____
ROOT
ATOM      1  C   UNL     1     -10.580   3.966 130.348  0.00  0.00    +0.000 C 
ATOM      2  C   UNL     1     -10.043   5.196 130.309  0.00  0.00    +0.000 C 
ENDROOT
BRANCH   1   6
ATOM      3  C   UNL     1      -8.397   0.337 130.967  0.00  0.00    +0.000 A 
ATOM      4  C   UNL     1      -8.135   1.137 129.853  0.00  0.00    +0.000 A 
ATOM      5  C   UNL     1      -8.819   2.348 129.688  0.00  0.00    +0.000 A 
ATOM      6  C   UNL     1      -9.805   2.740 130.604  0.00  0.00    +0.000 A 
ATOM      7  C   UNL     1     -10.042   1.924 131.721  0.00  0.00    +0.000 A 
ATOM      8  C   UNL     1      -9.348   0.731 131.904  0.00  0.00    +0.000 A 
BRANCH   3  10
ATOM      9  N   UNL     1      -6.793  -0.940 132.339  0.00  0.00    +0.000 N 
ATOM     10  C   UNL     1      -7.593  -0.884 131.233  0.00  0.00    +0.000 C 
ATOM     11  N   UNL     1      -7.638  -1.848 130.384  0.00  0.00    +0.000 NA
ATOM     12  H   UNL     1      -6.375  -1.821 132.605  0.00  0.00    +0.000 HD
ATOM     13  H   UNL     1      -6.959  -0.294 133.102  0.00  0.00    +0.000 HD
ATOM     14  H   UNL     1      -6.988  -2.587 130.656  0.00  0.00    +0.000 HD
ENDBRANCH   3  10
ENDBRANCH   1   6
BRANCH   2  15
ATOM     15  C   UNL     1     -10.814   6.424 130.121  0.00  0.00    +0.000 A 
ATOM     16  C   UNL     1     -11.838   6.771 131.007  0.00  0.00    +0.000 A 
ATOM     17  C   UNL     1     -12.664   7.863 130.754  0.00  0.00    +0.000 A 
ATOM     18  C   UNL     1     -12.426   8.693 129.652  0.00  0.00    +0.000 A 
ATOM     19  C   UNL     1     -11.411   8.340 128.752  0.00  0.00    +0.000 A 
ATOM     20  C   UNL     1     -10.623   7.207 128.978  0.00  0.00    +0.000 A 
BRANCH  18  21
ATOM     21  C   UNL     1     -13.218   9.955 129.486  0.00  0.00    +0.000 C 
ATOM     22  N   UNL     1     -13.309  10.871 130.483  0.00  0.00    +0.000 N 
ATOM     23  N   UNL     1     -13.848  10.274 128.395  0.00  0.00    +0.000 NA
ATOM     24  H   UNL     1     -12.741  10.860 131.315  0.00  0.00    +0.000 HD
ATOM     25  H   UNL     1     -13.737  11.755 130.231  0.00  0.00    +0.000 HD
ATOM     26  H   UNL     1     -13.760   9.570 127.665  0.00  0.00    +0.000 HD
ENDBRANCH  18  21
BRANCH  16  27
ATOM     27  O   UNL     1     -12.073   6.094 132.174  0.00  0.00    +0.000 OA
ATOM     28  H   UNL     1     -11.626   6.564 132.899  0.00  0.00    +0.000 HD
ENDBRANCH  16  27
ENDBRANCH   2  15
TORSDOF 5
ENDMDL
MODEL 2
REMARK VINA RESULT:      -7.4      1.227      8.888
REMARK  Name = Hydroxystilbamidine
REMARK  5 active torsions:
REMARK  status: ('A' for Active; 'I' for Inactive)
REMARK    1  A    between atoms: C_2  and  C_4
REMARK    2  A    between atoms: C_7  and  C_8
REMARK    3  A    between atoms: C_9  and  C_10
REMARK    4  A    between atoms: C_11  and  O_12
REMARK    5  A    between atoms: C_14  and  C_17
REMARK                            x       y       z     vdW  Elec       q    Type
REMARK                         _______ _______ _______ _____ _____    ______ ____
ROOT
ATOM      1  C   UNL     1     -11.210   5.308 130.189  0.00  0.00    +0.000 C 
ATOM      2  C   UNL     1     -10.373   4.932 131.170  0.00  0.00    +0.000 C 
ENDROOT
BRANCH   1   6
ATOM      3  C   UNL     1     -12.794   9.274 129.901  0.00  0.00    +0.000 A 
ATOM      4  C   UNL     1     -12.044   8.735 128.854  0.00  0.00    +0.000 A 
ATOM      5  C   UNL     1     -11.574   7.419 128.937  0.00  0.00    +0.000 A 
ATOM      6  C   UNL     1     -11.805   6.652 130.088  0.00  0.00    +0.000 A 
ATOM      7  C   UNL     1     -12.572   7.211 131.122  0.00  0.00    +0.000 A 
ATOM      8  C   UNL     1     -13.062   8.511 131.034  0.00  0.00    +0.000 A 
BRANCH   3  10
ATOM      9  N   UNL     1     -13.518  11.418 130.882  0.00  0.00    +0.000 N 
ATOM     10  C   UNL     1     -13.414  10.618 129.780  0.00  0.00    +0.000 C 
ATOM     11  N   UNL     1     -13.881  10.980 128.638  0.00  0.00    +0.000 NA
ATOM     12  H   UNL     1     -13.789  12.385 130.771  0.00  0.00    +0.000 HD
ATOM     13  H   UNL     1     -12.937  11.224 131.690  0.00  0.00    +0.000 HD
ATOM     14  H   UNL     1     -14.337  11.891 128.717  0.00  0.00    +0.000 HD
ENDBRANCH   3  10
ENDBRANCH   1   6
BRANCH   2  15
ATOM     15  C   UNL     1      -9.727   3.623 131.241  0.00  0.00    +0.000 A 
ATOM     16  C   UNL     1      -9.381   3.060 132.474  0.00  0.00    +0.000 A 
ATOM     17  C   UNL     1      -8.643   1.881 132.541  0.00  0.00    +0.000 A 
ATOM     18  C   UNL     1      -8.311   1.184 131.372  0.00  0.00    +0.000 A 
ATOM     19  C   UNL     1      -8.642   1.752 130.135  0.00  0.00    +0.000 A 
ATOM     20  C   UNL     1      -9.330   2.968 130.071  0.00  0.00    +0.000 A 
BRANCH  18  21
ATOM     21  C   UNL     1      -7.663  -0.164 131.469  0.00  0.00    +0.000 C 
ATOM     22  N   UNL     1      -7.337  -0.876 130.360  0.00  0.00    +0.000 N 
ATOM     23  N   UNL     1      -7.349  -0.736 132.593  0.00  0.00    +0.000 NA
ATOM     24  H   UNL     1      -7.349  -0.502 129.424  0.00  0.00    +0.000 HD
ATOM     25  H   UNL     1      -6.771  -1.701 130.517  0.00  0.00    +0.000 HD
ATOM     26  H   UNL     1      -7.602  -0.178 133.406  0.00  0.00    +0.000 HD
ENDBRANCH  18  21
BRANCH  16  27
ATOM     27  O   UNL     1      -9.763   3.602 133.672  0.00  0.00    +0.000 OA
ATOM     28  H   UNL     1     -10.525   4.186 133.517  0.00  0.00    +0.000 HD
ENDBRANCH  16  27
ENDBRANCH   2  15
TORSDOF 5
ENDMDL
MODEL 3
REMARK VINA RESULT:      -7.3      1.465      9.055
REMARK  Name = Hydroxystilbamidine
REMARK  5 active torsions:
REMARK  status: ('A' for Active; 'I' for Inactive)
REMARK    1  A    between atoms: C_2  and  C_4
REMARK    2  A    between atoms: C_7  and  C_8
REMARK    3  A    between atoms: C_9  and  C_10
REMARK    4  A    between atoms: C_11  and  O_12
REMARK    5  A    between atoms: C_14  and  C_17
REMARK                            x       y       z     vdW  Elec       q    Type
REMARK                         _______ _______ _______ _____ _____    ______ ____
ROOT
ATOM      1  C   UNL     1     -10.848   5.410 130.989  0.00  0.00    +0.000 C 
ATOM      2  C   UNL     1     -10.183   4.640 130.112  0.00  0.00    +0.000 C 
ENDROOT
BRANCH   1   6
ATOM      3  C   UNL     1     -12.784   9.087 129.967  0.00  0.00    +0.000 A 
ATOM      4  C   UNL     1     -13.110   8.422 131.151  0.00  0.00    +0.000 A 
ATOM      5  C   UNL     1     -12.434   7.247 131.500  0.00  0.00    +0.000 A 
ATOM      6  C   UNL     1     -11.467   6.701 130.645  0.00  0.00    +0.000 A 
ATOM      7  C   UNL     1     -11.148   7.393 129.467  0.00  0.00    +0.000 A 
ATOM      8  C   UNL     1     -11.800   8.575 129.126  0.00  0.00    +0.000 A 
BRANCH   3  10
ATOM      9  N   UNL     1     -13.455  11.376 130.596  0.00  0.00    +0.000 N 
ATOM     10  C   UNL     1     -13.392  10.402 129.640  0.00  0.00    +0.000 C 
ATOM     11  N   UNL     1     -13.887  10.576 128.466  0.00  0.00    +0.000 NA
ATOM     12  H   UNL     1     -13.719  12.315 130.331  0.00  0.00    +0.000 HD
ATOM     13  H   UNL     1     -12.854  11.310 131.408  0.00  0.00    +0.000 HD
ATOM     14  H   UNL     1     -14.331  11.494 128.404  0.00  0.00    +0.000 HD
ENDBRANCH   3  10
ENDBRANCH   1   6
BRANCH   2  15
ATOM     15  C   UNL     1      -9.623   3.328 130.430  0.00  0.00    +0.000 A 
ATOM     16  C   UNL     1      -8.853   2.630 129.493  0.00  0.00    +0.000 A 
ATOM     17  C   UNL     1      -8.436   1.325 129.739  0.00  0.00    +0.000 A 
ATOM     18  C   UNL     1      -8.701   0.716 130.972  0.00  0.00    +0.000 A 
ATOM     19  C   UNL     1      -9.485   1.404 131.907  0.00  0.00    +0.000 A 
ATOM     20  C   UNL     1      -9.954   2.693 131.631  0.00  0.00    +0.000 A 
BRANCH  18  21
ATOM     21  C   UNL     1      -8.104  -0.624 131.283  0.00  0.00    +0.000 C 
ATOM     22  N   UNL     1      -7.966  -1.578 130.327  0.00  0.00    +0.000 N 
ATOM     23  N   UNL     1      -7.663  -0.964 132.457  0.00  0.00    +0.000 NA
ATOM     24  H   UNL     1      -8.090  -1.413 129.341  0.00  0.00    +0.000 HD
ATOM     25  H   UNL     1      -7.420  -2.390 130.591  0.00  0.00    +0.000 HD
ATOM     26  H   UNL     1      -7.778  -0.229 133.152  0.00  0.00    +0.000 HD
ENDBRANCH  18  21
BRANCH  16  27
ATOM     27  O   UNL     1      -8.442   3.183 128.310  0.00  0.00    +0.000 OA
ATOM     28  H   UNL     1      -8.967   3.986 128.146  0.00  0.00    +0.000 HD
ENDBRANCH  16  27
ENDBRANCH   2  15
TORSDOF 5
ENDMDL
MODEL 4
REMARK VINA RESULT:      -7.3      4.834      9.014
REMARK  Name = Hydroxystilbamidine
REMARK  5 active torsions:
REMARK  status: ('A' for Active; 'I' for Inactive)
REMARK    1  A    between atoms: C_2  and  C_4
REMARK    2  A    between atoms: C_7  and  C_8
REMARK    3  A    between atoms: C_9  and  C_10
REMARK    4  A    between atoms: C_11  and  O_12
REMARK    5  A    between atoms: C_14  and  C_17
REMARK                            x       y       z     vdW  Elec       q    Type
REMARK                         _______ _______ _______ _____ _____    ______ ____
ROOT
ATOM      1  C   UNL     1      -8.416   6.703 131.093  0.00  0.00    +0.000 C 
ATOM      2  C   UNL     1      -7.200   7.210 130.833  0.00  0.00    +0.000 C 
ENDROOT
BRANCH   1   6
ATOM      3  C   UNL     1     -11.958   8.087 129.130  0.00  0.00    +0.000 A 
ATOM      4  C   UNL     1     -10.699   8.376 128.601  0.00  0.00    +0.000 A 
ATOM      5  C   UNL     1      -9.549   7.874 129.223  0.00  0.00    +0.000 A 
ATOM      6  C   UNL     1      -9.647   7.128 130.406  0.00  0.00    +0.000 A 
ATOM      7  C   UNL     1     -10.924   6.841 130.912  0.00  0.00    +0.000 A 
ATOM      8  C   UNL     1     -12.072   7.317 130.284  0.00  0.00    +0.000 A 
BRANCH   3  10
ATOM      9  N   UNL     1     -13.887   7.576 127.681  0.00  0.00    +0.000 N 
ATOM     10  C   UNL     1     -13.196   8.495 128.417  0.00  0.00    +0.000 C 
ATOM     11  N   UNL     1     -13.562   9.726 128.476  0.00  0.00    +0.000 NA
ATOM     12  H   UNL     1     -14.806   7.810 127.331  0.00  0.00    +0.000 HD
ATOM     13  H   UNL     1     -13.728   6.589 127.846  0.00  0.00    +0.000 HD
ATOM     14  H   UNL     1     -14.383   9.877 127.887  0.00  0.00    +0.000 HD
ENDBRANCH   3  10
ENDBRANCH   1   6
BRANCH   2  15
ATOM     15  C   UNL     1      -5.965   6.748 131.464  0.00  0.00    +0.000 A 
ATOM     16  C   UNL     1      -4.722   6.991 130.870  0.00  0.00    +0.000 A 
ATOM     17  C   UNL     1      -3.558   6.434 131.393  0.00  0.00    +0.000 A 
ATOM     18  C   UNL     1      -3.597   5.694 132.582  0.00  0.00    +0.000 A 
ATOM     19  C   UNL     1      -4.842   5.435 133.171  0.00  0.00    +0.000 A 
ATOM     20  C   UNL     1      -6.016   5.946 132.608  0.00  0.00    +0.000 A 
BRANCH  18  21
ATOM     21  C   UNL     1      -2.317   5.243 133.219  0.00  0.00    +0.000 C 
ATOM     22  N   UNL     1      -1.536   4.292 132.646  0.00  0.00    +0.000 N 
ATOM     23  N   UNL     1      -1.855   5.728 134.332  0.00  0.00    +0.000 NA
ATOM     24  H   UNL     1      -1.659   3.950 131.707  0.00  0.00    +0.000 HD
ATOM     25  H   UNL     1      -0.624   4.160 133.066  0.00  0.00    +0.000 HD
ATOM     26  H   UNL     1      -2.460   6.439 134.738  0.00  0.00    +0.000 HD
ENDBRANCH  18  21
BRANCH  16  27
ATOM     27  O   UNL     1      -4.566   7.799 129.776  0.00  0.00    +0.000 OA
ATOM     28  H   UNL     1      -4.808   8.708 130.027  0.00  0.00    +0.000 HD
ENDBRANCH  16  27
ENDBRANCH   2  15
TORSDOF 5
ENDMDL
MODEL 5
REMARK VINA RESULT:      -7.3      3.871      4.237
REMARK  Name = Hydroxystilbamidine
REMARK  5 active torsions:
REMARK  status: ('A' for Active; 'I' for Inactive)
REMARK    1  A    between atoms: C_2  and  C_4
REMARK    2  A    between atoms: C_7  and  C_8
REMARK    3  A    between atoms: C_9  and  C_10
REMARK    4  A    between atoms: C_11  and  O_12
REMARK    5  A    between atoms: C_14  and  C_17
REMARK                            x       y       z     vdW  Elec       q    Type
REMARK                         _______ _______ _______ _____ _____    ______ ____
ROOT
ATOM      1  C   UNL     1      -7.398   6.516 131.057  0.00  0.00    +0.000 C 
ATOM      2  C   UNL     1      -8.690   6.342 131.379  0.00  0.00    +0.000 C 
ENDROOT
BRANCH   1   6
ATOM      3  C   UNL     1      -4.232   4.376 132.984  0.00  0.00    +0.000 A 
ATOM      4  C   UNL     1      -4.427   4.258 131.606  0.00  0.00    +0.000 A 
ATOM      5  C   UNL     1      -5.433   5.003 130.978  0.00  0.00    +0.000 A 
ATOM      6  C   UNL     1      -6.284   5.827 131.730  0.00  0.00    +0.000 A 
ATOM      7  C   UNL     1      -6.060   5.937 133.110  0.00  0.00    +0.000 A 
ATOM      8  C   UNL     1      -5.046   5.218 133.737  0.00  0.00    +0.000 A 
BRANCH   3  10
ATOM      9  N   UNL     1      -3.292   3.027 134.822  0.00  0.00    +0.000 N 
ATOM     10  C   UNL     1      -3.090   3.700 133.651  0.00  0.00    +0.000 C 
ATOM     11  N   UNL     1      -1.921   3.804 133.127  0.00  0.00    +0.000 NA
ATOM     12  H   UNL     1      -2.558   2.437 135.189  0.00  0.00    +0.000 HD
ATOM     13  H   UNL     1      -4.233   2.752 135.079  0.00  0.00    +0.000 HD
ATOM     14  H   UNL     1      -1.226   3.353 133.723  0.00  0.00    +0.000 HD
ENDBRANCH   3  10
ENDBRANCH   1   6
BRANCH   2  15
ATOM     15  C   UNL     1      -9.805   6.972 130.673  0.00  0.00    +0.000 A 
ATOM     16  C   UNL     1     -11.127   6.728 131.057  0.00  0.00    +0.000 A 
ATOM     17  C   UNL     1     -12.193   7.213 130.304  0.00  0.00    +0.000 A 
ATOM     18  C   UNL     1     -11.961   8.035 129.195  0.00  0.00    +0.000 A 
ATOM     19  C   UNL     1     -10.638   8.269 128.796  0.00  0.00    +0.000 A 
ATOM     20  C   UNL     1      -9.571   7.729 129.521  0.00  0.00    +0.000 A 
BRANCH  18  21
ATOM     21  C   UNL     1     -13.118   8.683 128.495  0.00  0.00    +0.000 C 
ATOM     22  N   UNL     1     -13.426   9.990 128.694  0.00  0.00    +0.000 N 
ATOM     23  N   UNL     1     -13.887   8.067 127.647  0.00  0.00    +0.000 NA
ATOM     24  H   UNL     1     -12.830  10.645 129.174  0.00  0.00    +0.000 HD
ATOM     25  H   UNL     1     -14.124  10.378 128.071  0.00  0.00    +0.000 HD
ATOM     26  H   UNL     1     -13.631   7.090 127.517  0.00  0.00    +0.000 HD
ENDBRANCH  18  21
BRANCH  16  27
ATOM     27  O   UNL     1     -11.455   6.037 132.193  0.00  0.00    +0.000 OA
ATOM     28  H   UNL     1     -10.680   6.025 132.781  0.00  0.00    +0.000 HD
ENDBRANCH  16  27
ENDBRANCH   2  15
TORSDOF 5
ENDMDL
MODEL 6
REMARK VINA RESULT:      -7.2      4.274      8.863
REMARK  Name = Hydroxystilbamidine
REMARK  5 active torsions:
REMARK  status: ('A' for Active; 'I' for Inactive)
REMARK    1  A    between atoms: C_2  and  C_4
REMARK    2  A    between atoms: C_7  and  C_8
REMARK    3  A    between atoms: C_9  and  C_10
REMARK    4  A    between atoms: C_11  and  O_12
REMARK    5  A    between atoms: C_14  and  C_17
REMARK                            x       y       z     vdW  Elec       q    Type
REMARK                         _______ _______ _______ _____ _____    ______ ____
ROOT
ATOM      1  C   UNL     1      -8.905   5.900 132.061  0.00  0.00    +0.000 C 
ATOM      2  C   UNL     1      -9.006   5.726 133.389  0.00  0.00    +0.000 C 
ENDROOT
BRANCH   1   6
ATOM      3  C   UNL     1     -11.850   7.918 129.701  0.00  0.00    +0.000 A 
ATOM      4  C   UNL     1     -10.511   7.910 129.304  0.00  0.00    +0.000 A 
ATOM      5  C   UNL     1      -9.565   7.204 130.056  0.00  0.00    +0.000 A 
ATOM      6  C   UNL     1      -9.940   6.546 131.237  0.00  0.00    +0.000 A 
ATOM      7  C   UNL     1     -11.293   6.558 131.608  0.00  0.00    +0.000 A 
ATOM      8  C   UNL     1     -12.243   7.239 130.851  0.00  0.00    +0.000 A 
BRANCH   3  10
ATOM      9  N   UNL     1     -13.073   9.901 128.892  0.00  0.00    +0.000 N 
ATOM     10  C   UNL     1     -12.892   8.548 128.851  0.00  0.00    +0.000 C 
ATOM     11  N   UNL     1     -13.634   7.790 128.124  0.00  0.00    +0.000 NA
ATOM     12  H   UNL     1     -13.665  10.344 128.203  0.00  0.00    +0.000 HD
ATOM     13  H   UNL     1     -12.337  10.487 129.268  0.00  0.00    +0.000 HD
ATOM     14  H   UNL     1     -14.347   8.347 127.649  0.00  0.00    +0.000 HD
ENDBRANCH   3  10
ENDBRANCH   1   6
BRANCH   2  15
ATOM     15  C   UNL     1      -7.955   5.145 134.224  0.00  0.00    +0.000 A 
ATOM     16  C   UNL     1      -7.639   5.699 135.468  0.00  0.00    +0.000 A 
ATOM     17  C   UNL     1      -6.550   5.237 136.202  0.00  0.00    +0.000 A 
ATOM     18  C   UNL     1      -5.804   4.141 135.750  0.00  0.00    +0.000 A 
ATOM     19  C   UNL     1      -6.107   3.593 134.497  0.00  0.00    +0.000 A 
ATOM     20  C   UNL     1      -7.164   4.101 133.735  0.00  0.00    +0.000 A 
BRANCH  18  21
ATOM     21  C   UNL     1      -4.741   3.552 136.628  0.00  0.00    +0.000 C 
ATOM     22  N   UNL     1      -3.518   3.225 136.140  0.00  0.00    +0.000 N 
ATOM     23  N   UNL     1      -4.895   3.332 137.900  0.00  0.00    +0.000 NA
ATOM     24  H   UNL     1      -3.181   3.495 135.229  0.00  0.00    +0.000 HD
ATOM     25  H   UNL     1      -2.820   2.976 136.831  0.00  0.00    +0.000 HD
ATOM     26  H   UNL     1      -5.821   3.588 138.238  0.00  0.00    +0.000 HD
ENDBRANCH  18  21
BRANCH  16  27
ATOM     27  O   UNL     1      -8.380   6.693 136.050  0.00  0.00    +0.000 OA
ATOM     28  H   UNL     1      -9.316   6.555 135.818  0.00  0.00    +0.000 HD
ENDBRANCH  16  27
ENDBRANCH   2  15
TORSDOF 5
ENDMDL
MODEL 7
REMARK VINA RESULT:      -7.0      1.292      1.975
REMARK  Name = Hydroxystilbamidine
REMARK  5 active torsions:
REMARK  status: ('A' for Active; 'I' for Inactive)
REMARK    1  A    between atoms: C_2  and  C_4
REMARK    2  A    between atoms: C_7  and  C_8
REMARK    3  A    between atoms: C_9  and  C_10
REMARK    4  A    between atoms: C_11  and  O_12
REMARK    5  A    between atoms: C_14  and  C_17
REMARK                            x       y       z     vdW  Elec       q    Type
REMARK                         _______ _______ _______ _____ _____    ______ ____
ROOT
ATOM      1  C   UNL     1     -10.300   3.442 130.268  0.00  0.00    +0.000 C 
ATOM      2  C   UNL     1      -9.835   4.701 130.282  0.00  0.00    +0.000 C 
ENDROOT
BRANCH   1   6
ATOM      3  C   UNL     1      -7.820   0.078 131.190  0.00  0.00    +0.000 A 
ATOM      4  C   UNL     1      -8.808   0.493 132.085  0.00  0.00    +0.000 A 
ATOM      5  C   UNL     1      -9.648   1.562 131.750  0.00  0.00    +0.000 A 
ATOM      6  C   UNL     1      -9.470   2.257 130.545  0.00  0.00    +0.000 A 
ATOM      7  C   UNL     1      -8.478   1.814 129.658  0.00  0.00    +0.000 A 
ATOM      8  C   UNL     1      -7.656   0.735 129.974  0.00  0.00    +0.000 A 
BRANCH   3  10
ATOM      9  N   UNL     1      -5.692  -1.164 131.095  0.00  0.00    +0.000 N 
ATOM     10  C   UNL     1      -7.006  -1.134 131.464  0.00  0.00    +0.000 C 
ATOM     11  N   UNL     1      -7.578  -2.150 132.006  0.00  0.00    +0.000 NA
ATOM     12  H   UNL     1      -5.101  -1.917 131.421  0.00  0.00    +0.000 HD
ATOM     13  H   UNL     1      -5.212  -0.293 130.903  0.00  0.00    +0.000 HD
ATOM     14  H   UNL     1      -6.922  -2.930 132.071  0.00  0.00    +0.000 HD
ENDBRANCH   3  10
ENDBRANCH   1   6
BRANCH   2  15
ATOM     15  C   UNL     1     -10.665   5.887 130.074  0.00  0.00    +0.000 A 
ATOM     16  C   UNL     1     -10.489   6.697 128.947  0.00  0.00    +0.000 A 
ATOM     17  C   UNL     1     -11.179   7.898 128.815  0.00  0.00    +0.000 A 
ATOM     18  C   UNL     1     -12.136   8.276 129.765  0.00  0.00    +0.000 A 
ATOM     19  C   UNL     1     -12.305   7.476 130.903  0.00  0.00    +0.000 A 
ATOM     20  C   UNL     1     -11.564   6.300 131.062  0.00  0.00    +0.000 A 
BRANCH  18  21
ATOM     21  C   UNL     1     -12.987   9.486 129.524  0.00  0.00    +0.000 C 
ATOM     22  N   UNL     1     -13.266  10.367 130.519  0.00  0.00    +0.000 N 
ATOM     23  N   UNL     1     -13.495   9.793 128.368  0.00  0.00    +0.000 NA
ATOM     24  H   UNL     1     -12.808  10.370 131.416  0.00  0.00    +0.000 HD
ATOM     25  H   UNL     1     -13.719  11.226 130.232  0.00  0.00    +0.000 HD
ATOM     26  H   UNL     1     -13.268   9.117 127.642  0.00  0.00    +0.000 HD
ENDBRANCH  18  21
BRANCH  16  27
ATOM     27  O   UNL     1      -9.666   6.355 127.907  0.00  0.00    +0.000 OA
ATOM     28  H   UNL     1     -10.152   6.487 127.074  0.00  0.00    +0.000 HD
ENDBRANCH  16  27
ENDBRANCH   2  15
TORSDOF 5
ENDMDL
MODEL 8
REMARK VINA RESULT:      -6.9      8.466     11.452
REMARK  Name = Hydroxystilbamidine
REMARK  5 active torsions:
REMARK  status: ('A' for Active; 'I' for Inactive)
REMARK    1  A    between atoms: C_2  and  C_4
REMARK    2  A    between atoms: C_7  and  C_8
REMARK    3  A    between atoms: C_9  and  C_10
REMARK    4  A    between atoms: C_11  and  O_12
REMARK    5  A    between atoms: C_14  and  C_17
REMARK                            x       y       z     vdW  Elec       q    Type
REMARK                         _______ _______ _______ _____ _____    ______ ____
ROOT
ATOM      1  C   UNL     1      -7.581   1.583 123.617  0.00  0.00    +0.000 C 
ATOM      2  C   UNL     1      -6.743   0.904 124.416  0.00  0.00    +0.000 C 
ENDROOT
BRANCH   1   6
ATOM      3  C   UNL     1      -6.331   4.270 120.530  0.00  0.00    +0.000 A 
ATOM      4  C   UNL     1      -7.671   3.892 120.637  0.00  0.00    +0.000 A 
ATOM      5  C   UNL     1      -8.078   3.054 121.681  0.00  0.00    +0.000 A 
ATOM      6  C   UNL     1      -7.141   2.545 122.592  0.00  0.00    +0.000 A 
ATOM      7  C   UNL     1      -5.803   2.949 122.471  0.00  0.00    +0.000 A 
ATOM      8  C   UNL     1      -5.397   3.802 121.448  0.00  0.00    +0.000 A 
BRANCH   3  10
ATOM      9  N   UNL     1      -6.423   5.211 118.251  0.00  0.00    +0.000 N 
ATOM     10  C   UNL     1      -5.899   5.262 119.512  0.00  0.00    +0.000 C 
ATOM     11  N   UNL     1      -5.001   6.123 119.834  0.00  0.00    +0.000 NA
ATOM     12  H   UNL     1      -6.253   5.975 117.612  0.00  0.00    +0.000 HD
ATOM     13  H   UNL     1      -7.285   4.701 118.095  0.00  0.00    +0.000 HD
ATOM     14  H   UNL     1      -4.752   6.692 119.023  0.00  0.00    +0.000 HD
ENDBRANCH   3  10
ENDBRANCH   1   6
BRANCH   2  15
ATOM     15  C   UNL     1      -7.168  -0.101 125.390  0.00  0.00    +0.000 A 
ATOM     16  C   UNL     1      -6.287  -0.569 126.370  0.00  0.00    +0.000 A 
ATOM     17  C   UNL     1      -6.642  -1.622 127.208  0.00  0.00    +0.000 A 
ATOM     18  C   UNL     1      -7.928  -2.174 127.148  0.00  0.00    +0.000 A 
ATOM     19  C   UNL     1      -8.809  -1.720 126.158  0.00  0.00    +0.000 A 
ATOM     20  C   UNL     1      -8.426  -0.702 125.277  0.00  0.00    +0.000 A 
BRANCH  18  21
ATOM     21  C   UNL     1      -8.348  -3.192 128.165  0.00  0.00    +0.000 C 
ATOM     22  N   UNL     1      -7.872  -3.163 129.436  0.00  0.00    +0.000 N 
ATOM     23  N   UNL     1      -9.196  -4.146 127.925  0.00  0.00    +0.000 NA
ATOM     24  H   UNL     1      -7.353  -2.394 129.829  0.00  0.00    +0.000 HD
ATOM     25  H   UNL     1      -8.321  -3.793 130.089  0.00  0.00    +0.000 HD
ATOM     26  H   UNL     1      -9.538  -4.142 126.965  0.00  0.00    +0.000 HD
ENDBRANCH  18  21
BRANCH  16  27
ATOM     27  O   UNL     1      -5.054  -0.014 126.586  0.00  0.00    +0.000 OA
ATOM     28  H   UNL     1      -5.006   0.829 126.103  0.00  0.00    +0.000 HD
ENDBRANCH  16  27
ENDBRANCH   2  15
TORSDOF 5
ENDMDL
MODEL 9
REMARK VINA RESULT:      -6.9      4.582      5.206
REMARK  Name = Hydroxystilbamidine
REMARK  5 active torsions:
REMARK  status: ('A' for Active; 'I' for Inactive)
REMARK    1  A    between atoms: C_2  and  C_4
REMARK    2  A    between atoms: C_7  and  C_8
REMARK    3  A    between atoms: C_9  and  C_10
REMARK    4  A    between atoms: C_11  and  O_12
REMARK    5  A    between atoms: C_14  and  C_17
REMARK                            x       y       z     vdW  Elec       q    Type
REMARK                         _______ _______ _______ _____ _____    ______ ____
ROOT
ATOM      1  C   UNL     1      -8.737   5.060 133.617  0.00  0.00    +0.000 C 
ATOM      2  C   UNL     1      -8.578   5.938 132.614  0.00  0.00    +0.000 C 
ENDROOT
BRANCH   1   6
ATOM      3  C   UNL     1      -5.542   4.081 136.291  0.00  0.00    +0.000 A 
ATOM      4  C   UNL     1      -6.338   5.204 136.523  0.00  0.00    +0.000 A 
ATOM      5  C   UNL     1      -7.412   5.486 135.671  0.00  0.00    +0.000 A 
ATOM      6  C   UNL     1      -7.665   4.679 134.552  0.00  0.00    +0.000 A 
ATOM      7  C   UNL     1      -6.859   3.549 134.347  0.00  0.00    +0.000 A 
ATOM      8  C   UNL     1      -5.804   3.250 135.205  0.00  0.00    +0.000 A 
BRANCH   3  10
ATOM      9  N   UNL     1      -3.350   3.071 136.799  0.00  0.00    +0.000 N 
ATOM     10  C   UNL     1      -4.481   3.687 137.253  0.00  0.00    +0.000 C 
ATOM     11  N   UNL     1      -4.676   3.900 138.506  0.00  0.00    +0.000 NA
ATOM     12  H   UNL     1      -2.565   2.949 137.425  0.00  0.00    +0.000 HD
ATOM     13  H   UNL     1      -3.111   3.137 135.817  0.00  0.00    +0.000 HD
ATOM     14  H   UNL     1      -3.902   3.520 139.052  0.00  0.00    +0.000 HD
ENDBRANCH   3  10
ENDBRANCH   1   6
BRANCH   2  15
ATOM     15  C   UNL     1      -9.653   6.371 131.722  0.00  0.00    +0.000 A 
ATOM     16  C   UNL     1      -9.370   7.057 130.537  0.00  0.00    +0.000 A 
ATOM     17  C   UNL     1     -10.391   7.591 129.757  0.00  0.00    +0.000 A 
ATOM     18  C   UNL     1     -11.732   7.372 130.097  0.00  0.00    +0.000 A 
ATOM     19  C   UNL     1     -12.021   6.700 131.292  0.00  0.00    +0.000 A 
ATOM     20  C   UNL     1     -10.989   6.217 132.104  0.00  0.00    +0.000 A 
BRANCH  18  21
ATOM     21  C   UNL     1     -12.818   7.811 129.161  0.00  0.00    +0.000 C 
ATOM     22  N   UNL     1     -13.646   6.915 128.566  0.00  0.00    +0.000 N 
ATOM     23  N   UNL     1     -13.061   9.053 128.868  0.00  0.00    +0.000 NA
ATOM     24  H   UNL     1     -13.706   5.943 128.823  0.00  0.00    +0.000 HD
ATOM     25  H   UNL     1     -14.438   7.309 128.072  0.00  0.00    +0.000 HD
ATOM     26  H   UNL     1     -12.426   9.702 129.330  0.00  0.00    +0.000 HD
ENDBRANCH  18  21
BRANCH  16  27
ATOM     27  O   UNL     1      -8.097   7.219 130.057  0.00  0.00    +0.000 OA
ATOM     28  H   UNL     1      -7.472   6.880 130.723  0.00  0.00    +0.000 HD
ENDBRANCH  16  27
ENDBRANCH   2  15
TORSDOF 5
ENDMDL
