MODEL 1
REMARK VINA RESULT:      -4.6      0.000      0.000
REMARK  Name = Hydroquinone
REMARK  2 active torsions:
REMARK  status: ('A' for Active; 'I' for Inactive)
REMARK    1  A    between atoms: O_1  and  C_2
REMARK    2  A    between atoms: C_5  and  O_6
REMARK                            x       y       z     vdW  Elec       q    Type
REMARK                         _______ _______ _______ _____ _____    ______ ____
ROOT
ATOM      1  C   UNL     1     -12.530   7.424 129.279  0.00  0.00    +0.000 A 
ATOM      2  C   UNL     1     -13.175   6.920 128.151  0.00  0.00    +0.000 A 
ATOM      3  C   UNL     1     -12.602   7.107 126.890  0.00  0.00    +0.000 A 
ATOM      4  C   UNL     1     -11.394   7.792 126.780  0.00  0.00    +0.000 A 
ATOM      5  C   UNL     1     -10.756   8.298 127.907  0.00  0.00    +0.000 A 
ATOM      6  C   UNL     1     -11.329   8.114 129.165  0.00  0.00    +0.000 A 
ENDROOT
BRANCH   1   7
ATOM      7  O   UNL     1     -13.048   7.258 130.530  0.00  0.00    +0.000 OA
ATOM      8  H   UNL     1     -12.450   6.694 131.046  0.00  0.00    +0.000 HD
ENDBRANCH   1   7
BRANCH   4   9
ATOM      9  O   UNL     1     -10.791   7.991 125.573  0.00  0.00    +0.000 OA
ATOM     10  H   UNL     1      -9.909   7.585 125.590  0.00  0.00    +0.000 HD
ENDBRANCH   4   9
TORSDOF 2
ENDMDL
MODEL 2
REMARK VINA RESULT:      -4.6      1.906      2.296
REMARK  Name = Hydroquinone
REMARK  2 active torsions:
REMARK  status: ('A' for Active; 'I' for Inactive)
REMARK    1  A    between atoms: O_1  and  C_2
REMARK    2  A    between atoms: C_5  and  O_6
REMARK                            x       y       z     vdW  Elec       q    Type
REMARK                         _______ _______ _______ _____ _____    ______ ____
ROOT
ATOM      1  C   UNL     1     -11.750   6.769 131.118  0.00  0.00    +0.000 A 
ATOM      2  C   UNL     1     -12.727   7.533 130.482  0.00  0.00    +0.000 A 
ATOM      3  C   UNL     1     -12.388   8.277 129.347  0.00  0.00    +0.000 A 
ATOM      4  C   UNL     1     -11.080   8.241 128.869  0.00  0.00    +0.000 A 
ATOM      5  C   UNL     1     -10.107   7.481 129.510  0.00  0.00    +0.000 A 
ATOM      6  C   UNL     1     -10.444   6.741 130.642  0.00  0.00    +0.000 A 
ENDROOT
BRANCH   1   7
ATOM      7  O   UNL     1     -12.037   6.021 132.221  0.00  0.00    +0.000 OA
ATOM      8  H   UNL     1     -12.995   6.043 132.376  0.00  0.00    +0.000 HD
ENDBRANCH   1   7
BRANCH   4   9
ATOM      9  O   UNL     1     -10.703   8.941 127.761  0.00  0.00    +0.000 OA
ATOM     10  H   UNL     1      -9.791   8.701 127.531  0.00  0.00    +0.000 HD
ENDBRANCH   4   9
TORSDOF 2
ENDMDL
MODEL 3
REMARK VINA RESULT:      -4.6      1.882      4.059
REMARK  Name = Hydroquinone
REMARK  2 active torsions:
REMARK  status: ('A' for Active; 'I' for Inactive)
REMARK    1  A    between atoms: O_1  and  C_2
REMARK    2  A    between atoms: C_5  and  O_6
REMARK                            x       y       z     vdW  Elec       q    Type
REMARK                         _______ _______ _______ _____ _____    ______ ____
ROOT
ATOM      1  C   UNL     1     -11.101   8.213 128.868  0.00  0.00    +0.000 A 
ATOM      2  C   UNL     1     -10.076   7.530 129.520  0.00  0.00    +0.000 A 
ATOM      3  C   UNL     1     -10.368   6.781 130.664  0.00  0.00    +0.000 A 
ATOM      4  C   UNL     1     -11.679   6.727 131.133  0.00  0.00    +0.000 A 
ATOM      5  C   UNL     1     -12.697   7.415 130.483  0.00  0.00    +0.000 A 
ATOM      6  C   UNL     1     -12.407   8.164 129.343  0.00  0.00    +0.000 A 
ENDROOT
BRANCH   1   7
ATOM      7  O   UNL     1     -10.866   8.949 127.744  0.00  0.00    +0.000 OA
ATOM      8  H   UNL     1     -10.703   9.871 128.000  0.00  0.00    +0.000 HD
ENDBRANCH   1   7
BRANCH   4   9
ATOM      9  O   UNL     1     -12.014   6.003 132.239  0.00  0.00    +0.000 OA
ATOM     10  H   UNL     1     -12.872   5.575 132.087  0.00  0.00    +0.000 HD
ENDBRANCH   4   9
TORSDOF 2
ENDMDL
MODEL 4
REMARK VINA RESULT:      -4.6      0.027      3.232
REMARK  Name = Hydroquinone
REMARK  2 active torsions:
REMARK  status: ('A' for Active; 'I' for Inactive)
REMARK    1  A    between atoms: O_1  and  C_2
REMARK    2  A    between atoms: C_5  and  O_6
REMARK                            x       y       z     vdW  Elec       q    Type
REMARK                         _______ _______ _______ _____ _____    ______ ____
ROOT
ATOM      1  C   UNL     1     -11.385   7.782 126.762  0.00  0.00    +0.000 A 
ATOM      2  C   UNL     1     -12.594   7.098 126.870  0.00  0.00    +0.000 A 
ATOM      3  C   UNL     1     -13.175   6.921 128.130  0.00  0.00    +0.000 A 
ATOM      4  C   UNL     1     -12.535   7.433 129.257  0.00  0.00    +0.000 A 
ATOM      5  C   UNL     1     -11.326   8.109 129.146  0.00  0.00    +0.000 A 
ATOM      6  C   UNL     1     -10.746   8.284 127.890  0.00  0.00    +0.000 A 
ENDROOT
BRANCH   1   7
ATOM      7  O   UNL     1     -10.787   7.986 125.553  0.00  0.00    +0.000 OA
ATOM      8  H   UNL     1      -9.886   8.317 125.700  0.00  0.00    +0.000 HD
ENDBRANCH   1   7
BRANCH   4   9
ATOM      9  O   UNL     1     -13.066   7.293 130.506  0.00  0.00    +0.000 OA
ATOM     10  H   UNL     1     -13.000   6.362 130.774  0.00  0.00    +0.000 HD
ENDBRANCH   4   9
TORSDOF 2
ENDMDL
MODEL 5
REMARK VINA RESULT:      -4.5      1.875      2.662
REMARK  Name = Hydroquinone
REMARK  2 active torsions:
REMARK  status: ('A' for Active; 'I' for Inactive)
REMARK    1  A    between atoms: O_1  and  C_2
REMARK    2  A    between atoms: C_5  and  O_6
REMARK                            x       y       z     vdW  Elec       q    Type
REMARK                         _______ _______ _______ _____ _____    ______ ____
ROOT
ATOM      1  C   UNL     1     -11.688   6.737 131.127  0.00  0.00    +0.000 A 
ATOM      2  C   UNL     1     -10.371   6.760 130.670  0.00  0.00    +0.000 A 
ATOM      3  C   UNL     1     -10.053   7.498 129.526  0.00  0.00    +0.000 A 
ATOM      4  C   UNL     1     -11.056   8.201 128.862  0.00  0.00    +0.000 A 
ATOM      5  C   UNL     1     -12.369   8.171 129.318  0.00  0.00    +0.000 A 
ATOM      6  C   UNL     1     -12.687   7.433 130.457  0.00  0.00    +0.000 A 
ENDROOT
BRANCH   1   7
ATOM      7  O   UNL     1     -12.042   6.038 132.243  0.00  0.00    +0.000 OA
ATOM      8  H   UNL     1     -12.723   5.388 132.004  0.00  0.00    +0.000 HD
ENDBRANCH   1   7
BRANCH   4   9
ATOM      9  O   UNL     1     -10.794   8.942 127.748  0.00  0.00    +0.000 OA
ATOM     10  H   UNL     1     -11.183   9.825 127.857  0.00  0.00    +0.000 HD
ENDBRANCH   4   9
TORSDOF 2
ENDMDL
MODEL 6
REMARK VINA RESULT:      -4.4      9.522     10.781
REMARK  Name = Hydroquinone
REMARK  2 active torsions:
REMARK  status: ('A' for Active; 'I' for Inactive)
REMARK    1  A    between atoms: O_1  and  C_2
REMARK    2  A    between atoms: C_5  and  O_6
REMARK                            x       y       z     vdW  Elec       q    Type
REMARK                         _______ _______ _______ _____ _____    ______ ____
ROOT
ATOM      1  C   UNL     1      -5.975   5.286 119.087  0.00  0.00    +0.000 A 
ATOM      2  C   UNL     1      -5.044   5.166 120.118  0.00  0.00    +0.000 A 
ATOM      3  C   UNL     1      -5.345   4.371 121.228  0.00  0.00    +0.000 A 
ATOM      4  C   UNL     1      -6.570   3.709 121.285  0.00  0.00    +0.000 A 
ATOM      5  C   UNL     1      -7.498   3.836 120.258  0.00  0.00    +0.000 A 
ATOM      6  C   UNL     1      -7.199   4.630 119.152  0.00  0.00    +0.000 A 
ENDROOT
BRANCH   1   7
ATOM      7  O   UNL     1      -5.721   6.043 117.982  0.00  0.00    +0.000 OA
ATOM      8  H   UNL     1      -6.406   6.728 117.905  0.00  0.00    +0.000 HD
ENDBRANCH   1   7
BRANCH   4   9
ATOM      9  O   UNL     1      -6.905   2.915 122.342  0.00  0.00    +0.000 OA
ATOM     10  H   UNL     1      -6.489   3.267 123.146  0.00  0.00    +0.000 HD
ENDBRANCH   4   9
TORSDOF 2
ENDMDL
MODEL 7
REMARK VINA RESULT:      -4.2     11.888     12.402
REMARK  Name = Hydroquinone
REMARK  2 active torsions:
REMARK  status: ('A' for Active; 'I' for Inactive)
REMARK    1  A    between atoms: O_1  and  C_2
REMARK    2  A    between atoms: C_5  and  O_6
REMARK                            x       y       z     vdW  Elec       q    Type
REMARK                         _______ _______ _______ _____ _____    ______ ____
ROOT
ATOM      1  C   UNL     1      -8.858  -2.973 123.427  0.00  0.00    +0.000 A 
ATOM      2  C   UNL     1      -8.206  -2.050 122.612  0.00  0.00    +0.000 A 
ATOM      3  C   UNL     1      -6.822  -1.886 122.727  0.00  0.00    +0.000 A 
ATOM      4  C   UNL     1      -6.116  -2.650 123.654  0.00  0.00    +0.000 A 
ATOM      5  C   UNL     1      -6.771  -3.565 124.470  0.00  0.00    +0.000 A 
ATOM      6  C   UNL     1      -8.151  -3.727 124.356  0.00  0.00    +0.000 A 
ENDROOT
BRANCH   1   7
ATOM      7  O   UNL     1     -10.204  -3.172 123.344  0.00  0.00    +0.000 OA
ATOM      8  H   UNL     1     -10.422  -3.477 122.448  0.00  0.00    +0.000 HD
ENDBRANCH   1   7
BRANCH   4   9
ATOM      9  O   UNL     1      -4.765  -2.532 123.797  0.00  0.00    +0.000 OA
ATOM     10  H   UNL     1      -4.348  -2.600 122.923  0.00  0.00    +0.000 HD
ENDBRANCH   4   9
TORSDOF 2
ENDMDL
MODEL 8
REMARK VINA RESULT:      -4.1     11.945     12.523
REMARK  Name = Hydroquinone
REMARK  2 active torsions:
REMARK  status: ('A' for Active; 'I' for Inactive)
REMARK    1  A    between atoms: O_1  and  C_2
REMARK    2  A    between atoms: C_5  and  O_6
REMARK                            x       y       z     vdW  Elec       q    Type
REMARK                         _______ _______ _______ _____ _____    ______ ____
ROOT
ATOM      1  C   UNL     1      -6.197  -2.654 123.798  0.00  0.00    +0.000 A 
ATOM      2  C   UNL     1      -6.831  -3.569 124.636  0.00  0.00    +0.000 A 
ATOM      3  C   UNL     1      -8.204  -3.792 124.499  0.00  0.00    +0.000 A 
ATOM      4  C   UNL     1      -8.918  -3.096 123.525  0.00  0.00    +0.000 A 
ATOM      5  C   UNL     1      -8.283  -2.179 122.695  0.00  0.00    +0.000 A 
ATOM      6  C   UNL     1      -6.914  -1.956 122.833  0.00  0.00    +0.000 A 
ENDROOT
BRANCH   1   7
ATOM      7  O   UNL     1      -4.858  -2.411 123.890  0.00  0.00    +0.000 OA
ATOM      8  H   UNL     1      -4.646  -2.160 124.803  0.00  0.00    +0.000 HD
ENDBRANCH   1   7
BRANCH   4   9
ATOM      9  O   UNL     1     -10.256  -3.285 123.347  0.00  0.00    +0.000 OA
ATOM     10  H   UNL     1     -10.430  -3.448 122.405  0.00  0.00    +0.000 HD
ENDBRANCH   4   9
TORSDOF 2
ENDMDL
MODEL 9
REMARK VINA RESULT:      -4.1      3.663      5.112
REMARK  Name = Hydroquinone
REMARK  2 active torsions:
REMARK  status: ('A' for Active; 'I' for Inactive)
REMARK    1  A    between atoms: O_1  and  C_2
REMARK    2  A    between atoms: C_5  and  O_6
REMARK                            x       y       z     vdW  Elec       q    Type
REMARK                         _______ _______ _______ _____ _____    ______ ____
ROOT
ATOM      1  C   UNL     1      -8.359   6.905 130.907  0.00  0.00    +0.000 A 
ATOM      2  C   UNL     1      -9.392   7.312 130.064  0.00  0.00    +0.000 A 
ATOM      3  C   UNL     1     -10.717   7.041 130.417  0.00  0.00    +0.000 A 
ATOM      4  C   UNL     1     -10.985   6.370 131.609  0.00  0.00    +0.000 A 
ATOM      5  C   UNL     1      -9.952   5.960 132.445  0.00  0.00    +0.000 A 
ATOM      6  C   UNL     1      -8.631   6.229 132.091  0.00  0.00    +0.000 A 
ENDROOT
BRANCH   1   7
ATOM      7  O   UNL     1      -7.053   7.156 130.607  0.00  0.00    +0.000 OA
ATOM      8  H   UNL     1      -7.015   7.752 129.841  0.00  0.00    +0.000 HD
ENDBRANCH   1   7
BRANCH   4   9
ATOM      9  O   UNL     1     -12.261   6.090 132.001  0.00  0.00    +0.000 OA
ATOM     10  H   UNL     1     -12.251   5.813 132.932  0.00  0.00    +0.000 HD
ENDBRANCH   4   9
TORSDOF 2
ENDMDL
