MODEL 1
REMARK VINA RESULT:      -7.3      0.000      0.000
REMARK  Name = Hyoscyamine
REMARK  7 active torsions:
REMARK  status: ('A' for Active; 'I' for Inactive)
REMARK    1  A    between atoms: C_1  and  N_2
REMARK    2  A    between atoms: C_8  and  O_10
REMARK    3  A    between atoms: O_10  and  C_11
REMARK    4  A    between atoms: C_11  and  C_13
REMARK    5  A    between atoms: C_13  and  C_14
REMARK    6  A    between atoms: C_13  and  C_16
REMARK    7  A    between atoms: C_14  and  O_15
REMARK                            x       y       z     vdW  Elec       q    Type
REMARK                         _______ _______ _______ _____ _____    ______ ____
ROOT
ATOM      1  C   UNL     1      -7.341   2.263 123.995  0.00  0.00    +0.000 C 
ATOM      2  O   UNL     1      -8.138   2.816 124.753  0.00  0.00    +0.000 OA
ENDROOT
BRANCH   1   3
ATOM      3  O   UNL     1      -7.275   0.914 123.824  0.00  0.00    +0.000 OA
BRANCH   3  11
ATOM      4  C   UNL     1      -9.270  -3.412 124.372  0.00  0.00    +0.000 C 
ATOM      5  N   UNL     1      -8.007  -2.876 123.906  0.00  0.00    +0.000 NA
ATOM      6  C   UNL     1      -7.250  -2.107 124.894  0.00  0.00    +0.000 C 
ATOM      7  C   UNL     1      -6.028  -1.737 124.047  0.00  0.00    +0.000 C 
ATOM      8  C   UNL     1      -6.555  -1.686 122.605  0.00  0.00    +0.000 C 
ATOM      9  C   UNL     1      -8.052  -1.991 122.738  0.00  0.00    +0.000 C 
ATOM     10  C   UNL     1      -8.876  -0.705 122.991  0.00  0.00    +0.000 C 
ATOM     11  C   UNL     1      -8.401   0.092 124.230  0.00  0.00    +0.000 C 
ATOM     12  C   UNL     1      -8.031  -0.870 125.375  0.00  0.00    +0.000 C 
ENDBRANCH   3  11
ENDBRANCH   1   3
BRANCH   1  13
ATOM     13  C   UNL     1      -6.312   3.018 123.142  0.00  0.00    +0.000 C 
BRANCH  13  14
ATOM     14  C   UNL     1      -6.955   3.520 121.848  0.00  0.00    +0.000 A 
ATOM     15  C   UNL     1      -8.341   3.443 121.637  0.00  0.00    +0.000 A 
ATOM     16  C   UNL     1      -8.902   3.776 120.406  0.00  0.00    +0.000 A 
ATOM     17  C   UNL     1      -8.094   4.260 119.384  0.00  0.00    +0.000 A 
ATOM     18  C   UNL     1      -6.717   4.361 119.578  0.00  0.00    +0.000 A 
ATOM     19  C   UNL     1      -6.148   3.983 120.796  0.00  0.00    +0.000 A 
ENDBRANCH  13  14
BRANCH  13  20
ATOM     20  C   UNL     1      -5.603   4.144 123.918  0.00  0.00    +0.000 C 
BRANCH  20  21
ATOM     21  O   UNL     1      -6.510   5.163 124.337  0.00  0.00    +0.000 OA
ATOM     22  H   UNL     1      -6.987   5.480 123.550  0.00  0.00    +0.000 HD
ENDBRANCH  20  21
ENDBRANCH  13  20
ENDBRANCH   1  13
TORSDOF 6
ENDMDL
MODEL 2
REMARK VINA RESULT:      -7.3      1.519      2.952
REMARK  Name = Hyoscyamine
REMARK  7 active torsions:
REMARK  status: ('A' for Active; 'I' for Inactive)
REMARK    1  A    between atoms: C_1  and  N_2
REMARK    2  A    between atoms: C_8  and  O_10
REMARK    3  A    between atoms: O_10  and  C_11
REMARK    4  A    between atoms: C_11  and  C_13
REMARK    5  A    between atoms: C_13  and  C_14
REMARK    6  A    between atoms: C_13  and  C_16
REMARK    7  A    between atoms: C_14  and  O_15
REMARK                            x       y       z     vdW  Elec       q    Type
REMARK                         _______ _______ _______ _____ _____    ______ ____
ROOT
ATOM      1  C   UNL     1      -8.844   1.696 124.461  0.00  0.00    +0.000 C 
ATOM      2  O   UNL     1      -8.608   2.475 125.385  0.00  0.00    +0.000 OA
ENDROOT
BRANCH   1   3
ATOM      3  O   UNL     1      -8.616   0.356 124.527  0.00  0.00    +0.000 OA
BRANCH   3  11
ATOM      4  C   UNL     1      -5.512  -3.285 124.216  0.00  0.00    +0.000 C 
ATOM      5  N   UNL     1      -6.950  -3.108 124.171  0.00  0.00    +0.000 NA
ATOM      6  C   UNL     1      -7.442  -2.257 123.089  0.00  0.00    +0.000 C 
ATOM      7  C   UNL     1      -8.946  -2.327 123.375  0.00  0.00    +0.000 C 
ATOM      8  C   UNL     1      -9.044  -2.551 124.892  0.00  0.00    +0.000 C 
ATOM      9  C   UNL     1      -7.587  -2.552 125.369  0.00  0.00    +0.000 C 
ATOM     10  C   UNL     1      -7.095  -1.122 125.700  0.00  0.00    +0.000 C 
ATOM     11  C   UNL     1      -7.249  -0.133 124.521  0.00  0.00    +0.000 C 
ATOM     12  C   UNL     1      -6.889  -0.824 123.192  0.00  0.00    +0.000 C 
ENDBRANCH   3  11
ENDBRANCH   1   3
BRANCH   1  13
ATOM     13  C   UNL     1      -9.425   2.131 123.108  0.00  0.00    +0.000 C 
BRANCH  13  14
ATOM     14  C   UNL     1      -8.363   2.858 122.280  0.00  0.00    +0.000 A 
ATOM     15  C   UNL     1      -8.680   3.481 121.061  0.00  0.00    +0.000 A 
ATOM     16  C   UNL     1      -7.685   4.021 120.249  0.00  0.00    +0.000 A 
ATOM     17  C   UNL     1      -6.362   4.013 120.674  0.00  0.00    +0.000 A 
ATOM     18  C   UNL     1      -6.028   3.416 121.888  0.00  0.00    +0.000 A 
ATOM     19  C   UNL     1      -7.018   2.831 122.682  0.00  0.00    +0.000 A 
ENDBRANCH  13  14
BRANCH  13  20
ATOM     20  C   UNL     1     -10.072   0.968 122.334  0.00  0.00    +0.000 C 
BRANCH  20  21
ATOM     21  O   UNL     1     -11.350   0.613 122.862  0.00  0.00    +0.000 OA
ATOM     22  H   UNL     1     -11.990   1.287 122.571  0.00  0.00    +0.000 HD
ENDBRANCH  20  21
ENDBRANCH  13  20
ENDBRANCH   1  13
TORSDOF 6
ENDMDL
MODEL 3
REMARK VINA RESULT:      -7.1      3.196      6.682
REMARK  Name = Hyoscyamine
REMARK  7 active torsions:
REMARK  status: ('A' for Active; 'I' for Inactive)
REMARK    1  A    between atoms: C_1  and  N_2
REMARK    2  A    between atoms: C_8  and  O_10
REMARK    3  A    between atoms: O_10  and  C_11
REMARK    4  A    between atoms: C_11  and  C_13
REMARK    5  A    between atoms: C_13  and  C_14
REMARK    6  A    between atoms: C_13  and  C_16
REMARK    7  A    between atoms: C_14  and  O_15
REMARK                            x       y       z     vdW  Elec       q    Type
REMARK                         _______ _______ _______ _____ _____    ______ ____
ROOT
ATOM      1  C   UNL     1      -7.411  -1.821 123.264  0.00  0.00    +0.000 C 
ATOM      2  O   UNL     1      -6.541  -1.751 122.397  0.00  0.00    +0.000 OA
ENDROOT
BRANCH   1   3
ATOM      3  O   UNL     1      -8.143  -0.753 123.688  0.00  0.00    +0.000 OA
BRANCH   3  11
ATOM      4  C   UNL     1      -7.935   3.854 125.001  0.00  0.00    +0.000 C 
ATOM      5  N   UNL     1      -8.607   2.650 125.450  0.00  0.00    +0.000 NA
ATOM      6  C   UNL     1      -7.725   1.560 125.867  0.00  0.00    +0.000 C 
ATOM      7  C   UNL     1      -8.778   0.518 126.259  0.00  0.00    +0.000 C 
ATOM      8  C   UNL     1      -9.990   0.835 125.371  0.00  0.00    +0.000 C 
ATOM      9  C   UNL     1      -9.526   2.011 124.504  0.00  0.00    +0.000 C 
ATOM     10  C   UNL     1      -8.819   1.526 123.215  0.00  0.00    +0.000 C 
ATOM     11  C   UNL     1      -7.620   0.588 123.491  0.00  0.00    +0.000 C 
ATOM     12  C   UNL     1      -6.824   1.082 124.713  0.00  0.00    +0.000 C 
ENDBRANCH   3  11
ENDBRANCH   1   3
BRANCH   1  13
ATOM     13  C   UNL     1      -7.789  -3.120 123.989  0.00  0.00    +0.000 C 
BRANCH  13  14
ATOM     14  C   UNL     1      -7.584  -2.969 125.498  0.00  0.00    +0.000 A 
ATOM     15  C   UNL     1      -8.588  -3.318 126.416  0.00  0.00    +0.000 A 
ATOM     16  C   UNL     1      -8.445  -3.050 127.776  0.00  0.00    +0.000 A 
ATOM     17  C   UNL     1      -7.264  -2.494 128.253  0.00  0.00    +0.000 A 
ATOM     18  C   UNL     1      -6.247  -2.157 127.361  0.00  0.00    +0.000 A 
ATOM     19  C   UNL     1      -6.408  -2.380 125.992  0.00  0.00    +0.000 A 
ENDBRANCH  13  14
BRANCH  13  20
ATOM     20  C   UNL     1      -9.207  -3.609 123.640  0.00  0.00    +0.000 C 
BRANCH  20  21
ATOM     21  O   UNL     1     -10.081  -2.533 123.303  0.00  0.00    +0.000 OA
ATOM     22  H   UNL     1     -10.645  -2.826 122.566  0.00  0.00    +0.000 HD
ENDBRANCH  20  21
ENDBRANCH  13  20
ENDBRANCH   1  13
TORSDOF 6
ENDMDL
MODEL 4
REMARK VINA RESULT:      -7.1      1.007      2.156
REMARK  Name = Hyoscyamine
REMARK  7 active torsions:
REMARK  status: ('A' for Active; 'I' for Inactive)
REMARK    1  A    between atoms: C_1  and  N_2
REMARK    2  A    between atoms: C_8  and  O_10
REMARK    3  A    between atoms: O_10  and  C_11
REMARK    4  A    between atoms: C_11  and  C_13
REMARK    5  A    between atoms: C_13  and  C_14
REMARK    6  A    between atoms: C_13  and  C_16
REMARK    7  A    between atoms: C_14  and  O_15
REMARK                            x       y       z     vdW  Elec       q    Type
REMARK                         _______ _______ _______ _____ _____    ______ ____
ROOT
ATOM      1  C   UNL     1      -8.110   2.081 124.460  0.00  0.00    +0.000 C 
ATOM      2  O   UNL     1      -9.006   2.709 125.021  0.00  0.00    +0.000 OA
ENDROOT
BRANCH   1   3
ATOM      3  O   UNL     1      -8.110   0.726 124.320  0.00  0.00    +0.000 OA
BRANCH   3  11
ATOM      4  C   UNL     1      -5.646  -3.383 124.129  0.00  0.00    +0.000 C 
ATOM      5  N   UNL     1      -7.034  -2.981 124.246  0.00  0.00    +0.000 NA
ATOM      6  C   UNL     1      -7.554  -2.196 123.126  0.00  0.00    +0.000 C 
ATOM      7  C   UNL     1      -8.992  -1.985 123.610  0.00  0.00    +0.000 C 
ATOM      8  C   UNL     1      -8.895  -2.008 125.143  0.00  0.00    +0.000 C 
ATOM      9  C   UNL     1      -7.398  -2.189 125.424  0.00  0.00    +0.000 C 
ATOM     10  C   UNL     1      -6.661  -0.829 125.485  0.00  0.00    +0.000 C 
ATOM     11  C   UNL     1      -6.844   0.024 124.207  0.00  0.00    +0.000 C 
ATOM     12  C   UNL     1      -6.790  -0.870 122.954  0.00  0.00    +0.000 C 
ENDBRANCH   3  11
ENDBRANCH   1   3
BRANCH   1  13
ATOM     13  C   UNL     1      -6.867   2.737 123.843  0.00  0.00    +0.000 C 
BRANCH  13  14
ATOM     14  C   UNL     1      -7.150   3.170 122.403  0.00  0.00    +0.000 A 
ATOM     15  C   UNL     1      -6.118   3.574 121.540  0.00  0.00    +0.000 A 
ATOM     16  C   UNL     1      -6.398   4.096 120.278  0.00  0.00    +0.000 A 
ATOM     17  C   UNL     1      -7.711   4.156 119.828  0.00  0.00    +0.000 A 
ATOM     18  C   UNL     1      -8.749   3.743 120.662  0.00  0.00    +0.000 A 
ATOM     19  C   UNL     1      -8.474   3.265 121.945  0.00  0.00    +0.000 A 
ENDBRANCH  13  14
BRANCH  13  20
ATOM     20  C   UNL     1      -6.312   3.890 124.700  0.00  0.00    +0.000 C 
BRANCH  20  21
ATOM     21  O   UNL     1      -7.189   5.015 124.725  0.00  0.00    +0.000 OA
ATOM     22  H   UNL     1      -6.705   5.779 124.365  0.00  0.00    +0.000 HD
ENDBRANCH  20  21
ENDBRANCH  13  20
ENDBRANCH   1  13
TORSDOF 6
ENDMDL
MODEL 5
REMARK VINA RESULT:      -7.0      8.075      9.323
REMARK  Name = Hyoscyamine
REMARK  7 active torsions:
REMARK  status: ('A' for Active; 'I' for Inactive)
REMARK    1  A    between atoms: C_1  and  N_2
REMARK    2  A    between atoms: C_8  and  O_10
REMARK    3  A    between atoms: O_10  and  C_11
REMARK    4  A    between atoms: C_11  and  C_13
REMARK    5  A    between atoms: C_13  and  C_14
REMARK    6  A    between atoms: C_13  and  C_16
REMARK    7  A    between atoms: C_14  and  O_15
REMARK                            x       y       z     vdW  Elec       q    Type
REMARK                         _______ _______ _______ _____ _____    ______ ____
ROOT
ATOM      1  C   UNL     1      -9.826   5.831 129.747  0.00  0.00    +0.000 C 
ATOM      2  O   UNL     1      -9.424   6.034 128.602  0.00  0.00    +0.000 OA
ENDROOT
BRANCH   1   3
ATOM      3  O   UNL     1      -9.545   4.704 130.457  0.00  0.00    +0.000 OA
BRANCH   3  11
ATOM      4  C   UNL     1      -6.568   1.068 131.408  0.00  0.00    +0.000 C 
ATOM      5  N   UNL     1      -7.834   1.563 131.910  0.00  0.00    +0.000 NA
ATOM      6  C   UNL     1      -8.924   1.596 130.934  0.00  0.00    +0.000 C 
ATOM      7  C   UNL     1     -10.043   2.150 131.822  0.00  0.00    +0.000 C 
ATOM      8  C   UNL     1      -9.319   3.007 132.872  0.00  0.00    +0.000 C 
ATOM      9  C   UNL     1      -7.839   2.913 132.482  0.00  0.00    +0.000 C 
ATOM     10  C   UNL     1      -7.450   4.002 131.453  0.00  0.00    +0.000 C 
ATOM     11  C   UNL     1      -8.321   3.975 130.175  0.00  0.00    +0.000 C 
ATOM     12  C   UNL     1      -8.600   2.522 129.747  0.00  0.00    +0.000 C 
ENDBRANCH   3  11
ENDBRANCH   1   3
BRANCH   1  13
ATOM     13  C   UNL     1     -10.702   6.819 130.530  0.00  0.00    +0.000 C 
BRANCH  13  14
ATOM     14  C   UNL     1     -11.871   7.298 129.667  0.00  0.00    +0.000 A 
ATOM     15  C   UNL     1     -12.736   6.392 129.032  0.00  0.00    +0.000 A 
ATOM     16  C   UNL     1     -13.712   6.832 128.140  0.00  0.00    +0.000 A 
ATOM     17  C   UNL     1     -13.887   8.194 127.921  0.00  0.00    +0.000 A 
ATOM     18  C   UNL     1     -13.051   9.111 128.554  0.00  0.00    +0.000 A 
ATOM     19  C   UNL     1     -12.041   8.668 129.412  0.00  0.00    +0.000 A 
ENDBRANCH  13  14
BRANCH  13  20
ATOM     20  C   UNL     1     -11.169   6.258 131.886  0.00  0.00    +0.000 C 
BRANCH  20  21
ATOM     21  O   UNL     1     -10.176   6.400 132.900  0.00  0.00    +0.000 OA
ATOM     22  H   UNL     1      -9.434   6.905 132.522  0.00  0.00    +0.000 HD
ENDBRANCH  20  21
ENDBRANCH  13  20
ENDBRANCH   1  13
TORSDOF 6
ENDMDL
MODEL 6
REMARK VINA RESULT:      -6.8      1.811      3.083
REMARK  Name = Hyoscyamine
REMARK  7 active torsions:
REMARK  status: ('A' for Active; 'I' for Inactive)
REMARK    1  A    between atoms: C_1  and  N_2
REMARK    2  A    between atoms: C_8  and  O_10
REMARK    3  A    between atoms: O_10  and  C_11
REMARK    4  A    between atoms: C_11  and  C_13
REMARK    5  A    between atoms: C_13  and  C_14
REMARK    6  A    between atoms: C_13  and  C_16
REMARK    7  A    between atoms: C_14  and  O_15
REMARK                            x       y       z     vdW  Elec       q    Type
REMARK                         _______ _______ _______ _____ _____    ______ ____
ROOT
ATOM      1  C   UNL     1      -8.830   2.478 124.528  0.00  0.00    +0.000 C 
ATOM      2  O   UNL     1      -8.682   3.504 125.190  0.00  0.00    +0.000 OA
ENDROOT
BRANCH   1   3
ATOM      3  O   UNL     1      -8.594   1.227 125.012  0.00  0.00    +0.000 OA
BRANCH   3  11
ATOM      4  C   UNL     1      -5.585  -1.661 127.377  0.00  0.00    +0.000 C 
ATOM      5  N   UNL     1      -6.572  -1.789 126.323  0.00  0.00    +0.000 NA
ATOM      6  C   UNL     1      -6.302  -1.011 125.114  0.00  0.00    +0.000 C 
ATOM      7  C   UNL     1      -7.522  -1.408 124.278  0.00  0.00    +0.000 C 
ATOM      8  C   UNL     1      -8.617  -1.719 125.309  0.00  0.00    +0.000 C 
ATOM      9  C   UNL     1      -7.954  -1.435 126.662  0.00  0.00    +0.000 C 
ATOM     10  C   UNL     1      -8.109   0.049 127.074  0.00  0.00    +0.000 C 
ATOM     11  C   UNL     1      -7.563   1.038 126.016  0.00  0.00    +0.000 C 
ATOM     12  C   UNL     1      -6.255   0.501 125.406  0.00  0.00    +0.000 C 
ENDBRANCH   3  11
ENDBRANCH   1   3
BRANCH   1  13
ATOM     13  C   UNL     1      -9.297   2.467 123.065  0.00  0.00    +0.000 C 
BRANCH  13  14
ATOM     14  C   UNL     1      -8.216   3.052 122.154  0.00  0.00    +0.000 A 
ATOM     15  C   UNL     1      -8.538   3.678 120.939  0.00  0.00    +0.000 A 
ATOM     16  C   UNL     1      -7.542   4.085 120.053  0.00  0.00    +0.000 A 
ATOM     17  C   UNL     1      -6.204   3.938 120.398  0.00  0.00    +0.000 A 
ATOM     18  C   UNL     1      -5.863   3.335 121.607  0.00  0.00    +0.000 A 
ATOM     19  C   UNL     1      -6.860   2.883 122.475  0.00  0.00    +0.000 A 
ENDBRANCH  13  14
BRANCH  13  20
ATOM     20  C   UNL     1      -9.764   1.076 122.598  0.00  0.00    +0.000 C 
BRANCH  20  21
ATOM     21  O   UNL     1     -10.942   0.645 123.279  0.00  0.00    +0.000 OA
ATOM     22  H   UNL     1     -11.377  -0.028 122.726  0.00  0.00    +0.000 HD
ENDBRANCH  20  21
ENDBRANCH  13  20
ENDBRANCH   1  13
TORSDOF 6
ENDMDL
MODEL 7
REMARK VINA RESULT:      -6.6      8.748     10.045
REMARK  Name = Hyoscyamine
REMARK  7 active torsions:
REMARK  status: ('A' for Active; 'I' for Inactive)
REMARK    1  A    between atoms: C_1  and  N_2
REMARK    2  A    between atoms: C_8  and  O_10
REMARK    3  A    between atoms: O_10  and  C_11
REMARK    4  A    between atoms: C_11  and  C_13
REMARK    5  A    between atoms: C_13  and  C_14
REMARK    6  A    between atoms: C_13  and  C_16
REMARK    7  A    between atoms: C_14  and  O_15
REMARK                            x       y       z     vdW  Elec       q    Type
REMARK                         _______ _______ _______ _____ _____    ______ ____
ROOT
ATOM      1  C   UNL     1      -9.110   5.548 130.534  0.00  0.00    +0.000 C 
ATOM      2  O   UNL     1      -9.429   4.361 130.470  0.00  0.00    +0.000 OA
ENDROOT
BRANCH   1   3
ATOM      3  O   UNL     1      -7.861   6.010 130.251  0.00  0.00    +0.000 OA
BRANCH   3  11
ATOM      4  C   UNL     1      -3.941   6.532 132.963  0.00  0.00    +0.000 C 
ATOM      5  N   UNL     1      -4.408   5.623 131.935  0.00  0.00    +0.000 NA
ATOM      6  C   UNL     1      -4.687   6.237 130.637  0.00  0.00    +0.000 C 
ATOM      7  C   UNL     1      -5.132   4.994 129.859  0.00  0.00    +0.000 C 
ATOM      8  C   UNL     1      -5.733   4.063 130.922  0.00  0.00    +0.000 C 
ATOM      9  C   UNL     1      -5.626   4.861 132.227  0.00  0.00    +0.000 C 
ATOM     10  C   UNL     1      -6.863   5.766 132.446  0.00  0.00    +0.000 C 
ATOM     11  C   UNL     1      -7.126   6.737 131.271  0.00  0.00    +0.000 C 
ATOM     12  C   UNL     1      -5.797   7.300 130.733  0.00  0.00    +0.000 C 
ENDBRANCH   3  11
ENDBRANCH   1   3
BRANCH   1  13
ATOM     13  C   UNL     1     -10.075   6.669 130.945  0.00  0.00    +0.000 C 
BRANCH  13  14
ATOM     14  C   UNL     1     -10.943   7.089 129.757  0.00  0.00    +0.000 A 
ATOM     15  C   UNL     1     -12.225   6.552 129.555  0.00  0.00    +0.000 A 
ATOM     16  C   UNL     1     -12.951   6.836 128.400  0.00  0.00    +0.000 A 
ATOM     17  C   UNL     1     -12.438   7.720 127.458  0.00  0.00    +0.000 A 
ATOM     18  C   UNL     1     -11.175   8.278 127.647  0.00  0.00    +0.000 A 
ATOM     19  C   UNL     1     -10.425   7.956 128.781  0.00  0.00    +0.000 A 
ENDBRANCH  13  14
BRANCH  13  20
ATOM     20  C   UNL     1     -10.917   6.309 132.183  0.00  0.00    +0.000 C 
BRANCH  20  21
ATOM     21  O   UNL     1     -10.288   5.315 132.992  0.00  0.00    +0.000 OA
ATOM     22  H   UNL     1      -9.657   4.831 132.432  0.00  0.00    +0.000 HD
ENDBRANCH  20  21
ENDBRANCH  13  20
ENDBRANCH   1  13
TORSDOF 6
ENDMDL
MODEL 8
REMARK VINA RESULT:      -6.6      7.994      9.236
REMARK  Name = Hyoscyamine
REMARK  7 active torsions:
REMARK  status: ('A' for Active; 'I' for Inactive)
REMARK    1  A    between atoms: C_1  and  N_2
REMARK    2  A    between atoms: C_8  and  O_10
REMARK    3  A    between atoms: O_10  and  C_11
REMARK    4  A    between atoms: C_11  and  C_13
REMARK    5  A    between atoms: C_13  and  C_14
REMARK    6  A    between atoms: C_13  and  C_16
REMARK    7  A    between atoms: C_14  and  O_15
REMARK                            x       y       z     vdW  Elec       q    Type
REMARK                         _______ _______ _______ _____ _____    ______ ____
ROOT
ATOM      1  C   UNL     1     -10.229   4.552 130.421  0.00  0.00    +0.000 C 
ATOM      2  O   UNL     1     -11.348   4.183 130.066  0.00  0.00    +0.000 OA
ENDROOT
BRANCH   1   3
ATOM      3  O   UNL     1      -9.151   3.725 130.498  0.00  0.00    +0.000 OA
BRANCH   3  11
ATOM      4  C   UNL     1      -7.716  -0.444 132.383  0.00  0.00    +0.000 C 
ATOM      5  N   UNL     1      -7.246   0.927 132.354  0.00  0.00    +0.000 NA
ATOM      6  C   UNL     1      -8.152   1.911 132.945  0.00  0.00    +0.000 C 
ATOM      7  C   UNL     1      -7.321   3.181 132.731  0.00  0.00    +0.000 C 
ATOM      8  C   UNL     1      -6.483   2.893 131.477  0.00  0.00    +0.000 C 
ATOM      9  C   UNL     1      -6.928   1.492 131.039  0.00  0.00    +0.000 C 
ATOM     10  C   UNL     1      -8.156   1.551 130.099  0.00  0.00    +0.000 C 
ATOM     11  C   UNL     1      -9.361   2.304 130.712  0.00  0.00    +0.000 C 
ATOM     12  C   UNL     1      -9.502   1.960 132.207  0.00  0.00    +0.000 C 
ENDBRANCH   3  11
ENDBRANCH   1   3
BRANCH   1  13
ATOM     13  C   UNL     1      -9.898   5.994 130.830  0.00  0.00    +0.000 C 
BRANCH  13  14
ATOM     14  C   UNL     1     -10.774   6.983 130.060  0.00  0.00    +0.000 A 
ATOM     15  C   UNL     1     -10.354   7.545 128.843  0.00  0.00    +0.000 A 
ATOM     16  C   UNL     1     -11.095   8.546 128.217  0.00  0.00    +0.000 A 
ATOM     17  C   UNL     1     -12.308   8.953 128.762  0.00  0.00    +0.000 A 
ATOM     18  C   UNL     1     -12.751   8.396 129.960  0.00  0.00    +0.000 A 
ATOM     19  C   UNL     1     -11.986   7.427 130.613  0.00  0.00    +0.000 A 
ENDBRANCH  13  14
BRANCH  13  20
ATOM     20  C   UNL     1      -9.968   6.215 132.353  0.00  0.00    +0.000 C 
BRANCH  20  21
ATOM     21  O   UNL     1     -10.451   5.063 133.043  0.00  0.00    +0.000 OA
ATOM     22  H   UNL     1     -10.849   5.363 133.880  0.00  0.00    +0.000 HD
ENDBRANCH  20  21
ENDBRANCH  13  20
ENDBRANCH   1  13
TORSDOF 6
ENDMDL
MODEL 9
REMARK VINA RESULT:      -6.5      1.585      2.518
REMARK  Name = Hyoscyamine
REMARK  7 active torsions:
REMARK  status: ('A' for Active; 'I' for Inactive)
REMARK    1  A    between atoms: C_1  and  N_2
REMARK    2  A    between atoms: C_8  and  O_10
REMARK    3  A    between atoms: O_10  and  C_11
REMARK    4  A    between atoms: C_11  and  C_13
REMARK    5  A    between atoms: C_13  and  C_14
REMARK    6  A    between atoms: C_13  and  C_16
REMARK    7  A    between atoms: C_14  and  O_15
REMARK                            x       y       z     vdW  Elec       q    Type
REMARK                         _______ _______ _______ _____ _____    ______ ____
ROOT
ATOM      1  C   UNL     1      -6.028   2.303 125.245  0.00  0.00    +0.000 C 
ATOM      2  O   UNL     1      -5.089   2.140 126.023  0.00  0.00    +0.000 OA
ENDROOT
BRANCH   1   3
ATOM      3  O   UNL     1      -6.716   1.279 124.669  0.00  0.00    +0.000 OA
BRANCH   3  11
ATOM      4  C   UNL     1      -9.315  -2.578 125.837  0.00  0.00    +0.000 C 
ATOM      5  N   UNL     1      -9.480  -1.395 125.016  0.00  0.00    +0.000 NA
ATOM      6  C   UNL     1      -8.525  -1.258 123.916  0.00  0.00    +0.000 C 
ATOM      7  C   UNL     1      -9.020   0.060 123.312  0.00  0.00    +0.000 C 
ATOM      8  C   UNL     1      -9.637   0.823 124.494  0.00  0.00    +0.000 C 
ATOM      9  C   UNL     1      -9.411  -0.099 125.698  0.00  0.00    +0.000 C 
ATOM     10  C   UNL     1      -8.037   0.157 126.364  0.00  0.00    +0.000 C 
ATOM     11  C   UNL     1      -6.848   0.021 125.383  0.00  0.00    +0.000 C 
ATOM     12  C   UNL     1      -7.075  -1.164 124.427  0.00  0.00    +0.000 C 
ENDBRANCH   3  11
ENDBRANCH   1   3
BRANCH   1  13
ATOM     13  C   UNL     1      -6.550   3.681 124.816  0.00  0.00    +0.000 C 
BRANCH  13  14
ATOM     14  C   UNL     1      -6.363   3.878 123.311  0.00  0.00    +0.000 A 
ATOM     15  C   UNL     1      -7.349   3.489 122.389  0.00  0.00    +0.000 A 
ATOM     16  C   UNL     1      -7.115   3.546 121.016  0.00  0.00    +0.000 A 
ATOM     17  C   UNL     1      -5.915   4.061 120.539  0.00  0.00    +0.000 A 
ATOM     18  C   UNL     1      -4.930   4.469 121.436  0.00  0.00    +0.000 A 
ATOM     19  C   UNL     1      -5.145   4.368 122.812  0.00  0.00    +0.000 A 
ENDBRANCH  13  14
BRANCH  13  20
ATOM     20  C   UNL     1      -8.002   3.935 125.262  0.00  0.00    +0.000 C 
BRANCH  20  21
ATOM     21  O   UNL     1      -8.323   5.326 125.289  0.00  0.00    +0.000 OA
ATOM     22  H   UNL     1      -8.144   5.655 126.187  0.00  0.00    +0.000 HD
ENDBRANCH  20  21
ENDBRANCH  13  20
ENDBRANCH   1  13
TORSDOF 6
ENDMDL
