MODEL 1
REMARK VINA RESULT:      -2.1      0.000      0.000
REMARK  Name = Hypochlorite
REMARK  0 active torsions:
REMARK  status: ('A' for Active; 'I' for Inactive)
REMARK                            x       y       z     vdW  Elec       q    Type
REMARK                         _______ _______ _______ _____ _____    ______ ____
ROOT
ATOM      1  O   UNL     1      -4.542   6.215 120.602  0.00  0.00    +0.000 OA
ATOM      2 CL   UNL     1      -5.417   5.483 119.418  0.00  0.00    +0.000 Cl
ENDROOT
TORSDOF 0
ENDMDL
MODEL 2
REMARK VINA RESULT:      -1.8     11.187     11.187
REMARK  Name = Hypochlorite
REMARK  0 active torsions:
REMARK  status: ('A' for Active; 'I' for Inactive)
REMARK                            x       y       z     vdW  Elec       q    Type
REMARK                         _______ _______ _______ _____ _____    ______ ____
ROOT
ATOM      1  O   UNL     1      -4.100  -5.491 122.906  0.00  0.00    +0.000 OA
ATOM      2 CL   UNL     1      -4.250  -3.978 123.532  0.00  0.00    +0.000 Cl
ENDROOT
TORSDOF 0
ENDMDL
MODEL 3
REMARK VINA RESULT:      -1.6      8.446      8.446
REMARK  Name = Hypochlorite
REMARK  0 active torsions:
REMARK  status: ('A' for Active; 'I' for Inactive)
REMARK                            x       y       z     vdW  Elec       q    Type
REMARK                         _______ _______ _______ _____ _____    ______ ____
ROOT
ATOM      1  O   UNL     1      -9.690   6.287 126.332  0.00  0.00    +0.000 OA
ATOM      2 CL   UNL     1     -10.833   7.457 126.495  0.00  0.00    +0.000 Cl
ENDROOT
TORSDOF 0
ENDMDL
MODEL 4
REMARK VINA RESULT:      -1.5     10.954     10.954
REMARK  Name = Hypochlorite
REMARK  0 active torsions:
REMARK  status: ('A' for Active; 'I' for Inactive)
REMARK                            x       y       z     vdW  Elec       q    Type
REMARK                         _______ _______ _______ _____ _____    ______ ____
ROOT
ATOM      1  O   UNL     1      -9.761  -2.814 124.976  0.00  0.00    +0.000 OA
ATOM      2 CL   UNL     1      -9.645  -3.357 123.429  0.00  0.00    +0.000 Cl
ENDROOT
TORSDOF 0
ENDMDL
MODEL 5
REMARK VINA RESULT:      -1.4     10.232     10.232
REMARK  Name = Hypochlorite
REMARK  0 active torsions:
REMARK  status: ('A' for Active; 'I' for Inactive)
REMARK                            x       y       z     vdW  Elec       q    Type
REMARK                         _______ _______ _______ _____ _____    ______ ____
ROOT
ATOM      1  O   UNL     1      -9.690   8.059 129.160  0.00  0.00    +0.000 OA
ATOM      2 CL   UNL     1     -10.589   8.425 127.834  0.00  0.00    +0.000 Cl
ENDROOT
TORSDOF 0
ENDMDL
MODEL 6
REMARK VINA RESULT:      -1.4     10.890     10.890
REMARK  Name = Hypochlorite
REMARK  0 active torsions:
REMARK  status: ('A' for Active; 'I' for Inactive)
REMARK                            x       y       z     vdW  Elec       q    Type
REMARK                         _______ _______ _______ _____ _____    ______ ____
ROOT
ATOM      1  O   UNL     1     -12.411   6.686 126.652  0.00  0.00    +0.000 OA
ATOM      2 CL   UNL     1     -13.608   7.058 127.715  0.00  0.00    +0.000 Cl
ENDROOT
TORSDOF 0
ENDMDL
MODEL 7
REMARK VINA RESULT:      -1.4      4.719      4.719
REMARK  Name = Hypochlorite
REMARK  0 active torsions:
REMARK  status: ('A' for Active; 'I' for Inactive)
REMARK                            x       y       z     vdW  Elec       q    Type
REMARK                         _______ _______ _______ _____ _____    ______ ____
ROOT
ATOM      1  O   UNL     1      -9.080   3.874 120.330  0.00  0.00    +0.000 OA
ATOM      2 CL   UNL     1      -9.508   4.348 118.816  0.00  0.00    +0.000 Cl
ENDROOT
TORSDOF 0
ENDMDL
MODEL 8
REMARK VINA RESULT:      -1.4     14.040     14.040
REMARK  Name = Hypochlorite
REMARK  0 active torsions:
REMARK  status: ('A' for Active; 'I' for Inactive)
REMARK                            x       y       z     vdW  Elec       q    Type
REMARK                         _______ _______ _______ _____ _____    ______ ____
ROOT
ATOM      1  O   UNL     1     -13.148  10.138 129.645  0.00  0.00    +0.000 OA
ATOM      2 CL   UNL     1     -13.571  11.559 130.356  0.00  0.00    +0.000 Cl
ENDROOT
TORSDOF 0
ENDMDL
MODEL 9
REMARK VINA RESULT:      -1.4      2.403      2.403
REMARK  Name = Hypochlorite
REMARK  0 active torsions:
REMARK  status: ('A' for Active; 'I' for Inactive)
REMARK                            x       y       z     vdW  Elec       q    Type
REMARK                         _______ _______ _______ _____ _____    ______ ____
ROOT
ATOM      1  O   UNL     1      -7.003   4.719 118.838  0.00  0.00    +0.000 OA
ATOM      2 CL   UNL     1      -5.610   5.553 119.101  0.00  0.00    +0.000 Cl
ENDROOT
TORSDOF 0
ENDMDL
