MODEL 1
REMARK VINA RESULT:      -5.5      0.000      0.000
REMARK  Name = Ibandronate
REMARK  16 active torsions:
REMARK  status: ('A' for Active; 'I' for Inactive)
REMARK    1  A    between atoms: C_1  and  C_2
REMARK    2  A    between atoms: C_2  and  C_3
REMARK    3  A    between atoms: C_3  and  C_4
REMARK    4  A    between atoms: C_4  and  C_5
REMARK    5  A    between atoms: C_5  and  N_6
REMARK    6  A    between atoms: N_6  and  C_7
REMARK    7  A    between atoms: N_6  and  C_8
REMARK    8  A    between atoms: C_8  and  C_9
REMARK    9  A    between atoms: C_9  and  C_10
REMARK   10  A    between atoms: C_10  and  O_11
REMARK   11  A    between atoms: C_10  and  P_12
REMARK   12  A    between atoms: C_10  and  P_16
REMARK   13  A    between atoms: P_12  and  O_13
REMARK   14  A    between atoms: P_12  and  O_14
REMARK   15  A    between atoms: P_16  and  O_17
REMARK   16  A    between atoms: P_16  and  O_18
REMARK                            x       y       z     vdW  Elec       q    Type
REMARK                         _______ _______ _______ _____ _____    ______ ____
ROOT
ATOM      1  C   UNL     1      -8.296   1.453 124.547  0.00  0.00    +0.000 C 
ENDROOT
BRANCH   1   2
ATOM      2  O   UNL     1      -8.981   1.516 125.844  0.00  0.00    +0.000 OA
ATOM      3  H   UNL     1      -8.318   1.700 126.533  0.00  0.00    +0.000 HD
ENDBRANCH   1   2
BRANCH   1   4
ATOM      4  P   UNL     1      -7.966   3.264 124.147  0.00  0.00    +0.000 P 
ATOM      5  O   UNL     1      -6.571   3.697 124.315  0.00  0.00    +0.000 OA
BRANCH   4   6
ATOM      6  O   UNL     1      -8.582   3.542 122.683  0.00  0.00    +0.000 OA
ATOM      7  H   UNL     1      -8.979   2.862 122.107  0.00  0.00    +0.000 HD
ENDBRANCH   4   6
BRANCH   4   8
ATOM      8  O   UNL     1      -9.062   4.017 125.066  0.00  0.00    +0.000 OA
ATOM      9  H   UNL     1      -8.669   4.560 125.776  0.00  0.00    +0.000 HD
ENDBRANCH   4   8
ENDBRANCH   1   4
BRANCH   1  10
ATOM     10  P   UNL     1      -9.565   0.870 123.364  0.00  0.00    +0.000 P 
ATOM     11  O   UNL     1     -10.638   0.377 122.363  0.00  0.00    +0.000 OA
BRANCH  10  12
ATOM     12  O   UNL     1      -9.659  -0.514 124.263  0.00  0.00    +0.000 OA
ATOM     13  H   UNL     1      -8.997  -1.237 124.183  0.00  0.00    +0.000 HD
ENDBRANCH  10  12
BRANCH  10  14
ATOM     14  O   UNL     1     -10.709   1.774 124.138  0.00  0.00    +0.000 OA
ATOM     15  H   UNL     1     -10.884   1.728 125.094  0.00  0.00    +0.000 HD
ENDBRANCH  10  14
ENDBRANCH   1  10
BRANCH   1  16
ATOM     16  C   UNL     1      -7.067   0.584 124.674  0.00  0.00    +0.000 C 
BRANCH  16  17
ATOM     17  C   UNL     1      -6.765  -0.038 126.010  0.00  0.00    +0.000 C 
BRANCH  17  18
ATOM     18  N   UNL     1      -7.289  -1.415 126.020  0.00  0.00    +0.000 NA
ATOM     19  C   UNL     1      -8.088  -1.736 127.216  0.00  0.00    +0.000 C 
BRANCH  18  20
ATOM     20  C   UNL     1      -6.136  -2.312 125.898  0.00  0.00    +0.000 C 
BRANCH  20  21
ATOM     21  C   UNL     1      -6.228  -3.175 124.653  0.00  0.00    +0.000 C 
BRANCH  21  22
ATOM     22  C   UNL     1      -5.404  -2.567 123.537  0.00  0.00    +0.000 C 
BRANCH  22  24
ATOM     23  C   UNL     1      -4.532  -4.891 123.677  0.00  0.00    +0.000 C 
ATOM     24  C   UNL     1      -4.222  -3.477 123.242  0.00  0.00    +0.000 C 
ENDBRANCH  22  24
ENDBRANCH  21  22
ENDBRANCH  20  21
ENDBRANCH  18  20
ENDBRANCH  17  18
ENDBRANCH  16  17
ENDBRANCH   1  16
TORSDOF 14
ENDMDL
MODEL 2
REMARK VINA RESULT:      -5.5      7.713      9.512
REMARK  Name = Ibandronate
REMARK  16 active torsions:
REMARK  status: ('A' for Active; 'I' for Inactive)
REMARK    1  A    between atoms: C_1  and  C_2
REMARK    2  A    between atoms: C_2  and  C_3
REMARK    3  A    between atoms: C_3  and  C_4
REMARK    4  A    between atoms: C_4  and  C_5
REMARK    5  A    between atoms: C_5  and  N_6
REMARK    6  A    between atoms: N_6  and  C_7
REMARK    7  A    between atoms: N_6  and  C_8
REMARK    8  A    between atoms: C_8  and  C_9
REMARK    9  A    between atoms: C_9  and  C_10
REMARK   10  A    between atoms: C_10  and  O_11
REMARK   11  A    between atoms: C_10  and  P_12
REMARK   12  A    between atoms: C_10  and  P_16
REMARK   13  A    between atoms: P_12  and  O_13
REMARK   14  A    between atoms: P_12  and  O_14
REMARK   15  A    between atoms: P_16  and  O_17
REMARK   16  A    between atoms: P_16  and  O_18
REMARK                            x       y       z     vdW  Elec       q    Type
REMARK                         _______ _______ _______ _____ _____    ______ ____
ROOT
ATOM      1  C   UNL     1     -11.167   7.310 128.691  0.00  0.00    +0.000 C 
ENDROOT
BRANCH   1   2
ATOM      2  O   UNL     1     -11.552   5.896 128.787  0.00  0.00    +0.000 OA
ATOM      3  H   UNL     1     -12.145   5.790 129.553  0.00  0.00    +0.000 HD
ENDBRANCH   1   2
BRANCH   1   4
ATOM      4  P   UNL     1     -12.712   8.215 129.275  0.00  0.00    +0.000 P 
ATOM      5  O   UNL     1     -12.840   8.355 130.733  0.00  0.00    +0.000 OA
BRANCH   4   6
ATOM      6  O   UNL     1     -12.778   9.605 128.460  0.00  0.00    +0.000 OA
ATOM      7  H   UNL     1     -13.591   9.993 128.084  0.00  0.00    +0.000 HD
ENDBRANCH   4   6
BRANCH   4   8
ATOM      8  O   UNL     1     -13.887   7.391 128.532  0.00  0.00    +0.000 OA
ATOM      9  H   UNL     1     -13.825   7.416 127.558  0.00  0.00    +0.000 HD
ENDBRANCH   4   8
ENDBRANCH   1   4
BRANCH   1  10
ATOM     10  P   UNL     1     -11.004   7.639 126.898  0.00  0.00    +0.000 P 
ATOM     11  O   UNL     1     -10.866   7.917 125.381  0.00  0.00    +0.000 OA
BRANCH  10  12
ATOM     12  O   UNL     1      -9.712   6.606 126.902  0.00  0.00    +0.000 OA
ATOM     13  H   UNL     1      -9.120   6.506 126.124  0.00  0.00    +0.000 HD
ENDBRANCH  10  12
BRANCH  10  14
ATOM     14  O   UNL     1     -12.212   6.558 126.585  0.00  0.00    +0.000 OA
ATOM     15  H   UNL     1     -12.219   5.955 125.821  0.00  0.00    +0.000 HD
ENDBRANCH  10  14
ENDBRANCH   1  10
BRANCH   1  16
ATOM     16  C   UNL     1      -9.926   7.545 129.518  0.00  0.00    +0.000 C 
BRANCH  16  17
ATOM     17  C   UNL     1      -9.550   6.521 130.554  0.00  0.00    +0.000 C 
BRANCH  17  18
ATOM     18  N   UNL     1      -8.141   6.138 130.350  0.00  0.00    +0.000 NA
ATOM     19  C   UNL     1      -7.950   4.698 130.101  0.00  0.00    +0.000 C 
BRANCH  18  20
ATOM     20  C   UNL     1      -7.404   6.572 131.540  0.00  0.00    +0.000 C 
BRANCH  20  21
ATOM     21  C   UNL     1      -7.197   5.429 132.517  0.00  0.00    +0.000 C 
BRANCH  21  22
ATOM     22  C   UNL     1      -8.006   5.669 133.774  0.00  0.00    +0.000 C 
BRANCH  22  24
ATOM     23  C   UNL     1      -9.184   3.485 133.608  0.00  0.00    +0.000 C 
ATOM     24  C   UNL     1      -8.267   4.336 134.458  0.00  0.00    +0.000 C 
ENDBRANCH  22  24
ENDBRANCH  21  22
ENDBRANCH  20  21
ENDBRANCH  18  20
ENDBRANCH  17  18
ENDBRANCH  16  17
ENDBRANCH   1  16
TORSDOF 14
ENDMDL
MODEL 3
REMARK VINA RESULT:      -5.4      1.293      2.483
REMARK  Name = Ibandronate
REMARK  16 active torsions:
REMARK  status: ('A' for Active; 'I' for Inactive)
REMARK    1  A    between atoms: C_1  and  C_2
REMARK    2  A    between atoms: C_2  and  C_3
REMARK    3  A    between atoms: C_3  and  C_4
REMARK    4  A    between atoms: C_4  and  C_5
REMARK    5  A    between atoms: C_5  and  N_6
REMARK    6  A    between atoms: N_6  and  C_7
REMARK    7  A    between atoms: N_6  and  C_8
REMARK    8  A    between atoms: C_8  and  C_9
REMARK    9  A    between atoms: C_9  and  C_10
REMARK   10  A    between atoms: C_10  and  O_11
REMARK   11  A    between atoms: C_10  and  P_12
REMARK   12  A    between atoms: C_10  and  P_16
REMARK   13  A    between atoms: P_12  and  O_13
REMARK   14  A    between atoms: P_12  and  O_14
REMARK   15  A    between atoms: P_16  and  O_17
REMARK   16  A    between atoms: P_16  and  O_18
REMARK                            x       y       z     vdW  Elec       q    Type
REMARK                         _______ _______ _______ _____ _____    ______ ____
ROOT
ATOM      1  C   UNL     1      -8.142   1.293 124.074  0.00  0.00    +0.000 C 
ENDROOT
BRANCH   1   2
ATOM      2  O   UNL     1      -8.426   1.189 125.511  0.00  0.00    +0.000 OA
ATOM      3  H   UNL     1      -8.320   2.072 125.910  0.00  0.00    +0.000 HD
ENDBRANCH   1   2
BRANCH   1   4
ATOM      4  P   UNL     1      -7.904   3.143 123.816  0.00  0.00    +0.000 P 
ATOM      5  O   UNL     1      -6.507   3.602 123.826  0.00  0.00    +0.000 OA
BRANCH   4   6
ATOM      6  O   UNL     1      -8.731   3.543 122.490  0.00  0.00    +0.000 OA
ATOM      7  H   UNL     1      -8.943   2.932 121.760  0.00  0.00    +0.000 HD
ENDBRANCH   4   6
BRANCH   4   8
ATOM      8  O   UNL     1      -8.868   3.769 124.953  0.00  0.00    +0.000 OA
ATOM      9  H   UNL     1      -9.392   4.533 124.643  0.00  0.00    +0.000 HD
ENDBRANCH   4   8
ENDBRANCH   1   4
BRANCH   1  10
ATOM     10  P   UNL     1      -9.707   0.837 123.244  0.00  0.00    +0.000 P 
ATOM     11  O   UNL     1     -11.032   0.451 122.541  0.00  0.00    +0.000 OA
BRANCH  10  12
ATOM     12  O   UNL     1      -9.653  -0.584 124.087  0.00  0.00    +0.000 OA
ATOM     13  H   UNL     1     -10.329  -0.819 124.761  0.00  0.00    +0.000 HD
ENDBRANCH  10  12
BRANCH  10  14
ATOM     14  O   UNL     1     -10.553   1.759 124.321  0.00  0.00    +0.000 OA
ATOM     15  H   UNL     1     -10.170   2.499 124.823  0.00  0.00    +0.000 HD
ENDBRANCH  10  14
ENDBRANCH   1  10
BRANCH   1  16
ATOM     16  C   UNL     1      -6.946   0.433 123.740  0.00  0.00    +0.000 C 
BRANCH  16  17
ATOM     17  C   UNL     1      -6.315  -0.375 124.841  0.00  0.00    +0.000 C 
BRANCH  17  18
ATOM     18  N   UNL     1      -5.865  -1.663 124.283  0.00  0.00    +0.000 NA
ATOM     19  C   UNL     1      -6.212  -1.846 122.862  0.00  0.00    +0.000 C 
BRANCH  18  20
ATOM     20  C   UNL     1      -6.454  -2.717 125.112  0.00  0.00    +0.000 C 
BRANCH  20  21
ATOM     21  C   UNL     1      -7.551  -3.462 124.374  0.00  0.00    +0.000 C 
BRANCH  21  22
ATOM     22  C   UNL     1      -8.674  -3.813 125.327  0.00  0.00    +0.000 C 
BRANCH  22  24
ATOM     23  C   UNL     1      -8.896  -3.858 127.803  0.00  0.00    +0.000 C 
ATOM     24  C   UNL     1      -8.502  -3.016 126.611  0.00  0.00    +0.000 C 
ENDBRANCH  22  24
ENDBRANCH  21  22
ENDBRANCH  20  21
ENDBRANCH  18  20
ENDBRANCH  17  18
ENDBRANCH  16  17
ENDBRANCH   1  16
TORSDOF 14
ENDMDL
MODEL 4
REMARK VINA RESULT:      -5.4      7.338      8.893
REMARK  Name = Ibandronate
REMARK  16 active torsions:
REMARK  status: ('A' for Active; 'I' for Inactive)
REMARK    1  A    between atoms: C_1  and  C_2
REMARK    2  A    between atoms: C_2  and  C_3
REMARK    3  A    between atoms: C_3  and  C_4
REMARK    4  A    between atoms: C_4  and  C_5
REMARK    5  A    between atoms: C_5  and  N_6
REMARK    6  A    between atoms: N_6  and  C_7
REMARK    7  A    between atoms: N_6  and  C_8
REMARK    8  A    between atoms: C_8  and  C_9
REMARK    9  A    between atoms: C_9  and  C_10
REMARK   10  A    between atoms: C_10  and  O_11
REMARK   11  A    between atoms: C_10  and  P_12
REMARK   12  A    between atoms: C_10  and  P_16
REMARK   13  A    between atoms: P_12  and  O_13
REMARK   14  A    between atoms: P_12  and  O_14
REMARK   15  A    between atoms: P_16  and  O_17
REMARK   16  A    between atoms: P_16  and  O_18
REMARK                            x       y       z     vdW  Elec       q    Type
REMARK                         _______ _______ _______ _____ _____    ______ ____
ROOT
ATOM      1  C   UNL     1     -11.234   7.233 128.733  0.00  0.00    +0.000 C 
ENDROOT
BRANCH   1   2
ATOM      2  O   UNL     1     -11.787   5.873 128.762  0.00  0.00    +0.000 OA
ATOM      3  H   UNL     1     -11.184   5.307 129.278  0.00  0.00    +0.000 HD
ENDBRANCH   1   2
BRANCH   1   4
ATOM      4  P   UNL     1     -12.678   8.296 129.309  0.00  0.00    +0.000 P 
ATOM      5  O   UNL     1     -12.920   8.289 130.759  0.00  0.00    +0.000 OA
BRANCH   4   6
ATOM      6  O   UNL     1     -12.467   9.762 128.672  0.00  0.00    +0.000 OA
ATOM      7  H   UNL     1     -12.721  10.599 129.102  0.00  0.00    +0.000 HD
ENDBRANCH   4   6
BRANCH   4   8
ATOM      8  O   UNL     1     -13.887   7.753 128.383  0.00  0.00    +0.000 OA
ATOM      9  H   UNL     1     -14.569   7.262 128.879  0.00  0.00    +0.000 HD
ENDBRANCH   4   8
ENDBRANCH   1   4
BRANCH   1  10
ATOM     10  P   UNL     1     -10.975   7.605 126.960  0.00  0.00    +0.000 P 
ATOM     11  O   UNL     1     -10.756   7.919 125.460  0.00  0.00    +0.000 OA
BRANCH  10  12
ATOM     12  O   UNL     1      -9.741   6.504 126.987  0.00  0.00    +0.000 OA
ATOM     13  H   UNL     1      -9.752   5.721 127.581  0.00  0.00    +0.000 HD
ENDBRANCH  10  12
BRANCH  10  14
ATOM     14  O   UNL     1     -12.224   6.601 126.562  0.00  0.00    +0.000 OA
ATOM     15  H   UNL     1     -12.586   6.513 125.663  0.00  0.00    +0.000 HD
ENDBRANCH  10  14
ENDBRANCH   1  10
BRANCH   1  16
ATOM     16  C   UNL     1     -10.001   7.289 129.603  0.00  0.00    +0.000 C 
BRANCH  16  17
ATOM     17  C   UNL     1      -9.424   5.995 130.111  0.00  0.00    +0.000 C 
BRANCH  17  18
ATOM     18  N   UNL     1     -10.341   5.432 131.118  0.00  0.00    +0.000 NA
ATOM     19  C   UNL     1     -10.285   6.120 132.420  0.00  0.00    +0.000 C 
BRANCH  18  20
ATOM     20  C   UNL     1     -10.007   4.012 131.254  0.00  0.00    +0.000 C 
BRANCH  20  21
ATOM     21  C   UNL     1      -8.913   3.791 132.283  0.00  0.00    +0.000 C 
BRANCH  21  22
ATOM     22  C   UNL     1      -9.031   2.403 132.876  0.00  0.00    +0.000 C 
BRANCH  22  24
ATOM     23  C   UNL     1      -9.009   0.130 131.869  0.00  0.00    +0.000 C 
ATOM     24  C   UNL     1      -9.686   1.482 131.859  0.00  0.00    +0.000 C 
ENDBRANCH  22  24
ENDBRANCH  21  22
ENDBRANCH  20  21
ENDBRANCH  18  20
ENDBRANCH  17  18
ENDBRANCH  16  17
ENDBRANCH   1  16
TORSDOF 14
ENDMDL
MODEL 5
REMARK VINA RESULT:      -5.4      7.626      9.380
REMARK  Name = Ibandronate
REMARK  16 active torsions:
REMARK  status: ('A' for Active; 'I' for Inactive)
REMARK    1  A    between atoms: C_1  and  C_2
REMARK    2  A    between atoms: C_2  and  C_3
REMARK    3  A    between atoms: C_3  and  C_4
REMARK    4  A    between atoms: C_4  and  C_5
REMARK    5  A    between atoms: C_5  and  N_6
REMARK    6  A    between atoms: N_6  and  C_7
REMARK    7  A    between atoms: N_6  and  C_8
REMARK    8  A    between atoms: C_8  and  C_9
REMARK    9  A    between atoms: C_9  and  C_10
REMARK   10  A    between atoms: C_10  and  O_11
REMARK   11  A    between atoms: C_10  and  P_12
REMARK   12  A    between atoms: C_10  and  P_16
REMARK   13  A    between atoms: P_12  and  O_13
REMARK   14  A    between atoms: P_12  and  O_14
REMARK   15  A    between atoms: P_16  and  O_17
REMARK   16  A    between atoms: P_16  and  O_18
REMARK                            x       y       z     vdW  Elec       q    Type
REMARK                         _______ _______ _______ _____ _____    ______ ____
ROOT
ATOM      1  C   UNL     1     -11.107   7.343 128.677  0.00  0.00    +0.000 C 
ENDROOT
BRANCH   1   2
ATOM      2  O   UNL     1     -11.377   5.906 128.809  0.00  0.00    +0.000 OA
ATOM      3  H   UNL     1     -12.339   5.767 128.752  0.00  0.00    +0.000 HD
ENDBRANCH   1   2
BRANCH   1   4
ATOM      4  P   UNL     1     -12.734   8.135 129.200  0.00  0.00    +0.000 P 
ATOM      5  O   UNL     1     -12.804   8.548 130.609  0.00  0.00    +0.000 OA
BRANCH   4   6
ATOM      6  O   UNL     1     -13.046   9.311 128.141  0.00  0.00    +0.000 OA
ATOM      7  H   UNL     1     -12.809  10.249 128.264  0.00  0.00    +0.000 HD
ENDBRANCH   4   6
BRANCH   4   8
ATOM      8  O   UNL     1     -13.815   7.030 128.726  0.00  0.00    +0.000 OA
ATOM      9  H   UNL     1     -13.424   6.152 128.553  0.00  0.00    +0.000 HD
ENDBRANCH   4   8
ENDBRANCH   1   4
BRANCH   1  10
ATOM     10  P   UNL     1     -10.929   7.633 126.879  0.00  0.00    +0.000 P 
ATOM     11  O   UNL     1     -10.778   7.878 125.358  0.00  0.00    +0.000 OA
BRANCH  10  12
ATOM     12  O   UNL     1      -9.722   6.502 126.893  0.00  0.00    +0.000 OA
ATOM     13  H   UNL     1      -9.086   6.406 126.149  0.00  0.00    +0.000 HD
ENDBRANCH  10  12
BRANCH  10  14
ATOM     14  O   UNL     1     -12.220   6.646 126.587  0.00  0.00    +0.000 OA
ATOM     15  H   UNL     1     -13.134   6.856 126.844  0.00  0.00    +0.000 HD
ENDBRANCH  10  14
ENDBRANCH   1  10
BRANCH   1  16
ATOM     16  C   UNL     1      -9.909   7.705 129.523  0.00  0.00    +0.000 C 
BRANCH  16  17
ATOM     17  C   UNL     1      -9.409   6.699 130.524  0.00  0.00    +0.000 C 
BRANCH  17  18
ATOM     18  N   UNL     1      -8.090   6.210 130.085  0.00  0.00    +0.000 NA
ATOM     19  C   UNL     1      -8.072   4.773 129.757  0.00  0.00    +0.000 C 
BRANCH  18  20
ATOM     20  C   UNL     1      -7.140   6.521 131.157  0.00  0.00    +0.000 C 
BRANCH  20  21
ATOM     21  C   UNL     1      -5.704   6.370 130.691  0.00  0.00    +0.000 C 
BRANCH  21  22
ATOM     22  C   UNL     1      -4.754   6.726 131.815  0.00  0.00    +0.000 C 
BRANCH  22  24
ATOM     23  C   UNL     1      -3.952   7.986 129.828  0.00  0.00    +0.000 C 
ATOM     24  C   UNL     1      -3.706   7.694 131.291  0.00  0.00    +0.000 C 
ENDBRANCH  22  24
ENDBRANCH  21  22
ENDBRANCH  20  21
ENDBRANCH  18  20
ENDBRANCH  17  18
ENDBRANCH  16  17
ENDBRANCH   1  16
TORSDOF 14
ENDMDL
MODEL 6
REMARK VINA RESULT:      -5.3      2.511      3.753
REMARK  Name = Ibandronate
REMARK  16 active torsions:
REMARK  status: ('A' for Active; 'I' for Inactive)
REMARK    1  A    between atoms: C_1  and  C_2
REMARK    2  A    between atoms: C_2  and  C_3
REMARK    3  A    between atoms: C_3  and  C_4
REMARK    4  A    between atoms: C_4  and  C_5
REMARK    5  A    between atoms: C_5  and  N_6
REMARK    6  A    between atoms: N_6  and  C_7
REMARK    7  A    between atoms: N_6  and  C_8
REMARK    8  A    between atoms: C_8  and  C_9
REMARK    9  A    between atoms: C_9  and  C_10
REMARK   10  A    between atoms: C_10  and  O_11
REMARK   11  A    between atoms: C_10  and  P_12
REMARK   12  A    between atoms: C_10  and  P_16
REMARK   13  A    between atoms: P_12  and  O_13
REMARK   14  A    between atoms: P_12  and  O_14
REMARK   15  A    between atoms: P_16  and  O_17
REMARK   16  A    between atoms: P_16  and  O_18
REMARK                            x       y       z     vdW  Elec       q    Type
REMARK                         _______ _______ _______ _____ _____    ______ ____
ROOT
ATOM      1  C   UNL     1      -7.838   3.275 125.675  0.00  0.00    +0.000 C 
ENDROOT
BRANCH   1   2
ATOM      2  O   UNL     1      -9.163   3.667 125.178  0.00  0.00    +0.000 OA
ATOM      3  H   UNL     1      -9.742   2.883 125.194  0.00  0.00    +0.000 HD
ENDBRANCH   1   2
BRANCH   1   4
ATOM      4  P   UNL     1      -7.727   4.152 127.338  0.00  0.00    +0.000 P 
ATOM      5  O   UNL     1      -6.371   4.552 127.744  0.00  0.00    +0.000 OA
BRANCH   4   6
ATOM      6  O   UNL     1      -8.799   5.356 127.307  0.00  0.00    +0.000 OA
ATOM      7  H   UNL     1      -9.767   5.242 127.332  0.00  0.00    +0.000 HD
ENDBRANCH   4   6
BRANCH   4   8
ATOM      8  O   UNL     1      -8.489   3.117 128.318  0.00  0.00    +0.000 OA
ATOM      9  H   UNL     1      -7.891   2.481 128.754  0.00  0.00    +0.000 HD
ENDBRANCH   4   8
ENDBRANCH   1   4
BRANCH   1  10
ATOM     10  P   UNL     1      -6.646   4.099 124.558  0.00  0.00    +0.000 P 
ATOM     11  O   UNL     1      -5.637   4.797 123.613  0.00  0.00    +0.000 OA
BRANCH  10  12
ATOM     12  O   UNL     1      -7.779   3.952 123.363  0.00  0.00    +0.000 OA
ATOM     13  H   UNL     1      -8.646   4.415 123.404  0.00  0.00    +0.000 HD
ENDBRANCH  10  12
BRANCH  10  14
ATOM     14  O   UNL     1      -7.085   5.570 125.167  0.00  0.00    +0.000 OA
ATOM     15  H   UNL     1      -7.979   5.782 125.487  0.00  0.00    +0.000 HD
ENDBRANCH  10  14
ENDBRANCH   1  10
BRANCH   1  16
ATOM     16  C   UNL     1      -7.753   1.768 125.730  0.00  0.00    +0.000 C 
BRANCH  16  17
ATOM     17  C   UNL     1      -8.846   0.965 125.079  0.00  0.00    +0.000 C 
BRANCH  17  18
ATOM     18  N   UNL     1      -8.639   0.981 123.620  0.00  0.00    +0.000 NA
ATOM     19  C   UNL     1      -9.749   0.381 122.859  0.00  0.00    +0.000 C 
BRANCH  18  20
ATOM     20  C   UNL     1      -7.378   0.281 123.359  0.00  0.00    +0.000 C 
BRANCH  20  21
ATOM     21  C   UNL     1      -7.581  -1.220 123.267  0.00  0.00    +0.000 C 
BRANCH  21  22
ATOM     22  C   UNL     1      -6.313  -1.887 122.777  0.00  0.00    +0.000 C 
BRANCH  22  24
ATOM     23  C   UNL     1      -4.504  -3.455 123.447  0.00  0.00    +0.000 C 
ATOM     24  C   UNL     1      -5.887  -2.944 123.783  0.00  0.00    +0.000 C 
ENDBRANCH  22  24
ENDBRANCH  21  22
ENDBRANCH  20  21
ENDBRANCH  18  20
ENDBRANCH  17  18
ENDBRANCH  16  17
ENDBRANCH   1  16
TORSDOF 14
ENDMDL
MODEL 7
REMARK VINA RESULT:      -5.1      1.462      2.127
REMARK  Name = Ibandronate
REMARK  16 active torsions:
REMARK  status: ('A' for Active; 'I' for Inactive)
REMARK    1  A    between atoms: C_1  and  C_2
REMARK    2  A    between atoms: C_2  and  C_3
REMARK    3  A    between atoms: C_3  and  C_4
REMARK    4  A    between atoms: C_4  and  C_5
REMARK    5  A    between atoms: C_5  and  N_6
REMARK    6  A    between atoms: N_6  and  C_7
REMARK    7  A    between atoms: N_6  and  C_8
REMARK    8  A    between atoms: C_8  and  C_9
REMARK    9  A    between atoms: C_9  and  C_10
REMARK   10  A    between atoms: C_10  and  O_11
REMARK   11  A    between atoms: C_10  and  P_12
REMARK   12  A    between atoms: C_10  and  P_16
REMARK   13  A    between atoms: P_12  and  O_13
REMARK   14  A    between atoms: P_12  and  O_14
REMARK   15  A    between atoms: P_16  and  O_17
REMARK   16  A    between atoms: P_16  and  O_18
REMARK                            x       y       z     vdW  Elec       q    Type
REMARK                         _______ _______ _______ _____ _____    ______ ____
ROOT
ATOM      1  C   UNL     1      -8.930   0.074 124.608  0.00  0.00    +0.000 C 
ENDROOT
BRANCH   1   2
ATOM      2  O   UNL     1      -9.960  -0.450 125.514  0.00  0.00    +0.000 OA
ATOM      3  H   UNL     1      -9.608  -1.246 125.952  0.00  0.00    +0.000 HD
ENDBRANCH   1   2
BRANCH   1   4
ATOM      4  P   UNL     1      -9.751   1.594 123.857  0.00  0.00    +0.000 P 
ATOM      5  O   UNL     1      -9.321   1.926 122.491  0.00  0.00    +0.000 OA
BRANCH   4   6
ATOM      6  O   UNL     1     -11.343   1.402 124.030  0.00  0.00    +0.000 OA
ATOM      7  H   UNL     1     -11.810   1.364 124.886  0.00  0.00    +0.000 HD
ENDBRANCH   4   6
BRANCH   4   8
ATOM      8  O   UNL     1      -9.475   2.719 124.985  0.00  0.00    +0.000 OA
ATOM      9  H   UNL     1      -9.479   2.367 125.895  0.00  0.00    +0.000 HD
ENDBRANCH   4   8
ENDBRANCH   1   4
BRANCH   1  10
ATOM     10  P   UNL     1      -8.792  -1.169 123.272  0.00  0.00    +0.000 P 
ATOM     11  O   UNL     1      -8.675  -2.221 122.142  0.00  0.00    +0.000 OA
BRANCH  10  12
ATOM     12  O   UNL     1      -9.368  -2.282 124.351  0.00  0.00    +0.000 OA
ATOM     13  H   UNL     1      -9.396  -3.243 124.147  0.00  0.00    +0.000 HD
ENDBRANCH  10  12
BRANCH  10  14
ATOM     14  O   UNL     1     -10.221  -0.648 122.632  0.00  0.00    +0.000 OA
ATOM     15  H   UNL     1     -10.651   0.192 122.870  0.00  0.00    +0.000 HD
ENDBRANCH  10  14
ENDBRANCH   1  10
BRANCH   1  16
ATOM     16  C   UNL     1      -7.667   0.340 125.391  0.00  0.00    +0.000 C 
BRANCH  16  17
ATOM     17  C   UNL     1      -7.615  -0.085 126.833  0.00  0.00    +0.000 C 
BRANCH  17  18
ATOM     18  N   UNL     1      -6.480  -1.007 127.014  0.00  0.00    +0.000 NA
ATOM     19  C   UNL     1      -5.522  -0.570 128.045  0.00  0.00    +0.000 C 
BRANCH  18  20
ATOM     20  C   UNL     1      -5.828  -1.144 125.709  0.00  0.00    +0.000 C 
BRANCH  20  21
ATOM     21  C   UNL     1      -5.590  -2.599 125.353  0.00  0.00    +0.000 C 
BRANCH  21  22
ATOM     22  C   UNL     1      -5.537  -2.764 123.849  0.00  0.00    +0.000 C 
BRANCH  22  24
ATOM     23  C   UNL     1      -4.363  -4.927 123.499  0.00  0.00    +0.000 C 
ATOM     24  C   UNL     1      -4.221  -3.422 123.467  0.00  0.00    +0.000 C 
ENDBRANCH  22  24
ENDBRANCH  21  22
ENDBRANCH  20  21
ENDBRANCH  18  20
ENDBRANCH  17  18
ENDBRANCH  16  17
ENDBRANCH   1  16
TORSDOF 14
ENDMDL
MODEL 8
REMARK VINA RESULT:      -5.1      2.434      3.446
REMARK  Name = Ibandronate
REMARK  16 active torsions:
REMARK  status: ('A' for Active; 'I' for Inactive)
REMARK    1  A    between atoms: C_1  and  C_2
REMARK    2  A    between atoms: C_2  and  C_3
REMARK    3  A    between atoms: C_3  and  C_4
REMARK    4  A    between atoms: C_4  and  C_5
REMARK    5  A    between atoms: C_5  and  N_6
REMARK    6  A    between atoms: N_6  and  C_7
REMARK    7  A    between atoms: N_6  and  C_8
REMARK    8  A    between atoms: C_8  and  C_9
REMARK    9  A    between atoms: C_9  and  C_10
REMARK   10  A    between atoms: C_10  and  O_11
REMARK   11  A    between atoms: C_10  and  P_12
REMARK   12  A    between atoms: C_10  and  P_16
REMARK   13  A    between atoms: P_12  and  O_13
REMARK   14  A    between atoms: P_12  and  O_14
REMARK   15  A    between atoms: P_16  and  O_17
REMARK   16  A    between atoms: P_16  and  O_18
REMARK                            x       y       z     vdW  Elec       q    Type
REMARK                         _______ _______ _______ _____ _____    ______ ____
ROOT
ATOM      1  C   UNL     1      -6.292   3.321 124.985  0.00  0.00    +0.000 C 
ENDROOT
BRANCH   1   2
ATOM      2  O   UNL     1      -5.010   3.990 125.239  0.00  0.00    +0.000 OA
ATOM      3  H   UNL     1      -4.338   3.601 124.650  0.00  0.00    +0.000 HD
ENDBRANCH   1   2
BRANCH   1   4
ATOM      4  P   UNL     1      -6.520   3.520 123.126  0.00  0.00    +0.000 P 
ATOM      5  O   UNL     1      -5.636   4.509 122.491  0.00  0.00    +0.000 OA
BRANCH   4   6
ATOM      6  O   UNL     1      -6.446   2.044 122.482  0.00  0.00    +0.000 OA
ATOM      7  H   UNL     1      -6.292   1.854 121.538  0.00  0.00    +0.000 HD
ENDBRANCH   4   6
BRANCH   4   8
ATOM      8  O   UNL     1      -8.107   3.805 123.008  0.00  0.00    +0.000 OA
ATOM      9  H   UNL     1      -8.320   4.655 122.579  0.00  0.00    +0.000 HD
ENDBRANCH   4   8
ENDBRANCH   1   4
BRANCH   1  10
ATOM     10  P   UNL     1      -7.551   4.377 125.791  0.00  0.00    +0.000 P 
ATOM     11  O   UNL     1      -8.615   5.271 126.472  0.00  0.00    +0.000 OA
BRANCH  10  12
ATOM     12  O   UNL     1      -6.565   4.409 127.118  0.00  0.00    +0.000 OA
ATOM     13  H   UNL     1      -6.740   4.998 127.886  0.00  0.00    +0.000 HD
ENDBRANCH  10  12
BRANCH  10  14
ATOM     14  O   UNL     1      -6.965   5.696 124.988  0.00  0.00    +0.000 OA
ATOM     15  H   UNL     1      -7.464   6.521 124.859  0.00  0.00    +0.000 HD
ENDBRANCH  10  14
ENDBRANCH   1  10
BRANCH   1  16
ATOM     16  C   UNL     1      -6.216   1.896 125.479  0.00  0.00    +0.000 C 
BRANCH  16  17
ATOM     17  C   UNL     1      -7.501   1.146 125.702  0.00  0.00    +0.000 C 
BRANCH  17  18
ATOM     18  N   UNL     1      -7.680   0.177 124.605  0.00  0.00    +0.000 NA
ATOM     19  C   UNL     1      -9.037   0.177 124.031  0.00  0.00    +0.000 C 
BRANCH  18  20
ATOM     20  C   UNL     1      -7.330  -1.142 125.139  0.00  0.00    +0.000 C 
BRANCH  20  21
ATOM     21  C   UNL     1      -7.670  -2.249 124.158  0.00  0.00    +0.000 C 
BRANCH  21  22
ATOM     22  C   UNL     1      -6.646  -3.360 124.254  0.00  0.00    +0.000 C 
BRANCH  22  24
ATOM     23  C   UNL     1      -4.352  -4.038 123.575  0.00  0.00    +0.000 C 
ATOM     24  C   UNL     1      -5.362  -2.912 123.574  0.00  0.00    +0.000 C 
ENDBRANCH  22  24
ENDBRANCH  21  22
ENDBRANCH  20  21
ENDBRANCH  18  20
ENDBRANCH  17  18
ENDBRANCH  16  17
ENDBRANCH   1  16
TORSDOF 14
ENDMDL
MODEL 9
REMARK VINA RESULT:      -5.0      1.976      2.539
REMARK  Name = Ibandronate
REMARK  16 active torsions:
REMARK  status: ('A' for Active; 'I' for Inactive)
REMARK    1  A    between atoms: C_1  and  C_2
REMARK    2  A    between atoms: C_2  and  C_3
REMARK    3  A    between atoms: C_3  and  C_4
REMARK    4  A    between atoms: C_4  and  C_5
REMARK    5  A    between atoms: C_5  and  N_6
REMARK    6  A    between atoms: N_6  and  C_7
REMARK    7  A    between atoms: N_6  and  C_8
REMARK    8  A    between atoms: C_8  and  C_9
REMARK    9  A    between atoms: C_9  and  C_10
REMARK   10  A    between atoms: C_10  and  O_11
REMARK   11  A    between atoms: C_10  and  P_12
REMARK   12  A    between atoms: C_10  and  P_16
REMARK   13  A    between atoms: P_12  and  O_13
REMARK   14  A    between atoms: P_12  and  O_14
REMARK   15  A    between atoms: P_16  and  O_17
REMARK   16  A    between atoms: P_16  and  O_18
REMARK                            x       y       z     vdW  Elec       q    Type
REMARK                         _______ _______ _______ _____ _____    ______ ____
ROOT
ATOM      1  C   UNL     1      -8.215   1.567 125.502  0.00  0.00    +0.000 C 
ENDROOT
BRANCH   1   2
ATOM      2  O   UNL     1      -8.996   1.756 126.731  0.00  0.00    +0.000 OA
ATOM      3  H   UNL     1      -9.158   0.882 127.130  0.00  0.00    +0.000 HD
ENDBRANCH   1   2
BRANCH   1   4
ATOM      4  P   UNL     1      -7.884   3.329 124.927  0.00  0.00    +0.000 P 
ATOM      5  O   UNL     1      -8.826   4.339 125.433  0.00  0.00    +0.000 OA
BRANCH   4   6
ATOM      6  O   UNL     1      -6.334   3.643 125.241  0.00  0.00    +0.000 OA
ATOM      7  H   UNL     1      -5.631   3.711 124.567  0.00  0.00    +0.000 HD
ENDBRANCH   4   6
BRANCH   4   8
ATOM      8  O   UNL     1      -7.821   3.155 123.321  0.00  0.00    +0.000 OA
ATOM      9  H   UNL     1      -8.542   2.605 122.961  0.00  0.00    +0.000 HD
ENDBRANCH   4   8
ENDBRANCH   1   4
BRANCH   1  10
ATOM     10  P   UNL     1      -9.383   0.827 124.303  0.00  0.00    +0.000 P 
ATOM     11  O   UNL     1     -10.371   0.201 123.289  0.00  0.00    +0.000 OA
BRANCH  10  12
ATOM     12  O   UNL     1     -10.064   0.022 125.578  0.00  0.00    +0.000 OA
ATOM     13  H   UNL     1     -10.186   0.444 126.458  0.00  0.00    +0.000 HD
ENDBRANCH  10  12
BRANCH  10  14
ATOM     14  O   UNL     1     -10.295   2.203 124.335  0.00  0.00    +0.000 OA
ATOM     15  H   UNL     1     -11.215   2.254 124.024  0.00  0.00    +0.000 HD
ENDBRANCH  10  14
ENDBRANCH   1  10
BRANCH   1  16
ATOM     16  C   UNL     1      -6.987   0.746 125.815  0.00  0.00    +0.000 C 
BRANCH  16  17
ATOM     17  C   UNL     1      -6.723   0.369 127.247  0.00  0.00    +0.000 C 
BRANCH  17  18
ATOM     18  N   UNL     1      -7.655  -0.705 127.633  0.00  0.00    +0.000 NA
ATOM     19  C   UNL     1      -7.612  -1.038 129.069  0.00  0.00    +0.000 C 
BRANCH  18  20
ATOM     20  C   UNL     1      -7.328  -1.872 126.809  0.00  0.00    +0.000 C 
BRANCH  20  21
ATOM     21  C   UNL     1      -8.249  -3.041 127.106  0.00  0.00    +0.000 C 
BRANCH  21  22
ATOM     22  C   UNL     1      -9.247  -3.215 125.980  0.00  0.00    +0.000 C 
BRANCH  22  24
ATOM     23  C   UNL     1      -9.495  -3.251 123.507  0.00  0.00    +0.000 C 
ATOM     24  C   UNL     1      -8.511  -3.153 124.651  0.00  0.00    +0.000 C 
ENDBRANCH  22  24
ENDBRANCH  21  22
ENDBRANCH  20  21
ENDBRANCH  18  20
ENDBRANCH  17  18
ENDBRANCH  16  17
ENDBRANCH   1  16
TORSDOF 14
ENDMDL
