MODEL 1
REMARK VINA RESULT:      -9.1      0.000      0.000
REMARK  Name = Ibrutinib
REMARK  5 active torsions:
REMARK  status: ('A' for Active; 'I' for Inactive)
REMARK    1  A    between atoms: C_8  and  C_21
REMARK    2  A    between atoms: N_10  and  C_11
REMARK    3  A    between atoms: C_17  and  C_19
REMARK    4  A    between atoms: C_24  and  O_25
REMARK    5  A    between atoms: O_25  and  C_26
REMARK                            x       y       z     vdW  Elec       q    Type
REMARK                         _______ _______ _______ _____ _____    ______ ____
ROOT
ATOM      1  N   UNL     1      -8.392   2.965 133.097  0.00  0.00    +0.000 N 
ATOM      2  C   UNL     1      -7.039   3.139 132.881  0.00  0.00    +0.000 A 
ATOM      3  N   UNL     1      -6.257   2.123 133.274  0.00  0.00    +0.000 NA
ATOM      4  C   UNL     1      -4.960   2.201 132.983  0.00  0.00    +0.000 A 
ATOM      5  N   UNL     1      -4.320   3.196 132.366  0.00  0.00    +0.000 NA
ATOM      6  C   UNL     1      -5.102   4.244 132.076  0.00  0.00    +0.000 A 
ATOM      7  C   UNL     1      -6.459   4.265 132.279  0.00  0.00    +0.000 A 
ATOM      8  C   UNL     1      -6.873   5.485 131.705  0.00  0.00    +0.000 A 
ATOM      9  N   UNL     1      -5.843   6.231 131.261  0.00  0.00    +0.000 NA
ATOM     10  N   UNL     1      -4.752   5.497 131.602  0.00  0.00    +0.000 N 
ATOM     11  H   UNL     1      -8.621   2.012 133.344  0.00  0.00    +0.000 HD
ATOM     12  H   UNL     1      -9.013   3.449 132.466  0.00  0.00    +0.000 HD
ENDROOT
BRANCH  10  13
ATOM     13  C   UNL     1      -3.445   6.167 131.652  0.00  0.00    +0.000 C 
ATOM     14  C   UNL     1      -3.460   7.683 131.379  0.00  0.00    +0.000 C 
ATOM     15  C   UNL     1      -3.796   7.985 129.929  0.00  0.00    +0.000 C 
ATOM     16  C   UNL     1      -2.965   7.131 128.936  0.00  0.00    +0.000 C 
ATOM     17  N   UNL     1      -2.819   5.700 129.288  0.00  0.00    +0.000 N 
ATOM     18  C   UNL     1      -2.458   5.470 130.696  0.00  0.00    +0.000 C 
ATOM     19  C   UNL     1      -3.223   4.588 128.527  0.00  0.00    +0.000 C 
ATOM     20  O   UNL     1      -3.231   3.441 128.996  0.00  0.00    +0.000 OA
BRANCH  19  21
ATOM     21  C   UNL     1      -3.754   4.801 127.138  0.00  0.00    +0.000 C 
ATOM     22  C   UNL     1      -3.704   3.844 126.193  0.00  0.00    +0.000 C 
ENDBRANCH  19  21
ENDBRANCH  10  13
BRANCH   8  23
ATOM     23  C   UNL     1      -8.254   5.846 131.488  0.00  0.00    +0.000 A 
ATOM     24  C   UNL     1      -9.108   6.070 132.576  0.00  0.00    +0.000 A 
ATOM     25  C   UNL     1     -10.479   6.208 132.370  0.00  0.00    +0.000 A 
ATOM     26  C   UNL     1     -10.995   6.160 131.074  0.00  0.00    +0.000 A 
ATOM     27  C   UNL     1     -10.127   5.957 129.992  0.00  0.00    +0.000 A 
ATOM     28  C   UNL     1      -8.766   5.772 130.198  0.00  0.00    +0.000 A 
BRANCH  26  29
ATOM     29  O   UNL     1     -12.364   6.316 130.967  0.00  0.00    +0.000 OA
BRANCH  29  30
ATOM     30  C   UNL     1     -12.819   7.222 130.040  0.00  0.00    +0.000 A 
ATOM     31  C   UNL     1     -12.658   8.580 130.305  0.00  0.00    +0.000 A 
ATOM     32  C   UNL     1     -13.015   9.514 129.334  0.00  0.00    +0.000 A 
ATOM     33  C   UNL     1     -13.533   9.086 128.109  0.00  0.00    +0.000 A 
ATOM     34  C   UNL     1     -13.733   7.727 127.866  0.00  0.00    +0.000 A 
ATOM     35  C   UNL     1     -13.408   6.792 128.846  0.00  0.00    +0.000 A 
ENDBRANCH  29  30
ENDBRANCH  26  29
ENDBRANCH   8  23
TORSDOF 5
ENDMDL
MODEL 2
REMARK VINA RESULT:      -8.9      4.068      7.917
REMARK  Name = Ibrutinib
REMARK  5 active torsions:
REMARK  status: ('A' for Active; 'I' for Inactive)
REMARK    1  A    between atoms: C_8  and  C_21
REMARK    2  A    between atoms: N_10  and  C_11
REMARK    3  A    between atoms: C_17  and  C_19
REMARK    4  A    between atoms: C_24  and  O_25
REMARK    5  A    between atoms: O_25  and  C_26
REMARK                            x       y       z     vdW  Elec       q    Type
REMARK                         _______ _______ _______ _____ _____    ______ ____
ROOT
ATOM      1  N   UNL     1      -4.087   4.283 126.510  0.00  0.00    +0.000 N 
ATOM      2  C   UNL     1      -4.576   4.552 127.773  0.00  0.00    +0.000 A 
ATOM      3  N   UNL     1      -3.727   5.182 128.597  0.00  0.00    +0.000 NA
ATOM      4  C   UNL     1      -4.195   5.560 129.786  0.00  0.00    +0.000 A 
ATOM      5  N   UNL     1      -5.417   5.359 130.284  0.00  0.00    +0.000 NA
ATOM      6  C   UNL     1      -6.214   4.637 129.484  0.00  0.00    +0.000 A 
ATOM      7  C   UNL     1      -5.866   4.235 128.219  0.00  0.00    +0.000 A 
ATOM      8  C   UNL     1      -7.043   3.644 127.713  0.00  0.00    +0.000 A 
ATOM      9  N   UNL     1      -8.033   3.584 128.624  0.00  0.00    +0.000 NA
ATOM     10  N   UNL     1      -7.463   4.101 129.744  0.00  0.00    +0.000 N 
ATOM     11  H   UNL     1      -3.224   4.774 126.321  0.00  0.00    +0.000 HD
ATOM     12  H   UNL     1      -4.768   4.229 125.766  0.00  0.00    +0.000 HD
ENDROOT
BRANCH  10  13
ATOM     13  C   UNL     1      -8.094   3.823 131.041  0.00  0.00    +0.000 C 
ATOM     14  C   UNL     1      -9.287   2.849 131.012  0.00  0.00    +0.000 C 
ATOM     15  C   UNL     1     -10.491   3.465 130.318  0.00  0.00    +0.000 C 
ATOM     16  C   UNL     1     -10.804   4.895 130.830  0.00  0.00    +0.000 C 
ATOM     17  N   UNL     1      -9.632   5.782 131.011  0.00  0.00    +0.000 N 
ATOM     18  C   UNL     1      -8.510   5.143 131.719  0.00  0.00    +0.000 C 
ATOM     19  C   UNL     1      -9.389   7.016 130.382  0.00  0.00    +0.000 C 
ATOM     20  O   UNL     1      -8.291   7.585 130.455  0.00  0.00    +0.000 OA
BRANCH  19  21
ATOM     21  C   UNL     1     -10.456   7.621 129.515  0.00  0.00    +0.000 C 
ATOM     22  C   UNL     1     -10.445   7.507 128.173  0.00  0.00    +0.000 C 
ENDBRANCH  19  21
ENDBRANCH  10  13
BRANCH   8  23
ATOM     23  C   UNL     1      -7.223   3.264 126.332  0.00  0.00    +0.000 A 
ATOM     24  C   UNL     1      -6.646   2.087 125.838  0.00  0.00    +0.000 A 
ATOM     25  C   UNL     1      -6.642   1.833 124.468  0.00  0.00    +0.000 A 
ATOM     26  C   UNL     1      -7.248   2.736 123.592  0.00  0.00    +0.000 A 
ATOM     27  C   UNL     1      -7.841   3.900 124.102  0.00  0.00    +0.000 A 
ATOM     28  C   UNL     1      -7.806   4.179 125.461  0.00  0.00    +0.000 A 
BRANCH  26  29
ATOM     29  O   UNL     1      -7.202   2.395 122.254  0.00  0.00    +0.000 OA
BRANCH  29  30
ATOM     30  C   UNL     1      -6.737   3.350 121.382  0.00  0.00    +0.000 A 
ATOM     31  C   UNL     1      -5.446   3.842 121.565  0.00  0.00    +0.000 A 
ATOM     32  C   UNL     1      -4.916   4.732 120.633  0.00  0.00    +0.000 A 
ATOM     33  C   UNL     1      -5.677   5.126 119.530  0.00  0.00    +0.000 A 
ATOM     34  C   UNL     1      -6.985   4.665 119.376  0.00  0.00    +0.000 A 
ATOM     35  C   UNL     1      -7.530   3.800 120.322  0.00  0.00    +0.000 A 
ENDBRANCH  29  30
ENDBRANCH  26  29
ENDBRANCH   8  23
TORSDOF 5
ENDMDL
MODEL 3
REMARK VINA RESULT:      -8.9      6.168      9.628
REMARK  Name = Ibrutinib
REMARK  5 active torsions:
REMARK  status: ('A' for Active; 'I' for Inactive)
REMARK    1  A    between atoms: C_8  and  C_21
REMARK    2  A    between atoms: N_10  and  C_11
REMARK    3  A    between atoms: C_17  and  C_19
REMARK    4  A    between atoms: C_24  and  O_25
REMARK    5  A    between atoms: O_25  and  C_26
REMARK                            x       y       z     vdW  Elec       q    Type
REMARK                         _______ _______ _______ _____ _____    ______ ____
ROOT
ATOM      1  N   UNL     1      -6.969   4.241 125.077  0.00  0.00    +0.000 N 
ATOM      2  C   UNL     1      -7.623   3.203 124.445  0.00  0.00    +0.000 A 
ATOM      3  N   UNL     1      -8.320   3.543 123.351  0.00  0.00    +0.000 NA
ATOM      4  C   UNL     1      -8.874   2.557 122.647  0.00  0.00    +0.000 A 
ATOM      5  N   UNL     1      -8.849   1.250 122.914  0.00  0.00    +0.000 NA
ATOM      6  C   UNL     1      -8.237   0.945 124.066  0.00  0.00    +0.000 A 
ATOM      7  C   UNL     1      -7.585   1.862 124.852  0.00  0.00    +0.000 A 
ATOM      8  C   UNL     1      -6.982   1.082 125.860  0.00  0.00    +0.000 A 
ATOM      9  N   UNL     1      -7.309  -0.222 125.780  0.00  0.00    +0.000 NA
ATOM     10  N   UNL     1      -8.174  -0.266 124.733  0.00  0.00    +0.000 N 
ATOM     11  H   UNL     1      -6.948   5.081 124.515  0.00  0.00    +0.000 HD
ATOM     12  H   UNL     1      -6.134   4.000 125.590  0.00  0.00    +0.000 HD
ENDROOT
BRANCH  10  13
ATOM     13  C   UNL     1      -9.054  -1.435 124.601  0.00  0.00    +0.000 C 
ATOM     14  C   UNL     1      -9.329  -2.216 125.901  0.00  0.00    +0.000 C 
ATOM     15  C   UNL     1      -8.086  -2.941 126.390  0.00  0.00    +0.000 C 
ATOM     16  C   UNL     1      -7.382  -3.740 125.262  0.00  0.00    +0.000 C 
ATOM     17  N   UNL     1      -7.262  -3.042 123.961  0.00  0.00    +0.000 N 
ATOM     18  C   UNL     1      -8.506  -2.389 123.522  0.00  0.00    +0.000 C 
ATOM     19  C   UNL     1      -6.081  -2.732 123.264  0.00  0.00    +0.000 C 
ATOM     20  O   UNL     1      -6.077  -1.977 122.281  0.00  0.00    +0.000 OA
BRANCH  19  21
ATOM     21  C   UNL     1      -4.767  -3.248 123.779  0.00  0.00    +0.000 C 
ATOM     22  C   UNL     1      -4.251  -4.427 123.385  0.00  0.00    +0.000 C 
ENDBRANCH  19  21
ENDBRANCH  10  13
BRANCH   8  23
ATOM     23  C   UNL     1      -6.010   1.592 126.799  0.00  0.00    +0.000 A 
ATOM     24  C   UNL     1      -6.406   1.994 128.081  0.00  0.00    +0.000 A 
ATOM     25  C   UNL     1      -5.513   2.678 128.904  0.00  0.00    +0.000 A 
ATOM     26  C   UNL     1      -4.212   2.926 128.463  0.00  0.00    +0.000 A 
ATOM     27  C   UNL     1      -3.822   2.498 127.186  0.00  0.00    +0.000 A 
ATOM     28  C   UNL     1      -4.723   1.859 126.345  0.00  0.00    +0.000 A 
BRANCH  26  29
ATOM     29  O   UNL     1      -3.396   3.601 129.351  0.00  0.00    +0.000 OA
BRANCH  29  30
ATOM     30  C   UNL     1      -3.383   4.972 129.268  0.00  0.00    +0.000 A 
ATOM     31  C   UNL     1      -2.533   5.572 128.340  0.00  0.00    +0.000 A 
ATOM     32  C   UNL     1      -2.580   6.953 128.164  0.00  0.00    +0.000 A 
ATOM     33  C   UNL     1      -3.469   7.725 128.916  0.00  0.00    +0.000 A 
ATOM     34  C   UNL     1      -4.286   7.124 129.874  0.00  0.00    +0.000 A 
ATOM     35  C   UNL     1      -4.220   5.748 130.076  0.00  0.00    +0.000 A 
ENDBRANCH  29  30
ENDBRANCH  26  29
ENDBRANCH   8  23
TORSDOF 5
ENDMDL
MODEL 4
REMARK VINA RESULT:      -8.6      4.392      8.350
REMARK  Name = Ibrutinib
REMARK  5 active torsions:
REMARK  status: ('A' for Active; 'I' for Inactive)
REMARK    1  A    between atoms: C_8  and  C_21
REMARK    2  A    between atoms: N_10  and  C_11
REMARK    3  A    between atoms: C_17  and  C_19
REMARK    4  A    between atoms: C_24  and  O_25
REMARK    5  A    between atoms: O_25  and  C_26
REMARK                            x       y       z     vdW  Elec       q    Type
REMARK                         _______ _______ _______ _____ _____    ______ ____
ROOT
ATOM      1  N   UNL     1      -3.955   4.444 127.200  0.00  0.00    +0.000 N 
ATOM      2  C   UNL     1      -4.669   4.908 128.286  0.00  0.00    +0.000 A 
ATOM      3  N   UNL     1      -4.092   5.905 128.972  0.00  0.00    +0.000 NA
ATOM      4  C   UNL     1      -4.795   6.458 129.959  0.00  0.00    +0.000 A 
ATOM      5  N   UNL     1      -6.015   6.118 130.381  0.00  0.00    +0.000 NA
ATOM      6  C   UNL     1      -6.528   5.054 129.750  0.00  0.00    +0.000 A 
ATOM      7  C   UNL     1      -5.925   4.430 128.687  0.00  0.00    +0.000 A 
ATOM      8  C   UNL     1      -6.875   3.477 128.265  0.00  0.00    +0.000 A 
ATOM      9  N   UNL     1      -7.958   3.428 129.063  0.00  0.00    +0.000 NA
ATOM     10  N   UNL     1      -7.673   4.330 130.038  0.00  0.00    +0.000 N 
ATOM     11  H   UNL     1      -3.186   5.053 126.958  0.00  0.00    +0.000 HD
ATOM     12  H   UNL     1      -4.494   4.047 126.444  0.00  0.00    +0.000 HD
ENDROOT
BRANCH  10  13
ATOM     13  C   UNL     1      -8.423   4.259 131.299  0.00  0.00    +0.000 C 
ATOM     14  C   UNL     1      -9.515   3.174 131.368  0.00  0.00    +0.000 C 
ATOM     15  C   UNL     1     -10.680   3.497 130.447  0.00  0.00    +0.000 C 
ATOM     16  C   UNL     1     -11.174   4.958 130.604  0.00  0.00    +0.000 C 
ATOM     17  N   UNL     1     -10.113   5.987 130.699  0.00  0.00    +0.000 N 
ATOM     18  C   UNL     1      -9.029   5.636 131.632  0.00  0.00    +0.000 C 
ATOM     19  C   UNL     1      -9.908   7.084 129.844  0.00  0.00    +0.000 C 
ATOM     20  O   UNL     1      -8.880   7.774 129.896  0.00  0.00    +0.000 OA
BRANCH  19  21
ATOM     21  C   UNL     1     -10.916   7.376 128.769  0.00  0.00    +0.000 C 
ATOM     22  C   UNL     1     -10.608   8.082 127.665  0.00  0.00    +0.000 C 
ENDBRANCH  19  21
ENDBRANCH  10  13
BRANCH   8  23
ATOM     23  C   UNL     1      -6.770   2.725 127.037  0.00  0.00    +0.000 A 
ATOM     24  C   UNL     1      -7.618   3.007 125.958  0.00  0.00    +0.000 A 
ATOM     25  C   UNL     1      -7.659   2.149 124.860  0.00  0.00    +0.000 A 
ATOM     26  C   UNL     1      -6.825   1.031 124.821  0.00  0.00    +0.000 A 
ATOM     27  C   UNL     1      -5.965   0.772 125.898  0.00  0.00    +0.000 A 
ATOM     28  C   UNL     1      -5.956   1.598 127.014  0.00  0.00    +0.000 A 
BRANCH  26  29
ATOM     29  O   UNL     1      -6.929   0.245 123.689  0.00  0.00    +0.000 OA
BRANCH  29  30
ATOM     30  C   UNL     1      -7.244  -1.080 123.875  0.00  0.00    +0.000 A 
ATOM     31  C   UNL     1      -6.218  -2.020 123.813  0.00  0.00    +0.000 A 
ATOM     32  C   UNL     1      -6.496  -3.355 124.103  0.00  0.00    +0.000 A 
ATOM     33  C   UNL     1      -7.793  -3.740 124.448  0.00  0.00    +0.000 A 
ATOM     34  C   UNL     1      -8.826  -2.802 124.466  0.00  0.00    +0.000 A 
ATOM     35  C   UNL     1      -8.559  -1.472 124.145  0.00  0.00    +0.000 A 
ENDBRANCH  29  30
ENDBRANCH  26  29
ENDBRANCH   8  23
TORSDOF 5
ENDMDL
MODEL 5
REMARK VINA RESULT:      -8.6      4.809      6.313
REMARK  Name = Ibrutinib
REMARK  5 active torsions:
REMARK  status: ('A' for Active; 'I' for Inactive)
REMARK    1  A    between atoms: C_8  and  C_21
REMARK    2  A    between atoms: N_10  and  C_11
REMARK    3  A    between atoms: C_17  and  C_19
REMARK    4  A    between atoms: C_24  and  O_25
REMARK    5  A    between atoms: O_25  and  C_26
REMARK                            x       y       z     vdW  Elec       q    Type
REMARK                         _______ _______ _______ _____ _____    ______ ____
ROOT
ATOM      1  N   UNL     1      -5.993   0.855 129.929  0.00  0.00    +0.000 N 
ATOM      2  C   UNL     1      -6.433   0.106 128.855  0.00  0.00    +0.000 A 
ATOM      3  N   UNL     1      -5.799  -1.061 128.669  0.00  0.00    +0.000 NA
ATOM      4  C   UNL     1      -6.264  -1.866 127.716  0.00  0.00    +0.000 A 
ATOM      5  N   UNL     1      -7.282  -1.641 126.883  0.00  0.00    +0.000 NA
ATOM      6  C   UNL     1      -7.833  -0.427 127.018  0.00  0.00    +0.000 A 
ATOM      7  C   UNL     1      -7.477   0.470 127.994  0.00  0.00    +0.000 A 
ATOM      8  C   UNL     1      -8.401   1.525 127.843  0.00  0.00    +0.000 A 
ATOM      9  N   UNL     1      -9.218   1.359 126.786  0.00  0.00    +0.000 NA
ATOM     10  N   UNL     1      -8.777   0.203 126.225  0.00  0.00    +0.000 N 
ATOM     11  H   UNL     1      -5.385   0.328 130.541  0.00  0.00    +0.000 HD
ATOM     12  H   UNL     1      -6.671   1.469 130.356  0.00  0.00    +0.000 HD
ENDROOT
BRANCH  10  13
ATOM     13  C   UNL     1      -9.147  -0.085 124.832  0.00  0.00    +0.000 C 
ATOM     14  C   UNL     1      -8.163  -0.973 124.048  0.00  0.00    +0.000 C 
ATOM     15  C   UNL     1      -6.856  -0.248 123.773  0.00  0.00    +0.000 C 
ATOM     16  C   UNL     1      -7.076   1.177 123.203  0.00  0.00    +0.000 C 
ATOM     17  N   UNL     1      -8.138   1.973 123.860  0.00  0.00    +0.000 N 
ATOM     18  C   UNL     1      -9.392   1.230 124.069  0.00  0.00    +0.000 C 
ATOM     19  C   UNL     1      -7.999   3.214 124.508  0.00  0.00    +0.000 C 
ATOM     20  O   UNL     1      -8.910   3.703 125.192  0.00  0.00    +0.000 OA
BRANCH  19  21
ATOM     21  C   UNL     1      -6.678   3.926 124.455  0.00  0.00    +0.000 C 
ATOM     22  C   UNL     1      -5.739   3.777 125.409  0.00  0.00    +0.000 C 
ENDBRANCH  19  21
ENDBRANCH  10  13
BRANCH   8  23
ATOM     23  C   UNL     1      -8.553   2.603 128.791  0.00  0.00    +0.000 A 
ATOM     24  C   UNL     1      -9.500   2.515 129.820  0.00  0.00    +0.000 A 
ATOM     25  C   UNL     1      -9.791   3.634 130.598  0.00  0.00    +0.000 A 
ATOM     26  C   UNL     1      -9.108   4.832 130.376  0.00  0.00    +0.000 A 
ATOM     27  C   UNL     1      -8.147   4.900 129.357  0.00  0.00    +0.000 A 
ATOM     28  C   UNL     1      -7.889   3.801 128.549  0.00  0.00    +0.000 A 
BRANCH  26  29
ATOM     29  O   UNL     1      -9.457   5.883 131.203  0.00  0.00    +0.000 OA
BRANCH  29  30
ATOM     30  C   UNL     1     -10.557   6.623 130.841  0.00  0.00    +0.000 A 
ATOM     31  C   UNL     1     -11.679   6.590 131.666  0.00  0.00    +0.000 A 
ATOM     32  C   UNL     1     -12.765   7.413 131.376  0.00  0.00    +0.000 A 
ATOM     33  C   UNL     1     -12.726   8.258 130.264  0.00  0.00    +0.000 A 
ATOM     34  C   UNL     1     -11.618   8.254 129.416  0.00  0.00    +0.000 A 
ATOM     35  C   UNL     1     -10.543   7.410 129.685  0.00  0.00    +0.000 A 
ENDBRANCH  29  30
ENDBRANCH  26  29
ENDBRANCH   8  23
TORSDOF 5
ENDMDL
MODEL 6
REMARK VINA RESULT:      -8.5      2.337      3.176
REMARK  Name = Ibrutinib
REMARK  5 active torsions:
REMARK  status: ('A' for Active; 'I' for Inactive)
REMARK    1  A    between atoms: C_8  and  C_21
REMARK    2  A    between atoms: N_10  and  C_11
REMARK    3  A    between atoms: C_17  and  C_19
REMARK    4  A    between atoms: C_24  and  O_25
REMARK    5  A    between atoms: O_25  and  C_26
REMARK                            x       y       z     vdW  Elec       q    Type
REMARK                         _______ _______ _______ _____ _____    ______ ____
ROOT
ATOM      1  N   UNL     1      -7.459   2.770 132.907  0.00  0.00    +0.000 N 
ATOM      2  C   UNL     1      -6.478   2.556 131.960  0.00  0.00    +0.000 A 
ATOM      3  N   UNL     1      -5.561   1.631 132.279  0.00  0.00    +0.000 NA
ATOM      4  C   UNL     1      -4.662   1.313 131.349  0.00  0.00    +0.000 A 
ATOM      5  N   UNL     1      -4.536   1.830 130.125  0.00  0.00    +0.000 NA
ATOM      6  C   UNL     1      -5.397   2.824 129.867  0.00  0.00    +0.000 A 
ATOM      7  C   UNL     1      -6.400   3.208 130.722  0.00  0.00    +0.000 A 
ATOM      8  C   UNL     1      -7.127   4.168 129.986  0.00  0.00    +0.000 A 
ATOM      9  N   UNL     1      -6.570   4.447 128.793  0.00  0.00    +0.000 NA
ATOM     10  N   UNL     1      -5.442   3.689 128.787  0.00  0.00    +0.000 N 
ATOM     11  H   UNL     1      -7.459   2.059 133.626  0.00  0.00    +0.000 HD
ATOM     12  H   UNL     1      -8.353   3.090 132.565  0.00  0.00    +0.000 HD
ENDROOT
BRANCH  10  13
ATOM     13  C   UNL     1      -4.373   4.033 127.840  0.00  0.00    +0.000 C 
ATOM     14  C   UNL     1      -4.675   5.204 126.885  0.00  0.00    +0.000 C 
ATOM     15  C   UNL     1      -5.745   4.834 125.872  0.00  0.00    +0.000 C 
ATOM     16  C   UNL     1      -5.474   3.467 125.192  0.00  0.00    +0.000 C 
ATOM     17  N   UNL     1      -5.026   2.381 126.095  0.00  0.00    +0.000 N 
ATOM     18  C   UNL     1      -3.964   2.787 127.030  0.00  0.00    +0.000 C 
ATOM     19  C   UNL     1      -5.655   1.143 126.319  0.00  0.00    +0.000 C 
ATOM     20  O   UNL     1      -5.307   0.386 127.236  0.00  0.00    +0.000 OA
BRANCH  19  21
ATOM     21  C   UNL     1      -6.850   0.765 125.490  0.00  0.00    +0.000 C 
ATOM     22  C   UNL     1      -7.973   0.259 126.033  0.00  0.00    +0.000 C 
ENDBRANCH  19  21
ENDBRANCH  10  13
BRANCH   8  23
ATOM     23  C   UNL     1      -8.404   4.700 130.400  0.00  0.00    +0.000 A 
ATOM     24  C   UNL     1      -9.570   3.935 130.258  0.00  0.00    +0.000 A 
ATOM     25  C   UNL     1     -10.818   4.524 130.457  0.00  0.00    +0.000 A 
ATOM     26  C   UNL     1     -10.901   5.864 130.838  0.00  0.00    +0.000 A 
ATOM     27  C   UNL     1      -9.726   6.611 130.997  0.00  0.00    +0.000 A 
ATOM     28  C   UNL     1      -8.483   6.042 130.753  0.00  0.00    +0.000 A 
BRANCH  26  29
ATOM     29  O   UNL     1     -12.180   6.356 131.022  0.00  0.00    +0.000 OA
BRANCH  29  30
ATOM     30  C   UNL     1     -12.670   7.198 130.052  0.00  0.00    +0.000 A 
ATOM     31  C   UNL     1     -12.627   8.572 130.284  0.00  0.00    +0.000 A 
ATOM     32  C   UNL     1     -13.020   9.447 129.273  0.00  0.00    +0.000 A 
ATOM     33  C   UNL     1     -13.456   8.947 128.044  0.00  0.00    +0.000 A 
ATOM     34  C   UNL     1     -13.538   7.570 127.834  0.00  0.00    +0.000 A 
ATOM     35  C   UNL     1     -13.177   6.691 128.852  0.00  0.00    +0.000 A 
ENDBRANCH  29  30
ENDBRANCH  26  29
ENDBRANCH   8  23
TORSDOF 5
ENDMDL
MODEL 7
REMARK VINA RESULT:      -8.4      4.498      7.930
REMARK  Name = Ibrutinib
REMARK  5 active torsions:
REMARK  status: ('A' for Active; 'I' for Inactive)
REMARK    1  A    between atoms: C_8  and  C_21
REMARK    2  A    between atoms: N_10  and  C_11
REMARK    3  A    between atoms: C_17  and  C_19
REMARK    4  A    between atoms: C_24  and  O_25
REMARK    5  A    between atoms: O_25  and  C_26
REMARK                            x       y       z     vdW  Elec       q    Type
REMARK                         _______ _______ _______ _____ _____    ______ ____
ROOT
ATOM      1  N   UNL     1      -4.319   1.702 127.815  0.00  0.00    +0.000 N 
ATOM      2  C   UNL     1      -4.434   2.623 128.838  0.00  0.00    +0.000 A 
ATOM      3  N   UNL     1      -3.459   3.541 128.898  0.00  0.00    +0.000 NA
ATOM      4  C   UNL     1      -3.588   4.514 129.798  0.00  0.00    +0.000 A 
ATOM      5  N   UNL     1      -4.570   4.678 130.688  0.00  0.00    +0.000 NA
ATOM      6  C   UNL     1      -5.477   3.692 130.679  0.00  0.00    +0.000 A 
ATOM      7  C   UNL     1      -5.481   2.665 129.769  0.00  0.00    +0.000 A 
ATOM      8  C   UNL     1      -6.675   1.966 130.046  0.00  0.00    +0.000 A 
ATOM      9  N   UNL     1      -7.330   2.452 131.117  0.00  0.00    +0.000 NA
ATOM     10  N   UNL     1      -6.516   3.446 131.560  0.00  0.00    +0.000 N 
ATOM     11  H   UNL     1      -3.619   1.969 127.137  0.00  0.00    +0.000 HD
ATOM     12  H   UNL     1      -5.180   1.305 127.470  0.00  0.00    +0.000 HD
ENDROOT
BRANCH  10  13
ATOM     13  C   UNL     1      -6.687   3.930 132.937  0.00  0.00    +0.000 C 
ATOM     14  C   UNL     1      -7.758   3.204 133.773  0.00  0.00    +0.000 C 
ATOM     15  C   UNL     1      -9.159   3.505 133.267  0.00  0.00    +0.000 C 
ATOM     16  C   UNL     1      -9.397   5.020 133.041  0.00  0.00    +0.000 C 
ATOM     17  N   UNL     1      -8.292   5.751 132.377  0.00  0.00    +0.000 N 
ATOM     18  C   UNL     1      -6.963   5.446 132.932  0.00  0.00    +0.000 C 
ATOM     19  C   UNL     1      -8.346   6.465 131.167  0.00  0.00    +0.000 C 
ATOM     20  O   UNL     1      -7.323   6.876 130.601  0.00  0.00    +0.000 OA
BRANCH  19  21
ATOM     21  C   UNL     1      -9.671   6.654 130.484  0.00  0.00    +0.000 C 
ATOM     22  C   UNL     1      -9.889   7.641 129.594  0.00  0.00    +0.000 C 
ENDBRANCH  19  21
ENDBRANCH  10  13
BRANCH   8  23
ATOM     23  C   UNL     1      -7.215   0.929 129.200  0.00  0.00    +0.000 A 
ATOM     24  C   UNL     1      -6.993  -0.421 129.502  0.00  0.00    +0.000 A 
ATOM     25  C   UNL     1      -7.330  -1.408 128.578  0.00  0.00    +0.000 A 
ATOM     26  C   UNL     1      -7.927  -1.051 127.367  0.00  0.00    +0.000 A 
ATOM     27  C   UNL     1      -8.164   0.302 127.087  0.00  0.00    +0.000 A 
ATOM     28  C   UNL     1      -7.786   1.291 127.984  0.00  0.00    +0.000 A 
BRANCH  26  29
ATOM     29  O   UNL     1      -8.235  -2.098 126.519  0.00  0.00    +0.000 OA
BRANCH  29  30
ATOM     30  C   UNL     1      -7.533  -2.173 125.340  0.00  0.00    +0.000 A 
ATOM     31  C   UNL     1      -8.229  -2.013 124.143  0.00  0.00    +0.000 A 
ATOM     32  C   UNL     1      -7.524  -1.979 122.942  0.00  0.00    +0.000 A 
ATOM     33  C   UNL     1      -6.133  -2.109 122.943  0.00  0.00    +0.000 A 
ATOM     34  C   UNL     1      -5.446  -2.313 124.140  0.00  0.00    +0.000 A 
ATOM     35  C   UNL     1      -6.150  -2.379 125.340  0.00  0.00    +0.000 A 
ENDBRANCH  29  30
ENDBRANCH  26  29
ENDBRANCH   8  23
TORSDOF 5
ENDMDL
MODEL 8
REMARK VINA RESULT:      -8.4      2.000      3.551
REMARK  Name = Ibrutinib
REMARK  5 active torsions:
REMARK  status: ('A' for Active; 'I' for Inactive)
REMARK    1  A    between atoms: C_8  and  C_21
REMARK    2  A    between atoms: N_10  and  C_11
REMARK    3  A    between atoms: C_17  and  C_19
REMARK    4  A    between atoms: C_24  and  O_25
REMARK    5  A    between atoms: O_25  and  C_26
REMARK                            x       y       z     vdW  Elec       q    Type
REMARK                         _______ _______ _______ _____ _____    ______ ____
ROOT
ATOM      1  N   UNL     1      -7.458   3.989 127.585  0.00  0.00    +0.000 N 
ATOM      2  C   UNL     1      -6.246   3.803 128.220  0.00  0.00    +0.000 A 
ATOM      3  N   UNL     1      -5.233   3.423 127.428  0.00  0.00    +0.000 NA
ATOM      4  C   UNL     1      -4.023   3.341 127.978  0.00  0.00    +0.000 A 
ATOM      5  N   UNL     1      -3.688   3.561 129.251  0.00  0.00    +0.000 NA
ATOM      6  C   UNL     1      -4.732   3.837 130.044  0.00  0.00    +0.000 A 
ATOM      7  C   UNL     1      -6.017   3.999 129.589  0.00  0.00    +0.000 A 
ATOM      8  C   UNL     1      -6.735   4.413 130.731  0.00  0.00    +0.000 A 
ATOM      9  N   UNL     1      -5.985   4.415 131.849  0.00  0.00    +0.000 NA
ATOM     10  N   UNL     1      -4.782   3.948 131.423  0.00  0.00    +0.000 N 
ATOM     11  H   UNL     1      -7.365   4.003 126.579  0.00  0.00    +0.000 HD
ATOM     12  H   UNL     1      -8.088   4.655 128.007  0.00  0.00    +0.000 HD
ENDROOT
BRANCH  10  13
ATOM     13  C   UNL     1      -3.841   3.425 132.423  0.00  0.00    +0.000 C 
ATOM     14  C   UNL     1      -4.348   3.412 133.877  0.00  0.00    +0.000 C 
ATOM     15  C   UNL     1      -4.486   4.820 134.433  0.00  0.00    +0.000 C 
ATOM     16  C   UNL     1      -3.229   5.689 134.168  0.00  0.00    +0.000 C 
ATOM     17  N   UNL     1      -2.647   5.576 132.810  0.00  0.00    +0.000 N 
ATOM     18  C   UNL     1      -2.505   4.189 132.339  0.00  0.00    +0.000 C 
ATOM     19  C   UNL     1      -2.468   6.606 131.870  0.00  0.00    +0.000 C 
ATOM     20  O   UNL     1      -2.152   6.374 130.694  0.00  0.00    +0.000 OA
BRANCH  19  21
ATOM     21  C   UNL     1      -2.763   8.025 132.268  0.00  0.00    +0.000 C 
ATOM     22  C   UNL     1      -1.859   8.800 132.896  0.00  0.00    +0.000 C 
ENDBRANCH  19  21
ENDBRANCH  10  13
BRANCH   8  23
ATOM     23  C   UNL     1      -8.089   4.912 130.692  0.00  0.00    +0.000 A 
ATOM     24  C   UNL     1      -8.343   6.284 130.816  0.00  0.00    +0.000 A 
ATOM     25  C   UNL     1      -9.649   6.739 130.991  0.00  0.00    +0.000 A 
ATOM     26  C   UNL     1     -10.707   5.827 131.002  0.00  0.00    +0.000 A 
ATOM     27  C   UNL     1     -10.440   4.459 130.855  0.00  0.00    +0.000 A 
ATOM     28  C   UNL     1      -9.137   3.998 130.729  0.00  0.00    +0.000 A 
BRANCH  26  29
ATOM     29  O   UNL     1     -11.966   6.372 131.171  0.00  0.00    +0.000 OA
BRANCH  29  30
ATOM     30  C   UNL     1     -12.497   7.058 130.105  0.00  0.00    +0.000 A 
ATOM     31  C   UNL     1     -12.557   8.448 130.176  0.00  0.00    +0.000 A 
ATOM     32  C   UNL     1     -12.993   9.170 129.067  0.00  0.00    +0.000 A 
ATOM     33  C   UNL     1     -13.368   8.501 127.899  0.00  0.00    +0.000 A 
ATOM     34  C   UNL     1     -13.348   7.107 127.850  0.00  0.00    +0.000 A 
ATOM     35  C   UNL     1     -12.943   6.380 128.967  0.00  0.00    +0.000 A 
ENDBRANCH  29  30
ENDBRANCH  26  29
ENDBRANCH   8  23
TORSDOF 5
ENDMDL
MODEL 9
REMARK VINA RESULT:      -8.3      4.453      8.004
REMARK  Name = Ibrutinib
REMARK  5 active torsions:
REMARK  status: ('A' for Active; 'I' for Inactive)
REMARK    1  A    between atoms: C_8  and  C_21
REMARK    2  A    between atoms: N_10  and  C_11
REMARK    3  A    between atoms: C_17  and  C_19
REMARK    4  A    between atoms: C_24  and  O_25
REMARK    5  A    between atoms: O_25  and  C_26
REMARK                            x       y       z     vdW  Elec       q    Type
REMARK                         _______ _______ _______ _____ _____    ______ ____
ROOT
ATOM      1  N   UNL     1      -7.123  -0.391 129.578  0.00  0.00    +0.000 N 
ATOM      2  C   UNL     1      -7.620   0.544 130.464  0.00  0.00    +0.000 A 
ATOM      3  N   UNL     1      -7.465   0.247 131.763  0.00  0.00    +0.000 NA
ATOM      4  C   UNL     1      -7.828   1.172 132.649  0.00  0.00    +0.000 A 
ATOM      5  N   UNL     1      -8.367   2.369 132.407  0.00  0.00    +0.000 NA
ATOM      6  C   UNL     1      -8.608   2.600 131.109  0.00  0.00    +0.000 A 
ATOM      7  C   UNL     1      -8.235   1.750 130.099  0.00  0.00    +0.000 A 
ATOM      8  C   UNL     1      -8.556   2.457 128.921  0.00  0.00    +0.000 A 
ATOM      9  N   UNL     1      -9.180   3.625 129.164  0.00  0.00    +0.000 NA
ATOM     10  N   UNL     1      -9.303   3.641 130.517  0.00  0.00    +0.000 N 
ATOM     11  H   UNL     1      -6.538  -1.078 130.034  0.00  0.00    +0.000 HD
ATOM     12  H   UNL     1      -6.826  -0.045 128.679  0.00  0.00    +0.000 HD
ENDROOT
BRANCH  10  13
ATOM     13  C   UNL     1     -10.287   4.550 131.120  0.00  0.00    +0.000 C 
ATOM     14  C   UNL     1     -11.108   5.398 130.131  0.00  0.00    +0.000 C 
ATOM     15  C   UNL     1     -10.246   6.445 129.445  0.00  0.00    +0.000 C 
ATOM     16  C   UNL     1      -9.369   7.241 130.447  0.00  0.00    +0.000 C 
ATOM     17  N   UNL     1      -8.707   6.436 131.499  0.00  0.00    +0.000 N 
ATOM     18  C   UNL     1      -9.599   5.464 132.152  0.00  0.00    +0.000 C 
ATOM     19  C   UNL     1      -7.327   6.325 131.747  0.00  0.00    +0.000 C 
ATOM     20  O   UNL     1      -6.866   5.477 132.525  0.00  0.00    +0.000 OA
BRANCH  19  21
ATOM     21  C   UNL     1      -6.370   7.189 130.977  0.00  0.00    +0.000 C 
ATOM     22  C   UNL     1      -5.118   6.792 130.682  0.00  0.00    +0.000 C 
ENDBRANCH  19  21
ENDBRANCH  10  13
BRANCH   8  23
ATOM     23  C   UNL     1      -8.144   2.047 127.599  0.00  0.00    +0.000 A 
ATOM     24  C   UNL     1      -8.953   1.192 126.837  0.00  0.00    +0.000 A 
ATOM     25  C   UNL     1      -8.460   0.633 125.660  0.00  0.00    +0.000 A 
ATOM     26  C   UNL     1      -7.175   0.956 125.221  0.00  0.00    +0.000 A 
ATOM     27  C   UNL     1      -6.385   1.829 125.982  0.00  0.00    +0.000 A 
ATOM     28  C   UNL     1      -6.854   2.351 127.180  0.00  0.00    +0.000 A 
BRANCH  26  29
ATOM     29  O   UNL     1      -6.777   0.360 124.039  0.00  0.00    +0.000 OA
BRANCH  29  30
ATOM     30  C   UNL     1      -6.673  -1.010 124.035  0.00  0.00    +0.000 A 
ATOM     31  C   UNL     1      -5.549  -1.591 124.619  0.00  0.00    +0.000 A 
ATOM     32  C   UNL     1      -5.472  -2.979 124.721  0.00  0.00    +0.000 A 
ATOM     33  C   UNL     1      -6.513  -3.775 124.237  0.00  0.00    +0.000 A 
ATOM     34  C   UNL     1      -7.616  -3.189 123.613  0.00  0.00    +0.000 A 
ATOM     35  C   UNL     1      -7.682  -1.804 123.481  0.00  0.00    +0.000 A 
ENDBRANCH  29  30
ENDBRANCH  26  29
ENDBRANCH   8  23
TORSDOF 5
ENDMDL
