MODEL 1
REMARK VINA RESULT:      -6.2      0.000      0.000
REMARK  Name = Ibuprofen
REMARK  8 active torsions:
REMARK  status: ('A' for Active; 'I' for Inactive)
REMARK    1  A    between atoms: C_1  and  C_2
REMARK    2  A    between atoms: C_2  and  C_3
REMARK    3  A    between atoms: C_2  and  C_4
REMARK    4  A    between atoms: C_4  and  C_5
REMARK    5  A    between atoms: C_8  and  C_11
REMARK    6  A    between atoms: C_11  and  C_12
REMARK    7  A    between atoms: C_11  and  C_13
REMARK    8  A    between atoms: C_13  and  O_14
REMARK                            x       y       z     vdW  Elec       q    Type
REMARK                         _______ _______ _______ _____ _____    ______ ____
ROOT
ATOM      1  C   UNL     1      -9.674   6.446 131.866  0.00  0.00    +0.000 A 
ATOM      2  C   UNL     1     -11.062   6.284 131.908  0.00  0.00    +0.000 A 
ATOM      3  C   UNL     1     -11.831   6.461 130.762  0.00  0.00    +0.000 A 
ATOM      4  C   UNL     1     -11.262   7.011 129.605  0.00  0.00    +0.000 A 
ATOM      5  C   UNL     1      -9.870   7.100 129.578  0.00  0.00    +0.000 A 
ATOM      6  C   UNL     1      -9.093   6.925 130.709  0.00  0.00    +0.000 A 
ENDROOT
BRANCH   4   7
ATOM      7  C   UNL     1     -12.182   7.503 128.495  0.00  0.00    +0.000 C 
ATOM      8  C   UNL     1     -12.622   8.957 128.800  0.00  0.00    +0.000 C 
BRANCH   7   9
ATOM      9  C   UNL     1     -11.742   7.477 127.027  0.00  0.00    +0.000 C 
ATOM     10  O   UNL     1     -10.896   8.279 126.612  0.00  0.00    +0.000 OA
BRANCH   9  11
ATOM     11  O   UNL     1     -12.219   6.576 126.156  0.00  0.00    +0.000 OA
ATOM     12  H   UNL     1     -12.348   5.664 126.464  0.00  0.00    +0.000 HD
ENDBRANCH   9  11
ENDBRANCH   7   9
ENDBRANCH   4   7
BRANCH   1  13
ATOM     13  C   UNL     1      -8.759   5.931 132.942  0.00  0.00    +0.000 C 
BRANCH  13  15
ATOM     14  C   UNL     1      -8.717   3.575 132.116  0.00  0.00    +0.000 C 
ATOM     15  C   UNL     1      -9.056   4.459 133.309  0.00  0.00    +0.000 C 
ATOM     16  C   UNL     1      -8.256   3.967 134.515  0.00  0.00    +0.000 C 
ENDBRANCH  13  15
ENDBRANCH   1  13
TORSDOF 5
ENDMDL
MODEL 2
REMARK VINA RESULT:      -6.2      1.465      2.057
REMARK  Name = Ibuprofen
REMARK  8 active torsions:
REMARK  status: ('A' for Active; 'I' for Inactive)
REMARK    1  A    between atoms: C_1  and  C_2
REMARK    2  A    between atoms: C_2  and  C_3
REMARK    3  A    between atoms: C_2  and  C_4
REMARK    4  A    between atoms: C_4  and  C_5
REMARK    5  A    between atoms: C_8  and  C_11
REMARK    6  A    between atoms: C_11  and  C_12
REMARK    7  A    between atoms: C_11  and  C_13
REMARK    8  A    between atoms: C_13  and  O_14
REMARK                            x       y       z     vdW  Elec       q    Type
REMARK                         _______ _______ _______ _____ _____    ______ ____
ROOT
ATOM      1  C   UNL     1     -10.053   6.171 131.984  0.00  0.00    +0.000 A 
ATOM      2  C   UNL     1     -11.405   6.440 131.747  0.00  0.00    +0.000 A 
ATOM      3  C   UNL     1     -11.807   7.062 130.570  0.00  0.00    +0.000 A 
ATOM      4  C   UNL     1     -10.858   7.622 129.703  0.00  0.00    +0.000 A 
ATOM      5  C   UNL     1      -9.526   7.281 129.936  0.00  0.00    +0.000 A 
ATOM      6  C   UNL     1      -9.110   6.662 131.101  0.00  0.00    +0.000 A 
ENDROOT
BRANCH   4   7
ATOM      7  C   UNL     1     -11.330   8.576 128.614  0.00  0.00    +0.000 C 
ATOM      8  C   UNL     1     -10.938   8.005 127.227  0.00  0.00    +0.000 C 
BRANCH   7   9
ATOM      9  C   UNL     1     -12.798   9.004 128.511  0.00  0.00    +0.000 C 
ATOM     10  O   UNL     1     -13.638   8.246 128.011  0.00  0.00    +0.000 OA
BRANCH   9  11
ATOM     11  O   UNL     1     -13.231  10.181 128.985  0.00  0.00    +0.000 OA
ATOM     12  H   UNL     1     -14.179  10.380 128.921  0.00  0.00    +0.000 HD
ENDBRANCH   9  11
ENDBRANCH   7   9
ENDBRANCH   4   7
BRANCH   1  13
ATOM     13  C   UNL     1      -9.584   5.203 133.034  0.00  0.00    +0.000 C 
BRANCH  13  15
ATOM     14  C   UNL     1      -8.274   3.141 133.549  0.00  0.00    +0.000 C 
ATOM     15  C   UNL     1      -8.863   3.980 132.423  0.00  0.00    +0.000 C 
ATOM     16  C   UNL     1      -9.788   3.090 131.593  0.00  0.00    +0.000 C 
ENDBRANCH  13  15
ENDBRANCH   1  13
TORSDOF 5
ENDMDL
MODEL 3
REMARK VINA RESULT:      -6.2      9.375     10.359
REMARK  Name = Ibuprofen
REMARK  8 active torsions:
REMARK  status: ('A' for Active; 'I' for Inactive)
REMARK    1  A    between atoms: C_1  and  C_2
REMARK    2  A    between atoms: C_2  and  C_3
REMARK    3  A    between atoms: C_2  and  C_4
REMARK    4  A    between atoms: C_4  and  C_5
REMARK    5  A    between atoms: C_8  and  C_11
REMARK    6  A    between atoms: C_11  and  C_12
REMARK    7  A    between atoms: C_11  and  C_13
REMARK    8  A    between atoms: C_13  and  O_14
REMARK                            x       y       z     vdW  Elec       q    Type
REMARK                         _______ _______ _______ _____ _____    ______ ____
ROOT
ATOM      1  C   UNL     1      -7.654  -3.009 129.389  0.00  0.00    +0.000 A 
ATOM      2  C   UNL     1      -8.449  -3.947 128.723  0.00  0.00    +0.000 A 
ATOM      3  C   UNL     1      -8.827  -3.742 127.400  0.00  0.00    +0.000 A 
ATOM      4  C   UNL     1      -8.605  -2.504 126.782  0.00  0.00    +0.000 A 
ATOM      5  C   UNL     1      -7.758  -1.620 127.450  0.00  0.00    +0.000 A 
ATOM      6  C   UNL     1      -7.372  -1.810 128.764  0.00  0.00    +0.000 A 
ENDROOT
BRANCH   4   7
ATOM      7  C   UNL     1      -9.318  -2.197 125.472  0.00  0.00    +0.000 C 
ATOM      8  C   UNL     1      -8.997  -0.743 125.042  0.00  0.00    +0.000 C 
BRANCH   7   9
ATOM      9  C   UNL     1      -9.118  -3.074 124.232  0.00  0.00    +0.000 C 
ATOM     10  O   UNL     1      -7.992  -3.492 123.935  0.00  0.00    +0.000 OA
BRANCH   9  11
ATOM     11  O   UNL     1     -10.142  -3.450 123.453  0.00  0.00    +0.000 OA
ATOM     12  H   UNL     1      -9.949  -3.996 122.673  0.00  0.00    +0.000 HD
ENDBRANCH   9  11
ENDBRANCH   7   9
ENDBRANCH   4   7
BRANCH   1  13
ATOM     13  C   UNL     1      -6.919  -3.319 130.663  0.00  0.00    +0.000 C 
BRANCH  13  15
ATOM     14  C   UNL     1      -4.617  -3.810 129.829  0.00  0.00    +0.000 C 
ATOM     15  C   UNL     1      -5.855  -4.423 130.472  0.00  0.00    +0.000 C 
ATOM     16  C   UNL     1      -5.436  -5.089 131.783  0.00  0.00    +0.000 C 
ENDBRANCH  13  15
ENDBRANCH   1  13
TORSDOF 5
ENDMDL
MODEL 4
REMARK VINA RESULT:      -6.0      9.396     10.210
REMARK  Name = Ibuprofen
REMARK  8 active torsions:
REMARK  status: ('A' for Active; 'I' for Inactive)
REMARK    1  A    between atoms: C_1  and  C_2
REMARK    2  A    between atoms: C_2  and  C_3
REMARK    3  A    between atoms: C_2  and  C_4
REMARK    4  A    between atoms: C_4  and  C_5
REMARK    5  A    between atoms: C_8  and  C_11
REMARK    6  A    between atoms: C_11  and  C_12
REMARK    7  A    between atoms: C_11  and  C_13
REMARK    8  A    between atoms: C_13  and  O_14
REMARK                            x       y       z     vdW  Elec       q    Type
REMARK                         _______ _______ _______ _____ _____    ______ ____
ROOT
ATOM      1  C   UNL     1      -8.050  -3.121 128.180  0.00  0.00    +0.000 A 
ATOM      2  C   UNL     1      -7.201  -2.254 127.485  0.00  0.00    +0.000 A 
ATOM      3  C   UNL     1      -7.488  -1.881 126.176  0.00  0.00    +0.000 A 
ATOM      4  C   UNL     1      -8.504  -2.529 125.460  0.00  0.00    +0.000 A 
ATOM      5  C   UNL     1      -9.367  -3.338 126.200  0.00  0.00    +0.000 A 
ATOM      6  C   UNL     1      -9.096  -3.716 127.502  0.00  0.00    +0.000 A 
ENDROOT
BRANCH   4   7
ATOM      7  C   UNL     1      -8.574  -2.344 123.950  0.00  0.00    +0.000 C 
ATOM      8  C   UNL     1      -9.569  -3.370 123.353  0.00  0.00    +0.000 C 
BRANCH   7   9
ATOM      9  C   UNL     1      -8.921  -0.986 123.329  0.00  0.00    +0.000 C 
ATOM     10  O   UNL     1      -8.096  -0.064 123.337  0.00  0.00    +0.000 OA
BRANCH   9  11
ATOM     11  O   UNL     1     -10.098  -0.758 122.729  0.00  0.00    +0.000 OA
ATOM     12  H   UNL     1     -10.830  -1.370 122.907  0.00  0.00    +0.000 HD
ENDBRANCH   9  11
ENDBRANCH   7   9
ENDBRANCH   4   7
BRANCH   1  13
ATOM     13  C   UNL     1      -8.010  -3.280 129.674  0.00  0.00    +0.000 C 
BRANCH  13  15
ATOM     14  C   UNL     1      -6.632  -2.500 131.605  0.00  0.00    +0.000 C 
ATOM     15  C   UNL     1      -6.575  -3.167 130.237  0.00  0.00    +0.000 C 
ATOM     16  C   UNL     1      -5.881  -4.520 130.391  0.00  0.00    +0.000 C 
ENDBRANCH  13  15
ENDBRANCH   1  13
TORSDOF 5
ENDMDL
MODEL 5
REMARK VINA RESULT:      -5.9      2.883      5.727
REMARK  Name = Ibuprofen
REMARK  8 active torsions:
REMARK  status: ('A' for Active; 'I' for Inactive)
REMARK    1  A    between atoms: C_1  and  C_2
REMARK    2  A    between atoms: C_2  and  C_3
REMARK    3  A    between atoms: C_2  and  C_4
REMARK    4  A    between atoms: C_4  and  C_5
REMARK    5  A    between atoms: C_8  and  C_11
REMARK    6  A    between atoms: C_11  and  C_12
REMARK    7  A    between atoms: C_11  and  C_13
REMARK    8  A    between atoms: C_13  and  O_14
REMARK                            x       y       z     vdW  Elec       q    Type
REMARK                         _______ _______ _______ _____ _____    ______ ____
ROOT
ATOM      1  C   UNL     1     -11.217   6.866 130.755  0.00  0.00    +0.000 A 
ATOM      2  C   UNL     1     -10.884   6.231 131.956  0.00  0.00    +0.000 A 
ATOM      3  C   UNL     1      -9.560   6.167 132.379  0.00  0.00    +0.000 A 
ATOM      4  C   UNL     1      -8.521   6.542 131.517  0.00  0.00    +0.000 A 
ATOM      5  C   UNL     1      -8.889   7.226 130.360  0.00  0.00    +0.000 A 
ATOM      6  C   UNL     1     -10.200   7.300 129.926  0.00  0.00    +0.000 A 
ENDROOT
BRANCH   4   7
ATOM      7  C   UNL     1      -7.092   6.150 131.874  0.00  0.00    +0.000 C 
ATOM      8  C   UNL     1      -7.047   4.642 132.225  0.00  0.00    +0.000 C 
BRANCH   7   9
ATOM      9  C   UNL     1      -5.931   6.409 130.907  0.00  0.00    +0.000 C 
ATOM     10  O   UNL     1      -5.058   7.240 131.185  0.00  0.00    +0.000 OA
BRANCH   9  11
ATOM     11  O   UNL     1      -5.795   5.729 129.760  0.00  0.00    +0.000 OA
ATOM     12  H   UNL     1      -4.962   5.819 129.269  0.00  0.00    +0.000 HD
ENDBRANCH   9  11
ENDBRANCH   7   9
ENDBRANCH   4   7
BRANCH   1  13
ATOM     13  C   UNL     1     -12.619   7.287 130.415  0.00  0.00    +0.000 C 
BRANCH  13  15
ATOM     14  C   UNL     1     -13.757   7.202 128.194  0.00  0.00    +0.000 C 
ATOM     15  C   UNL     1     -12.712   7.942 129.019  0.00  0.00    +0.000 C 
ATOM     16  C   UNL     1     -13.100   9.420 129.073  0.00  0.00    +0.000 C 
ENDBRANCH  13  15
ENDBRANCH   1  13
TORSDOF 5
ENDMDL
MODEL 6
REMARK VINA RESULT:      -5.8      9.317     11.419
REMARK  Name = Ibuprofen
REMARK  8 active torsions:
REMARK  status: ('A' for Active; 'I' for Inactive)
REMARK    1  A    between atoms: C_1  and  C_2
REMARK    2  A    between atoms: C_2  and  C_3
REMARK    3  A    between atoms: C_2  and  C_4
REMARK    4  A    between atoms: C_4  and  C_5
REMARK    5  A    between atoms: C_8  and  C_11
REMARK    6  A    between atoms: C_11  and  C_12
REMARK    7  A    between atoms: C_11  and  C_13
REMARK    8  A    between atoms: C_13  and  O_14
REMARK                            x       y       z     vdW  Elec       q    Type
REMARK                         _______ _______ _______ _____ _____    ______ ____
ROOT
ATOM      1  C   UNL     1      -8.602  -2.620 126.865  0.00  0.00    +0.000 A 
ATOM      2  C   UNL     1      -8.932  -3.748 127.623  0.00  0.00    +0.000 A 
ATOM      3  C   UNL     1      -8.648  -3.795 128.983  0.00  0.00    +0.000 A 
ATOM      4  C   UNL     1      -7.839  -2.814 129.573  0.00  0.00    +0.000 A 
ATOM      5  C   UNL     1      -7.583  -1.677 128.808  0.00  0.00    +0.000 A 
ATOM      6  C   UNL     1      -7.861  -1.614 127.454  0.00  0.00    +0.000 A 
ENDROOT
BRANCH   4   7
ATOM      7  C   UNL     1      -7.272  -3.066 130.965  0.00  0.00    +0.000 C 
ATOM      8  C   UNL     1      -6.076  -4.045 130.861  0.00  0.00    +0.000 C 
BRANCH   7   9
ATOM      9  C   UNL     1      -6.814  -1.910 131.859  0.00  0.00    +0.000 C 
ATOM     10  O   UNL     1      -7.586  -1.419 132.693  0.00  0.00    +0.000 OA
BRANCH   9  11
ATOM     11  O   UNL     1      -5.569  -1.416 131.804  0.00  0.00    +0.000 OA
ATOM     12  H   UNL     1      -5.389  -0.573 132.250  0.00  0.00    +0.000 HD
ENDBRANCH   9  11
ENDBRANCH   7   9
ENDBRANCH   4   7
BRANCH   1  13
ATOM     13  C   UNL     1      -9.187  -2.349 125.507  0.00  0.00    +0.000 C 
BRANCH  13  15
ATOM     14  C   UNL     1      -9.444  -3.092 123.137  0.00  0.00    +0.000 C 
ATOM     15  C   UNL     1      -8.846  -3.460 124.489  0.00  0.00    +0.000 C 
ATOM     16  C   UNL     1      -7.342  -3.670 124.309  0.00  0.00    +0.000 C 
ENDBRANCH  13  15
ENDBRANCH   1  13
TORSDOF 5
ENDMDL
MODEL 7
REMARK VINA RESULT:      -5.7      3.220      6.029
REMARK  Name = Ibuprofen
REMARK  8 active torsions:
REMARK  status: ('A' for Active; 'I' for Inactive)
REMARK    1  A    between atoms: C_1  and  C_2
REMARK    2  A    between atoms: C_2  and  C_3
REMARK    3  A    between atoms: C_2  and  C_4
REMARK    4  A    between atoms: C_4  and  C_5
REMARK    5  A    between atoms: C_8  and  C_11
REMARK    6  A    between atoms: C_11  and  C_12
REMARK    7  A    between atoms: C_11  and  C_13
REMARK    8  A    between atoms: C_13  and  O_14
REMARK                            x       y       z     vdW  Elec       q    Type
REMARK                         _______ _______ _______ _____ _____    ______ ____
ROOT
ATOM      1  C   UNL     1     -11.489   7.729 129.815  0.00  0.00    +0.000 A 
ATOM      2  C   UNL     1     -12.132   7.135 130.905  0.00  0.00    +0.000 A 
ATOM      3  C   UNL     1     -11.398   6.489 131.895  0.00  0.00    +0.000 A 
ATOM      4  C   UNL     1     -10.031   6.235 131.712  0.00  0.00    +0.000 A 
ATOM      5  C   UNL     1      -9.413   6.895 130.650  0.00  0.00    +0.000 A 
ATOM      6  C   UNL     1     -10.129   7.541 129.659  0.00  0.00    +0.000 A 
ENDROOT
BRANCH   4   7
ATOM      7  C   UNL     1      -9.336   5.247 132.640  0.00  0.00    +0.000 C 
ATOM      8  C   UNL     1      -8.667   4.134 131.795  0.00  0.00    +0.000 C 
BRANCH   7   9
ATOM      9  C   UNL     1      -8.289   5.712 133.657  0.00  0.00    +0.000 C 
ATOM     10  O   UNL     1      -7.086   5.707 133.366  0.00  0.00    +0.000 OA
BRANCH   9  11
ATOM     11  O   UNL     1      -8.630   6.173 134.870  0.00  0.00    +0.000 OA
ATOM     12  H   UNL     1      -9.514   6.557 134.982  0.00  0.00    +0.000 HD
ENDBRANCH   9  11
ENDBRANCH   7   9
ENDBRANCH   4   7
BRANCH   1  13
ATOM     13  C   UNL     1     -12.160   8.732 128.918  0.00  0.00    +0.000 C 
BRANCH  13  15
ATOM     14  C   UNL     1     -11.772   7.432 126.822  0.00  0.00    +0.000 C 
ATOM     15  C   UNL     1     -12.842   8.067 127.702  0.00  0.00    +0.000 C 
ATOM     16  C   UNL     1     -13.847   6.983 128.094  0.00  0.00    +0.000 C 
ENDBRANCH  13  15
ENDBRANCH   1  13
TORSDOF 5
ENDMDL
MODEL 8
REMARK VINA RESULT:      -5.7     10.204     11.972
REMARK  Name = Ibuprofen
REMARK  8 active torsions:
REMARK  status: ('A' for Active; 'I' for Inactive)
REMARK    1  A    between atoms: C_1  and  C_2
REMARK    2  A    between atoms: C_2  and  C_3
REMARK    3  A    between atoms: C_2  and  C_4
REMARK    4  A    between atoms: C_4  and  C_5
REMARK    5  A    between atoms: C_8  and  C_11
REMARK    6  A    between atoms: C_11  and  C_12
REMARK    7  A    between atoms: C_11  and  C_13
REMARK    8  A    between atoms: C_13  and  O_14
REMARK                            x       y       z     vdW  Elec       q    Type
REMARK                         _______ _______ _______ _____ _____    ______ ____
ROOT
ATOM      1  C   UNL     1      -8.406  -2.325 126.881  0.00  0.00    +0.000 A 
ATOM      2  C   UNL     1      -7.332  -1.515 127.261  0.00  0.00    +0.000 A 
ATOM      3  C   UNL     1      -6.544  -1.851 128.357  0.00  0.00    +0.000 A 
ATOM      4  C   UNL     1      -6.937  -2.879 129.224  0.00  0.00    +0.000 A 
ATOM      5  C   UNL     1      -7.972  -3.703 128.783  0.00  0.00    +0.000 A 
ATOM      6  C   UNL     1      -8.764  -3.383 127.695  0.00  0.00    +0.000 A 
ENDROOT
BRANCH   4   7
ATOM      7  C   UNL     1      -6.251  -3.002 130.579  0.00  0.00    +0.000 C 
ATOM      8  C   UNL     1      -7.324  -3.034 131.696  0.00  0.00    +0.000 C 
BRANCH   7   9
ATOM      9  C   UNL     1      -5.276  -4.146 130.876  0.00  0.00    +0.000 C 
ATOM     10  O   UNL     1      -4.132  -3.905 131.282  0.00  0.00    +0.000 OA
BRANCH   9  11
ATOM     11  O   UNL     1      -5.628  -5.433 130.750  0.00  0.00    +0.000 OA
ATOM     12  H   UNL     1      -6.452  -5.727 131.171  0.00  0.00    +0.000 HD
ENDBRANCH   9  11
ENDBRANCH   7   9
ENDBRANCH   4   7
BRANCH   1  13
ATOM     13  C   UNL     1      -9.063  -2.232 125.532  0.00  0.00    +0.000 C 
BRANCH  13  15
ATOM     14  C   UNL     1      -9.583  -3.363 123.368  0.00  0.00    +0.000 C 
ATOM     15  C   UNL     1      -8.775  -3.471 124.654  0.00  0.00    +0.000 C 
ATOM     16  C   UNL     1      -7.298  -3.615 124.284  0.00  0.00    +0.000 C 
ENDBRANCH  13  15
ENDBRANCH   1  13
TORSDOF 5
ENDMDL
MODEL 9
REMARK VINA RESULT:      -5.7      3.367      6.149
REMARK  Name = Ibuprofen
REMARK  8 active torsions:
REMARK  status: ('A' for Active; 'I' for Inactive)
REMARK    1  A    between atoms: C_1  and  C_2
REMARK    2  A    between atoms: C_2  and  C_3
REMARK    3  A    between atoms: C_2  and  C_4
REMARK    4  A    between atoms: C_4  and  C_5
REMARK    5  A    between atoms: C_8  and  C_11
REMARK    6  A    between atoms: C_11  and  C_12
REMARK    7  A    between atoms: C_11  and  C_13
REMARK    8  A    between atoms: C_13  and  O_14
REMARK                            x       y       z     vdW  Elec       q    Type
REMARK                         _______ _______ _______ _____ _____    ______ ____
ROOT
ATOM      1  C   UNL     1     -10.486   7.200 129.465  0.00  0.00    +0.000 A 
ATOM      2  C   UNL     1     -11.068   5.984 129.837  0.00  0.00    +0.000 A 
ATOM      3  C   UNL     1     -10.492   5.198 130.830  0.00  0.00    +0.000 A 
ATOM      4  C   UNL     1      -9.214   5.499 131.321  0.00  0.00    +0.000 A 
ATOM      5  C   UNL     1      -8.694   6.747 130.977  0.00  0.00    +0.000 A 
ATOM      6  C   UNL     1      -9.255   7.540 129.993  0.00  0.00    +0.000 A 
ENDROOT
BRANCH   4   7
ATOM      7  C   UNL     1      -8.478   4.452 132.146  0.00  0.00    +0.000 C 
ATOM      8  C   UNL     1      -7.351   5.138 132.959  0.00  0.00    +0.000 C 
BRANCH   7   9
ATOM      9  C   UNL     1      -9.225   3.537 133.121  0.00  0.00    +0.000 C 
ATOM     10  O   UNL     1      -9.230   2.311 132.952  0.00  0.00    +0.000 OA
BRANCH   9  11
ATOM     11  O   UNL     1      -9.860   4.014 134.201  0.00  0.00    +0.000 OA
ATOM     12  H   UNL     1     -10.589   4.642 134.065  0.00  0.00    +0.000 HD
ENDBRANCH   9  11
ENDBRANCH   7   9
ENDBRANCH   4   7
BRANCH   1  13
ATOM     13  C   UNL     1     -11.221   8.252 128.683  0.00  0.00    +0.000 C 
BRANCH  13  15
ATOM     14  C   UNL     1     -13.062   9.758 129.444  0.00  0.00    +0.000 C 
ATOM     15  C   UNL     1     -12.718   8.325 129.060  0.00  0.00    +0.000 C 
ATOM     16  C   UNL     1     -13.646   7.895 127.924  0.00  0.00    +0.000 C 
ENDBRANCH  13  15
ENDBRANCH   1  13
TORSDOF 5
ENDMDL
