MODEL 1
REMARK VINA RESULT:      -6.3      0.000      0.000
REMARK  Name = Ibutilide
REMARK  18 active torsions:
REMARK  status: ('A' for Active; 'I' for Inactive)
REMARK    1  A    between atoms: C_1  and  C_2
REMARK    2  A    between atoms: C_2  and  C_3
REMARK    3  A    between atoms: C_3  and  C_4
REMARK    4  A    between atoms: C_4  and  C_5
REMARK    5  A    between atoms: C_5  and  C_6
REMARK    6  A    between atoms: C_6  and  C_7
REMARK    7  A    between atoms: C_7  and  N_8
REMARK    8  A    between atoms: N_8  and  C_9
REMARK    9  A    between atoms: N_8  and  C_11
REMARK   10  A    between atoms: C_9  and  C_10
REMARK   11  A    between atoms: C_11  and  C_12
REMARK   12  A    between atoms: C_12  and  C_13
REMARK   13  A    between atoms: C_13  and  C_14
REMARK   14  A    between atoms: C_14  and  O_15
REMARK   15  A    between atoms: C_14  and  C_16
REMARK   16  A    between atoms: C_19  and  N_20
REMARK   17  A    between atoms: N_20  and  S_21
REMARK   18  A    between atoms: S_21  and  C_22
REMARK                            x       y       z     vdW  Elec       q    Type
REMARK                         _______ _______ _______ _____ _____    ______ ____
ROOT
ATOM      1  C   UNL     1      -8.919  -2.066 124.956  0.00  0.00    +0.000 C 
ENDROOT
BRANCH   1   2
ATOM      2  C   UNL     1      -8.619  -2.324 126.406  0.00  0.00    +0.000 A 
ATOM      3  C   UNL     1      -8.960  -3.539 127.022  0.00  0.00    +0.000 A 
ATOM      4  C   UNL     1      -8.694  -3.758 128.372  0.00  0.00    +0.000 A 
ATOM      5  C   UNL     1      -8.029  -2.783 129.114  0.00  0.00    +0.000 A 
ATOM      6  C   UNL     1      -7.735  -1.561 128.509  0.00  0.00    +0.000 A 
ATOM      7  C   UNL     1      -8.011  -1.331 127.167  0.00  0.00    +0.000 A 
BRANCH   5   8
ATOM      8  N   UNL     1      -7.540  -3.136 130.403  0.00  0.00    +0.000 N 
ATOM      9  H   UNL     1      -8.149  -3.049 131.217  0.00  0.00    +0.000 HD
BRANCH   8  10
ATOM     10  S   UNL     1      -5.936  -3.435 130.752  0.00  0.00    +0.000 S 
ATOM     11  C   UNL     1      -5.348  -1.877 131.418  0.00  0.00    +0.000 C 
ATOM     12  O   UNL     1      -5.857  -4.447 131.791  0.00  0.00    +0.000 OA
ATOM     13  O   UNL     1      -5.286  -3.635 129.480  0.00  0.00    +0.000 OA
ENDBRANCH   8  10
ENDBRANCH   5   8
ENDBRANCH   1   2
BRANCH   1  14
ATOM     14  O   UNL     1      -9.799  -3.084 124.484  0.00  0.00    +0.000 OA
ATOM     15  H   UNL     1     -10.676  -2.919 124.863  0.00  0.00    +0.000 HD
ENDBRANCH   1  14
BRANCH   1  16
ATOM     16  C   UNL     1      -7.624  -2.044 124.149  0.00  0.00    +0.000 C 
BRANCH  16  17
ATOM     17  C   UNL     1      -7.689  -0.980 123.079  0.00  0.00    +0.000 C 
BRANCH  17  18
ATOM     18  C   UNL     1      -7.005   0.296 123.553  0.00  0.00    +0.000 C 
BRANCH  18  19
ATOM     19  N   UNL     1      -7.983   1.321 123.973  0.00  0.00    +0.000 NA
BRANCH  19  20
ATOM     20  C   UNL     1      -9.248   1.163 123.213  0.00  0.00    +0.000 C 
ATOM     21  C   UNL     1     -10.559   1.417 123.947  0.00  0.00    +0.000 C 
ENDBRANCH  19  20
BRANCH  19  22
ATOM     22  C   UNL     1      -7.337   2.639 123.797  0.00  0.00    +0.000 C 
BRANCH  22  23
ATOM     23  C   UNL     1      -6.597   2.737 122.482  0.00  0.00    +0.000 C 
BRANCH  23  24
ATOM     24  C   UNL     1      -5.634   3.883 122.369  0.00  0.00    +0.000 C 
BRANCH  24  25
ATOM     25  C   UNL     1      -5.669   4.358 120.918  0.00  0.00    +0.000 C 
BRANCH  25  26
ATOM     26  C   UNL     1      -6.937   3.849 120.277  0.00  0.00    +0.000 C 
BRANCH  26  28
ATOM     27  C   UNL     1      -6.060   5.507 118.668  0.00  0.00    +0.000 C 
ATOM     28  C   UNL     1      -7.183   4.529 118.943  0.00  0.00    +0.000 C 
ENDBRANCH  26  28
ENDBRANCH  25  26
ENDBRANCH  24  25
ENDBRANCH  23  24
ENDBRANCH  22  23
ENDBRANCH  19  22
ENDBRANCH  18  19
ENDBRANCH  17  18
ENDBRANCH  16  17
ENDBRANCH   1  16
TORSDOF 15
ENDMDL
MODEL 2
REMARK VINA RESULT:      -6.2      4.306      7.682
REMARK  Name = Ibutilide
REMARK  18 active torsions:
REMARK  status: ('A' for Active; 'I' for Inactive)
REMARK    1  A    between atoms: C_1  and  C_2
REMARK    2  A    between atoms: C_2  and  C_3
REMARK    3  A    between atoms: C_3  and  C_4
REMARK    4  A    between atoms: C_4  and  C_5
REMARK    5  A    between atoms: C_5  and  C_6
REMARK    6  A    between atoms: C_6  and  C_7
REMARK    7  A    between atoms: C_7  and  N_8
REMARK    8  A    between atoms: N_8  and  C_9
REMARK    9  A    between atoms: N_8  and  C_11
REMARK   10  A    between atoms: C_9  and  C_10
REMARK   11  A    between atoms: C_11  and  C_12
REMARK   12  A    between atoms: C_12  and  C_13
REMARK   13  A    between atoms: C_13  and  C_14
REMARK   14  A    between atoms: C_14  and  O_15
REMARK   15  A    between atoms: C_14  and  C_16
REMARK   16  A    between atoms: C_19  and  N_20
REMARK   17  A    between atoms: N_20  and  S_21
REMARK   18  A    between atoms: S_21  and  C_22
REMARK                            x       y       z     vdW  Elec       q    Type
REMARK                         _______ _______ _______ _____ _____    ______ ____
ROOT
ATOM      1  C   UNL     1      -7.944   3.233 124.197  0.00  0.00    +0.000 C 
ENDROOT
BRANCH   1   2
ATOM      2  C   UNL     1      -6.857   3.297 125.233  0.00  0.00    +0.000 A 
ATOM      3  C   UNL     1      -5.546   3.673 124.900  0.00  0.00    +0.000 A 
ATOM      4  C   UNL     1      -4.544   3.709 125.867  0.00  0.00    +0.000 A 
ATOM      5  C   UNL     1      -4.852   3.423 127.196  0.00  0.00    +0.000 A 
ATOM      6  C   UNL     1      -6.145   3.004 127.512  0.00  0.00    +0.000 A 
ATOM      7  C   UNL     1      -7.145   2.953 126.550  0.00  0.00    +0.000 A 
BRANCH   5   8
ATOM      8  N   UNL     1      -3.880   3.722 128.192  0.00  0.00    +0.000 N 
ATOM      9  H   UNL     1      -3.304   2.974 128.578  0.00  0.00    +0.000 HD
BRANCH   8  10
ATOM     10  S   UNL     1      -3.777   5.180 128.999  0.00  0.00    +0.000 S 
ATOM     11  C   UNL     1      -2.541   6.092 128.073  0.00  0.00    +0.000 C 
ATOM     12  O   UNL     1      -5.049   5.872 128.891  0.00  0.00    +0.000 OA
ATOM     13  O   UNL     1      -3.213   4.875 130.292  0.00  0.00    +0.000 OA
ENDBRANCH   8  10
ENDBRANCH   5   8
ENDBRANCH   1   2
BRANCH   1  14
ATOM     14  O   UNL     1      -9.188   3.003 124.853  0.00  0.00    +0.000 OA
ATOM     15  H   UNL     1      -9.063   3.177 125.799  0.00  0.00    +0.000 HD
ENDBRANCH   1  14
BRANCH   1  16
ATOM     16  C   UNL     1      -7.643   2.127 123.188  0.00  0.00    +0.000 C 
BRANCH  16  17
ATOM     17  C   UNL     1      -8.032   0.781 123.752  0.00  0.00    +0.000 C 
BRANCH  17  18
ATOM     18  C   UNL     1      -6.808  -0.117 123.880  0.00  0.00    +0.000 C 
BRANCH  18  19
ATOM     19  N   UNL     1      -7.125  -1.528 123.579  0.00  0.00    +0.000 NA
BRANCH  19  20
ATOM     20  C   UNL     1      -6.061  -2.122 122.733  0.00  0.00    +0.000 C 
ATOM     21  C   UNL     1      -5.043  -3.039 123.402  0.00  0.00    +0.000 C 
ENDBRANCH  19  20
BRANCH  19  22
ATOM     22  C   UNL     1      -8.467  -1.552 122.960  0.00  0.00    +0.000 C 
BRANCH  22  23
ATOM     23  C   UNL     1      -9.238  -2.800 123.325  0.00  0.00    +0.000 C 
BRANCH  23  24
ATOM     24  C   UNL     1      -8.715  -3.558 124.510  0.00  0.00    +0.000 C 
BRANCH  24  25
ATOM     25  C   UNL     1      -9.484  -3.063 125.734  0.00  0.00    +0.000 C 
BRANCH  25  26
ATOM     26  C   UNL     1      -8.513  -2.893 126.875  0.00  0.00    +0.000 C 
BRANCH  26  28
ATOM     27  C   UNL     1      -8.128  -3.344 129.275  0.00  0.00    +0.000 C 
ATOM     28  C   UNL     1      -8.879  -3.794 128.040  0.00  0.00    +0.000 C 
ENDBRANCH  26  28
ENDBRANCH  25  26
ENDBRANCH  24  25
ENDBRANCH  23  24
ENDBRANCH  22  23
ENDBRANCH  19  22
ENDBRANCH  18  19
ENDBRANCH  17  18
ENDBRANCH  16  17
ENDBRANCH   1  16
TORSDOF 15
ENDMDL
MODEL 3
REMARK VINA RESULT:      -6.0      3.532      8.303
REMARK  Name = Ibutilide
REMARK  18 active torsions:
REMARK  status: ('A' for Active; 'I' for Inactive)
REMARK    1  A    between atoms: C_1  and  C_2
REMARK    2  A    between atoms: C_2  and  C_3
REMARK    3  A    between atoms: C_3  and  C_4
REMARK    4  A    between atoms: C_4  and  C_5
REMARK    5  A    between atoms: C_5  and  C_6
REMARK    6  A    between atoms: C_6  and  C_7
REMARK    7  A    between atoms: C_7  and  N_8
REMARK    8  A    between atoms: N_8  and  C_9
REMARK    9  A    between atoms: N_8  and  C_11
REMARK   10  A    between atoms: C_9  and  C_10
REMARK   11  A    between atoms: C_11  and  C_12
REMARK   12  A    between atoms: C_12  and  C_13
REMARK   13  A    between atoms: C_13  and  C_14
REMARK   14  A    between atoms: C_14  and  O_15
REMARK   15  A    between atoms: C_14  and  C_16
REMARK   16  A    between atoms: C_19  and  N_20
REMARK   17  A    between atoms: N_20  and  S_21
REMARK   18  A    between atoms: S_21  and  C_22
REMARK                            x       y       z     vdW  Elec       q    Type
REMARK                         _______ _______ _______ _____ _____    ______ ____
ROOT
ATOM      1  C   UNL     1      -4.798  -1.359 129.188  0.00  0.00    +0.000 C 
ENDROOT
BRANCH   1   2
ATOM      2  C   UNL     1      -5.589  -0.776 128.051  0.00  0.00    +0.000 A 
ATOM      3  C   UNL     1      -6.480   0.290 128.247  0.00  0.00    +0.000 A 
ATOM      4  C   UNL     1      -7.222   0.808 127.187  0.00  0.00    +0.000 A 
ATOM      5  C   UNL     1      -7.040   0.303 125.902  0.00  0.00    +0.000 A 
ATOM      6  C   UNL     1      -6.188  -0.787 125.721  0.00  0.00    +0.000 A 
ATOM      7  C   UNL     1      -5.456  -1.317 126.776  0.00  0.00    +0.000 A 
BRANCH   5   8
ATOM      8  N   UNL     1      -7.607   1.020 124.810  0.00  0.00    +0.000 N 
ATOM      9  H   UNL     1      -6.997   1.429 124.103  0.00  0.00    +0.000 HD
BRANCH   8  10
ATOM     10  S   UNL     1      -9.205   1.492 124.722  0.00  0.00    +0.000 S 
ATOM     11  C   UNL     1      -9.537   1.539 122.960  0.00  0.00    +0.000 C 
ATOM     12  O   UNL     1     -10.037   0.468 125.328  0.00  0.00    +0.000 OA
ATOM     13  O   UNL     1      -9.242   2.851 125.205  0.00  0.00    +0.000 OA
ENDBRANCH   8  10
ENDBRANCH   5   8
ENDBRANCH   1   2
BRANCH   1  14
ATOM     14  O   UNL     1      -3.747  -0.456 129.524  0.00  0.00    +0.000 OA
ATOM     15  H   UNL     1      -3.138  -0.413 128.770  0.00  0.00    +0.000 HD
ENDBRANCH   1  14
BRANCH   1  16
ATOM     16  C   UNL     1      -4.241  -2.725 128.794  0.00  0.00    +0.000 C 
BRANCH  16  17
ATOM     17  C   UNL     1      -4.131  -3.618 130.006  0.00  0.00    +0.000 C 
BRANCH  17  18
ATOM     18  C   UNL     1      -5.489  -4.215 130.353  0.00  0.00    +0.000 C 
BRANCH  18  19
ATOM     19  N   UNL     1      -6.209  -3.400 131.353  0.00  0.00    +0.000 NA
BRANCH  19  20
ATOM     20  C   UNL     1      -6.285  -4.126 132.645  0.00  0.00    +0.000 C 
ATOM     21  C   UNL     1      -5.229  -5.186 132.933  0.00  0.00    +0.000 C 
ENDBRANCH  19  20
BRANCH  19  22
ATOM     22  C   UNL     1      -7.527  -3.063 130.776  0.00  0.00    +0.000 C 
BRANCH  22  23
ATOM     23  C   UNL     1      -7.718  -3.671 129.405  0.00  0.00    +0.000 C 
BRANCH  23  24
ATOM     24  C   UNL     1      -8.477  -2.825 128.425  0.00  0.00    +0.000 C 
BRANCH  24  25
ATOM     25  C   UNL     1      -8.629  -3.647 127.146  0.00  0.00    +0.000 C 
BRANCH  25  26
ATOM     26  C   UNL     1      -9.279  -2.782 126.094  0.00  0.00    +0.000 C 
BRANCH  26  28
ATOM     27  C   UNL     1      -7.676  -3.856 124.549  0.00  0.00    +0.000 C 
ATOM     28  C   UNL     1      -9.105  -3.385 124.712  0.00  0.00    +0.000 C 
ENDBRANCH  26  28
ENDBRANCH  25  26
ENDBRANCH  24  25
ENDBRANCH  23  24
ENDBRANCH  22  23
ENDBRANCH  19  22
ENDBRANCH  18  19
ENDBRANCH  17  18
ENDBRANCH  16  17
ENDBRANCH   1  16
TORSDOF 15
ENDMDL
MODEL 4
REMARK VINA RESULT:      -6.0      2.832      4.642
REMARK  Name = Ibutilide
REMARK  18 active torsions:
REMARK  status: ('A' for Active; 'I' for Inactive)
REMARK    1  A    between atoms: C_1  and  C_2
REMARK    2  A    between atoms: C_2  and  C_3
REMARK    3  A    between atoms: C_3  and  C_4
REMARK    4  A    between atoms: C_4  and  C_5
REMARK    5  A    between atoms: C_5  and  C_6
REMARK    6  A    between atoms: C_6  and  C_7
REMARK    7  A    between atoms: C_7  and  N_8
REMARK    8  A    between atoms: N_8  and  C_9
REMARK    9  A    between atoms: N_8  and  C_11
REMARK   10  A    between atoms: C_9  and  C_10
REMARK   11  A    between atoms: C_11  and  C_12
REMARK   12  A    between atoms: C_12  and  C_13
REMARK   13  A    between atoms: C_13  and  C_14
REMARK   14  A    between atoms: C_14  and  O_15
REMARK   15  A    between atoms: C_14  and  C_16
REMARK   16  A    between atoms: C_19  and  N_20
REMARK   17  A    between atoms: N_20  and  S_21
REMARK   18  A    between atoms: S_21  and  C_22
REMARK                            x       y       z     vdW  Elec       q    Type
REMARK                         _______ _______ _______ _____ _____    ______ ____
ROOT
ATOM      1  C   UNL     1      -8.581  -2.231 127.197  0.00  0.00    +0.000 C 
ENDROOT
BRANCH   1   2
ATOM      2  C   UNL     1      -7.509  -2.647 128.165  0.00  0.00    +0.000 A 
ATOM      3  C   UNL     1      -7.806  -3.408 129.307  0.00  0.00    +0.000 A 
ATOM      4  C   UNL     1      -6.805  -3.771 130.206  0.00  0.00    +0.000 A 
ATOM      5  C   UNL     1      -5.481  -3.424 129.946  0.00  0.00    +0.000 A 
ATOM      6  C   UNL     1      -5.199  -2.629 128.835  0.00  0.00    +0.000 A 
ATOM      7  C   UNL     1      -6.194  -2.252 127.942  0.00  0.00    +0.000 A 
BRANCH   5   8
ATOM      8  N   UNL     1      -4.460  -4.028 130.733  0.00  0.00    +0.000 N 
ATOM      9  H   UNL     1      -4.309  -5.035 130.680  0.00  0.00    +0.000 HD
BRANCH   8  10
ATOM     10  S   UNL     1      -3.642  -3.257 131.967  0.00  0.00    +0.000 S 
ATOM     11  C   UNL     1      -4.943  -2.439 132.892  0.00  0.00    +0.000 C 
ATOM     12  O   UNL     1      -3.018  -4.254 132.819  0.00  0.00    +0.000 OA
ATOM     13  O   UNL     1      -2.850  -2.230 131.334  0.00  0.00    +0.000 OA
ENDBRANCH   8  10
ENDBRANCH   5   8
ENDBRANCH   1   2
BRANCH   1  14
ATOM     14  O   UNL     1      -8.813  -3.302 126.285  0.00  0.00    +0.000 OA
ATOM     15  H   UNL     1      -8.001  -3.830 126.231  0.00  0.00    +0.000 HD
ENDBRANCH   1  14
BRANCH   1  16
ATOM     16  C   UNL     1      -8.158  -0.964 126.459  0.00  0.00    +0.000 C 
BRANCH  16  17
ATOM     17  C   UNL     1      -9.341  -0.347 125.752  0.00  0.00    +0.000 C 
BRANCH  17  18
ATOM     18  C   UNL     1      -8.932   0.947 125.058  0.00  0.00    +0.000 C 
BRANCH  18  19
ATOM     19  N   UNL     1      -7.527   0.906 124.600  0.00  0.00    +0.000 NA
BRANCH  19  20
ATOM     20  C   UNL     1      -6.901   2.243 124.753  0.00  0.00    +0.000 C 
ATOM     21  C   UNL     1      -5.648   2.352 125.614  0.00  0.00    +0.000 C 
ENDBRANCH  19  20
BRANCH  19  22
ATOM     22  C   UNL     1      -7.535   0.402 123.212  0.00  0.00    +0.000 C 
BRANCH  22  23
ATOM     23  C   UNL     1      -6.649  -0.812 123.043  0.00  0.00    +0.000 C 
BRANCH  23  24
ATOM     24  C   UNL     1      -7.365  -2.129 122.981  0.00  0.00    +0.000 C 
BRANCH  24  25
ATOM     25  C   UNL     1      -6.570  -3.114 123.837  0.00  0.00    +0.000 C 
BRANCH  25  26
ATOM     26  C   UNL     1      -5.176  -2.568 124.026  0.00  0.00    +0.000 C 
BRANCH  26  28
ATOM     27  C   UNL     1      -4.546  -4.933 123.680  0.00  0.00    +0.000 C 
ATOM     28  C   UNL     1      -4.142  -3.497 123.419  0.00  0.00    +0.000 C 
ENDBRANCH  26  28
ENDBRANCH  25  26
ENDBRANCH  24  25
ENDBRANCH  23  24
ENDBRANCH  22  23
ENDBRANCH  19  22
ENDBRANCH  18  19
ENDBRANCH  17  18
ENDBRANCH  16  17
ENDBRANCH   1  16
TORSDOF 15
ENDMDL
MODEL 5
REMARK VINA RESULT:      -6.0      8.032     10.501
REMARK  Name = Ibutilide
REMARK  18 active torsions:
REMARK  status: ('A' for Active; 'I' for Inactive)
REMARK    1  A    between atoms: C_1  and  C_2
REMARK    2  A    between atoms: C_2  and  C_3
REMARK    3  A    between atoms: C_3  and  C_4
REMARK    4  A    between atoms: C_4  and  C_5
REMARK    5  A    between atoms: C_5  and  C_6
REMARK    6  A    between atoms: C_6  and  C_7
REMARK    7  A    between atoms: C_7  and  N_8
REMARK    8  A    between atoms: N_8  and  C_9
REMARK    9  A    between atoms: N_8  and  C_11
REMARK   10  A    between atoms: C_9  and  C_10
REMARK   11  A    between atoms: C_11  and  C_12
REMARK   12  A    between atoms: C_12  and  C_13
REMARK   13  A    between atoms: C_13  and  C_14
REMARK   14  A    between atoms: C_14  and  O_15
REMARK   15  A    between atoms: C_14  and  C_16
REMARK   16  A    between atoms: C_19  and  N_20
REMARK   17  A    between atoms: N_20  and  S_21
REMARK   18  A    between atoms: S_21  and  C_22
REMARK                            x       y       z     vdW  Elec       q    Type
REMARK                         _______ _______ _______ _____ _____    ______ ____
ROOT
ATOM      1  C   UNL     1      -8.161   5.279 133.460  0.00  0.00    +0.000 C 
ENDROOT
BRANCH   1   2
ATOM      2  C   UNL     1      -9.004   5.964 132.422  0.00  0.00    +0.000 A 
ATOM      3  C   UNL     1     -10.405   5.983 132.508  0.00  0.00    +0.000 A 
ATOM      4  C   UNL     1     -11.175   6.605 131.528  0.00  0.00    +0.000 A 
ATOM      5  C   UNL     1     -10.550   7.268 130.473  0.00  0.00    +0.000 A 
ATOM      6  C   UNL     1      -9.161   7.205 130.367  0.00  0.00    +0.000 A 
ATOM      7  C   UNL     1      -8.388   6.574 131.334  0.00  0.00    +0.000 A 
BRANCH   5   8
ATOM      8  N   UNL     1     -11.344   8.109 129.643  0.00  0.00    +0.000 N 
ATOM      9  H   UNL     1     -11.806   8.925 130.044  0.00  0.00    +0.000 HD
BRANCH   8  10
ATOM     10  S   UNL     1     -11.816   7.724 128.089  0.00  0.00    +0.000 S 
ATOM     11  C   UNL     1     -13.495   8.349 127.989  0.00  0.00    +0.000 C 
ATOM     12  O   UNL     1     -10.987   8.454 127.146  0.00  0.00    +0.000 OA
ATOM     13  O   UNL     1     -11.888   6.284 128.044  0.00  0.00    +0.000 OA
ENDBRANCH   8  10
ENDBRANCH   5   8
ENDBRANCH   1   2
BRANCH   1  14
ATOM     14  O   UNL     1      -6.816   5.222 132.993  0.00  0.00    +0.000 OA
ATOM     15  H   UNL     1      -6.241   5.057 133.756  0.00  0.00    +0.000 HD
ENDBRANCH   1  14
BRANCH   1  16
ATOM     16  C   UNL     1      -8.704   3.878 133.736  0.00  0.00    +0.000 C 
BRANCH  16  17
ATOM     17  C   UNL     1      -7.661   2.836 133.412  0.00  0.00    +0.000 C 
BRANCH  17  18
ATOM     18  C   UNL     1      -7.942   2.207 132.053  0.00  0.00    +0.000 C 
BRANCH  18  19
ATOM     19  N   UNL     1      -7.124   2.817 130.984  0.00  0.00    +0.000 NA
BRANCH  19  20
ATOM     20  C   UNL     1      -7.995   3.278 129.875  0.00  0.00    +0.000 C 
ATOM     21  C   UNL     1      -9.504   3.195 130.068  0.00  0.00    +0.000 C 
ENDBRANCH  19  20
BRANCH  19  22
ATOM     22  C   UNL     1      -6.116   1.815 130.579  0.00  0.00    +0.000 C 
BRANCH  22  23
ATOM     23  C   UNL     1      -4.798   2.455 130.206  0.00  0.00    +0.000 C 
BRANCH  23  24
ATOM     24  C   UNL     1      -4.467   3.723 130.938  0.00  0.00    +0.000 C 
BRANCH  24  25
ATOM     25  C   UNL     1      -3.245   4.332 130.252  0.00  0.00    +0.000 C 
BRANCH  25  26
ATOM     26  C   UNL     1      -3.134   5.779 130.664  0.00  0.00    +0.000 C 
BRANCH  26  28
ATOM     27  C   UNL     1      -2.224   6.506 128.484  0.00  0.00    +0.000 C 
ATOM     28  C   UNL     1      -3.350   6.700 129.478  0.00  0.00    +0.000 C 
ENDBRANCH  26  28
ENDBRANCH  25  26
ENDBRANCH  24  25
ENDBRANCH  23  24
ENDBRANCH  22  23
ENDBRANCH  19  22
ENDBRANCH  18  19
ENDBRANCH  17  18
ENDBRANCH  16  17
ENDBRANCH   1  16
TORSDOF 15
ENDMDL
MODEL 6
REMARK VINA RESULT:      -6.0      7.986     11.269
REMARK  Name = Ibutilide
REMARK  18 active torsions:
REMARK  status: ('A' for Active; 'I' for Inactive)
REMARK    1  A    between atoms: C_1  and  C_2
REMARK    2  A    between atoms: C_2  and  C_3
REMARK    3  A    between atoms: C_3  and  C_4
REMARK    4  A    between atoms: C_4  and  C_5
REMARK    5  A    between atoms: C_5  and  C_6
REMARK    6  A    between atoms: C_6  and  C_7
REMARK    7  A    between atoms: C_7  and  N_8
REMARK    8  A    between atoms: N_8  and  C_9
REMARK    9  A    between atoms: N_8  and  C_11
REMARK   10  A    between atoms: C_9  and  C_10
REMARK   11  A    between atoms: C_11  and  C_12
REMARK   12  A    between atoms: C_12  and  C_13
REMARK   13  A    between atoms: C_13  and  C_14
REMARK   14  A    between atoms: C_14  and  O_15
REMARK   15  A    between atoms: C_14  and  C_16
REMARK   16  A    between atoms: C_19  and  N_20
REMARK   17  A    between atoms: N_20  and  S_21
REMARK   18  A    between atoms: S_21  and  C_22
REMARK                            x       y       z     vdW  Elec       q    Type
REMARK                         _______ _______ _______ _____ _____    ______ ____
ROOT
ATOM      1  C   UNL     1      -8.094   5.712 133.546  0.00  0.00    +0.000 C 
ENDROOT
BRANCH   1   2
ATOM      2  C   UNL     1      -9.021   6.085 132.424  0.00  0.00    +0.000 A 
ATOM      3  C   UNL     1      -8.533   6.562 131.197  0.00  0.00    +0.000 A 
ATOM      4  C   UNL     1      -9.404   6.923 130.171  0.00  0.00    +0.000 A 
ATOM      5  C   UNL     1     -10.778   6.758 130.338  0.00  0.00    +0.000 A 
ATOM      6  C   UNL     1     -11.258   6.328 131.575  0.00  0.00    +0.000 A 
ATOM      7  C   UNL     1     -10.396   5.980 132.607  0.00  0.00    +0.000 A 
BRANCH   5   8
ATOM      8  N   UNL     1     -11.615   6.882 129.194  0.00  0.00    +0.000 N 
ATOM      9  H   UNL     1     -11.818   6.061 128.624  0.00  0.00    +0.000 HD
BRANCH   8  10
ATOM     10  S   UNL     1     -12.091   8.337 128.529  0.00  0.00    +0.000 S 
ATOM     11  C   UNL     1     -13.650   7.949 127.730  0.00  0.00    +0.000 C 
ATOM     12  O   UNL     1     -12.337   9.289 129.597  0.00  0.00    +0.000 OA
ATOM     13  O   UNL     1     -11.134   8.628 127.489  0.00  0.00    +0.000 OA
ENDBRANCH   8  10
ENDBRANCH   5   8
ENDBRANCH   1   2
BRANCH   1  14
ATOM     14  O   UNL     1      -6.795   5.477 133.007  0.00  0.00    +0.000 OA
ATOM     15  H   UNL     1      -6.156   5.528 133.736  0.00  0.00    +0.000 HD
ENDBRANCH   1  14
BRANCH   1  16
ATOM     16  C   UNL     1      -8.618   4.473 134.270  0.00  0.00    +0.000 C 
BRANCH  16  17
ATOM     17  C   UNL     1      -7.752   3.276 133.959  0.00  0.00    +0.000 C 
BRANCH  17  18
ATOM     18  C   UNL     1      -8.391   2.424 132.871  0.00  0.00    +0.000 C 
BRANCH  18  19
ATOM     19  N   UNL     1      -7.713   2.593 131.569  0.00  0.00    +0.000 NA
BRANCH  19  20
ATOM     20  C   UNL     1      -8.701   2.956 130.522  0.00  0.00    +0.000 C 
ATOM     21  C   UNL     1     -10.181   2.863 130.872  0.00  0.00    +0.000 C 
ENDBRANCH  19  20
BRANCH  19  22
ATOM     22  C   UNL     1      -6.978   1.342 131.292  0.00  0.00    +0.000 C 
BRANCH  22  23
ATOM     23  C   UNL     1      -7.787   0.117 131.651  0.00  0.00    +0.000 C 
BRANCH  23  24
ATOM     24  C   UNL     1      -7.937  -0.900 130.557  0.00  0.00    +0.000 C 
BRANCH  24  25
ATOM     25  C   UNL     1      -6.717  -1.816 130.626  0.00  0.00    +0.000 C 
BRANCH  25  26
ATOM     26  C   UNL     1      -7.192  -3.237 130.802  0.00  0.00    +0.000 C 
BRANCH  26  28
ATOM     27  C   UNL     1      -4.993  -3.461 129.696  0.00  0.00    +0.000 C 
ATOM     28  C   UNL     1      -6.173  -4.223 130.263  0.00  0.00    +0.000 C 
ENDBRANCH  26  28
ENDBRANCH  25  26
ENDBRANCH  24  25
ENDBRANCH  23  24
ENDBRANCH  22  23
ENDBRANCH  19  22
ENDBRANCH  18  19
ENDBRANCH  17  18
ENDBRANCH  16  17
ENDBRANCH   1  16
TORSDOF 15
ENDMDL
MODEL 7
REMARK VINA RESULT:      -5.9      3.713      8.033
REMARK  Name = Ibutilide
REMARK  18 active torsions:
REMARK  status: ('A' for Active; 'I' for Inactive)
REMARK    1  A    between atoms: C_1  and  C_2
REMARK    2  A    between atoms: C_2  and  C_3
REMARK    3  A    between atoms: C_3  and  C_4
REMARK    4  A    between atoms: C_4  and  C_5
REMARK    5  A    between atoms: C_5  and  C_6
REMARK    6  A    between atoms: C_6  and  C_7
REMARK    7  A    between atoms: C_7  and  N_8
REMARK    8  A    between atoms: N_8  and  C_9
REMARK    9  A    between atoms: N_8  and  C_11
REMARK   10  A    between atoms: C_9  and  C_10
REMARK   11  A    between atoms: C_11  and  C_12
REMARK   12  A    between atoms: C_12  and  C_13
REMARK   13  A    between atoms: C_13  and  C_14
REMARK   14  A    between atoms: C_14  and  O_15
REMARK   15  A    between atoms: C_14  and  C_16
REMARK   16  A    between atoms: C_19  and  N_20
REMARK   17  A    between atoms: N_20  and  S_21
REMARK   18  A    between atoms: S_21  and  C_22
REMARK                            x       y       z     vdW  Elec       q    Type
REMARK                         _______ _______ _______ _____ _____    ______ ____
ROOT
ATOM      1  C   UNL     1      -8.910  -2.976 125.502  0.00  0.00    +0.000 C 
ENDROOT
BRANCH   1   2
ATOM      2  C   UNL     1      -8.395  -1.570 125.628  0.00  0.00    +0.000 A 
ATOM      3  C   UNL     1      -7.044  -1.260 125.405  0.00  0.00    +0.000 A 
ATOM      4  C   UNL     1      -6.575   0.045 125.544  0.00  0.00    +0.000 A 
ATOM      5  C   UNL     1      -7.466   1.071 125.853  0.00  0.00    +0.000 A 
ATOM      6  C   UNL     1      -8.797   0.750 126.118  0.00  0.00    +0.000 A 
ATOM      7  C   UNL     1      -9.267  -0.551 125.996  0.00  0.00    +0.000 A 
BRANCH   5   8
ATOM      8  N   UNL     1      -7.013   2.415 125.728  0.00  0.00    +0.000 N 
ATOM      9  H   UNL     1      -6.391   2.808 126.435  0.00  0.00    +0.000 HD
BRANCH   8  10
ATOM     10  S   UNL     1      -7.634   3.521 124.643  0.00  0.00    +0.000 S 
ATOM     11  C   UNL     1      -8.165   2.508 123.261  0.00  0.00    +0.000 C 
ATOM     12  O   UNL     1      -8.799   4.159 125.230  0.00  0.00    +0.000 OA
ATOM     13  O   UNL     1      -6.511   4.308 124.195  0.00  0.00    +0.000 OA
ENDBRANCH   8  10
ENDBRANCH   5   8
ENDBRANCH   1   2
BRANCH   1  14
ATOM     14  O   UNL     1      -9.817  -3.034 124.405  0.00  0.00    +0.000 OA
ATOM     15  H   UNL     1      -9.367  -2.671 123.626  0.00  0.00    +0.000 HD
ENDBRANCH   1  14
BRANCH   1  16
ATOM     16  C   UNL     1      -9.593  -3.402 126.800  0.00  0.00    +0.000 C 
BRANCH  16  17
ATOM     17  C   UNL     1      -8.599  -4.064 127.725  0.00  0.00    +0.000 C 
BRANCH  17  18
ATOM     18  C   UNL     1      -8.307  -3.168 128.922  0.00  0.00    +0.000 C 
BRANCH  18  19
ATOM     19  N   UNL     1      -6.862  -3.105 129.224  0.00  0.00    +0.000 NA
BRANCH  19  20
ATOM     20  C   UNL     1      -6.591  -3.711 130.552  0.00  0.00    +0.000 C 
ATOM     21  C   UNL     1      -5.603  -4.869 130.622  0.00  0.00    +0.000 C 
ENDBRANCH  19  20
BRANCH  19  22
ATOM     22  C   UNL     1      -6.454  -1.690 129.116  0.00  0.00    +0.000 C 
BRANCH  22  23
ATOM     23  C   UNL     1      -7.579  -0.745 129.472  0.00  0.00    +0.000 C 
BRANCH  23  24
ATOM     24  C   UNL     1      -7.223   0.714 129.461  0.00  0.00    +0.000 C 
BRANCH  24  25
ATOM     25  C   UNL     1      -8.438   1.475 129.988  0.00  0.00    +0.000 C 
BRANCH  25  26
ATOM     26  C   UNL     1      -8.880   0.837 131.282  0.00  0.00    +0.000 C 
BRANCH  26  28
ATOM     27  C   UNL     1      -9.275   2.612 132.956  0.00  0.00    +0.000 C 
ATOM     28  C   UNL     1      -9.941   1.678 131.968  0.00  0.00    +0.000 C 
ENDBRANCH  26  28
ENDBRANCH  25  26
ENDBRANCH  24  25
ENDBRANCH  23  24
ENDBRANCH  22  23
ENDBRANCH  19  22
ENDBRANCH  18  19
ENDBRANCH  17  18
ENDBRANCH  16  17
ENDBRANCH   1  16
TORSDOF 15
ENDMDL
MODEL 8
REMARK VINA RESULT:      -5.9      4.865      7.501
REMARK  Name = Ibutilide
REMARK  18 active torsions:
REMARK  status: ('A' for Active; 'I' for Inactive)
REMARK    1  A    between atoms: C_1  and  C_2
REMARK    2  A    between atoms: C_2  and  C_3
REMARK    3  A    between atoms: C_3  and  C_4
REMARK    4  A    between atoms: C_4  and  C_5
REMARK    5  A    between atoms: C_5  and  C_6
REMARK    6  A    between atoms: C_6  and  C_7
REMARK    7  A    between atoms: C_7  and  N_8
REMARK    8  A    between atoms: N_8  and  C_9
REMARK    9  A    between atoms: N_8  and  C_11
REMARK   10  A    between atoms: C_9  and  C_10
REMARK   11  A    between atoms: C_11  and  C_12
REMARK   12  A    between atoms: C_12  and  C_13
REMARK   13  A    between atoms: C_13  and  C_14
REMARK   14  A    between atoms: C_14  and  O_15
REMARK   15  A    between atoms: C_14  and  C_16
REMARK   16  A    between atoms: C_19  and  N_20
REMARK   17  A    between atoms: N_20  and  S_21
REMARK   18  A    between atoms: S_21  and  C_22
REMARK                            x       y       z     vdW  Elec       q    Type
REMARK                         _______ _______ _______ _____ _____    ______ ____
ROOT
ATOM      1  C   UNL     1      -5.766   0.182 127.871  0.00  0.00    +0.000 C 
ENDROOT
BRANCH   1   2
ATOM      2  C   UNL     1      -6.540   1.330 128.453  0.00  0.00    +0.000 A 
ATOM      3  C   UNL     1      -7.590   1.123 129.362  0.00  0.00    +0.000 A 
ATOM      4  C   UNL     1      -8.313   2.196 129.879  0.00  0.00    +0.000 A 
ATOM      5  C   UNL     1      -7.958   3.499 129.537  0.00  0.00    +0.000 A 
ATOM      6  C   UNL     1      -6.946   3.697 128.598  0.00  0.00    +0.000 A 
ATOM      7  C   UNL     1      -6.230   2.631 128.067  0.00  0.00    +0.000 A 
BRANCH   5   8
ATOM      8  N   UNL     1      -8.535   4.570 130.277  0.00  0.00    +0.000 N 
ATOM      9  H   UNL     1      -8.246   4.731 131.242  0.00  0.00    +0.000 HD
BRANCH   8  10
ATOM     10  S   UNL     1      -9.869   5.444 129.785  0.00  0.00    +0.000 S 
ATOM     11  C   UNL     1     -10.067   6.676 131.074  0.00  0.00    +0.000 C 
ATOM     12  O   UNL     1      -9.561   6.117 128.536  0.00  0.00    +0.000 OA
ATOM     13  O   UNL     1     -10.989   4.539 129.877  0.00  0.00    +0.000 OA
ENDBRANCH   8  10
ENDBRANCH   5   8
ENDBRANCH   1   2
BRANCH   1  14
ATOM     14  O   UNL     1      -4.651  -0.092 128.716  0.00  0.00    +0.000 OA
ATOM     15  H   UNL     1      -4.578   0.631 129.358  0.00  0.00    +0.000 HD
ENDBRANCH   1  14
BRANCH   1  16
ATOM     16  C   UNL     1      -5.309   0.521 126.454  0.00  0.00    +0.000 C 
BRANCH  16  17
ATOM     17  C   UNL     1      -6.044  -0.329 125.446  0.00  0.00    +0.000 C 
BRANCH  17  18
ATOM     18  C   UNL     1      -5.283  -1.623 125.185  0.00  0.00    +0.000 C 
BRANCH  18  19
ATOM     19  N   UNL     1      -5.908  -2.422 124.111  0.00  0.00    +0.000 NA
BRANCH  19  20
ATOM     20  C   UNL     1      -4.862  -3.087 123.294  0.00  0.00    +0.000 C 
ATOM     21  C   UNL     1      -4.487  -4.523 123.643  0.00  0.00    +0.000 C 
ENDBRANCH  19  20
BRANCH  19  22
ATOM     22  C   UNL     1      -6.783  -1.513 123.341  0.00  0.00    +0.000 C 
BRANCH  22  23
ATOM     23  C   UNL     1      -7.847  -2.264 122.574  0.00  0.00    +0.000 C 
BRANCH  23  24
ATOM     24  C   UNL     1      -9.185  -2.356 123.249  0.00  0.00    +0.000 C 
BRANCH  24  25
ATOM     25  C   UNL     1      -9.073  -3.437 124.322  0.00  0.00    +0.000 C 
BRANCH  25  26
ATOM     26  C   UNL     1      -9.435  -2.831 125.655  0.00  0.00    +0.000 C 
BRANCH  26  28
ATOM     27  C   UNL     1      -8.912  -3.889 127.827  0.00  0.00    +0.000 C 
ATOM     28  C   UNL     1      -8.344  -3.080 126.680  0.00  0.00    +0.000 C 
ENDBRANCH  26  28
ENDBRANCH  25  26
ENDBRANCH  24  25
ENDBRANCH  23  24
ENDBRANCH  22  23
ENDBRANCH  19  22
ENDBRANCH  18  19
ENDBRANCH  17  18
ENDBRANCH  16  17
ENDBRANCH   1  16
TORSDOF 15
ENDMDL
MODEL 9
REMARK VINA RESULT:      -5.9      4.545      6.760
REMARK  Name = Ibutilide
REMARK  18 active torsions:
REMARK  status: ('A' for Active; 'I' for Inactive)
REMARK    1  A    between atoms: C_1  and  C_2
REMARK    2  A    between atoms: C_2  and  C_3
REMARK    3  A    between atoms: C_3  and  C_4
REMARK    4  A    between atoms: C_4  and  C_5
REMARK    5  A    between atoms: C_5  and  C_6
REMARK    6  A    between atoms: C_6  and  C_7
REMARK    7  A    between atoms: C_7  and  N_8
REMARK    8  A    between atoms: N_8  and  C_9
REMARK    9  A    between atoms: N_8  and  C_11
REMARK   10  A    between atoms: C_9  and  C_10
REMARK   11  A    between atoms: C_11  and  C_12
REMARK   12  A    between atoms: C_12  and  C_13
REMARK   13  A    between atoms: C_13  and  C_14
REMARK   14  A    between atoms: C_14  and  O_15
REMARK   15  A    between atoms: C_14  and  C_16
REMARK   16  A    between atoms: C_19  and  N_20
REMARK   17  A    between atoms: N_20  and  S_21
REMARK   18  A    between atoms: S_21  and  C_22
REMARK                            x       y       z     vdW  Elec       q    Type
REMARK                         _______ _______ _______ _____ _____    ______ ____
ROOT
ATOM      1  C   UNL     1      -7.300  -0.704 128.139  0.00  0.00    +0.000 C 
ENDROOT
BRANCH   1   2
ATOM      2  C   UNL     1      -7.459   0.691 128.676  0.00  0.00    +0.000 A 
ATOM      3  C   UNL     1      -6.895   1.798 128.023  0.00  0.00    +0.000 A 
ATOM      4  C   UNL     1      -7.034   3.084 128.542  0.00  0.00    +0.000 A 
ATOM      5  C   UNL     1      -7.788   3.287 129.696  0.00  0.00    +0.000 A 
ATOM      6  C   UNL     1      -8.306   2.178 130.365  0.00  0.00    +0.000 A 
ATOM      7  C   UNL     1      -8.160   0.893 129.860  0.00  0.00    +0.000 A 
BRANCH   5   8
ATOM      8  N   UNL     1      -8.130   4.623 130.049  0.00  0.00    +0.000 N 
ATOM      9  H   UNL     1      -7.676   5.067 130.848  0.00  0.00    +0.000 HD
BRANCH   8  10
ATOM     10  S   UNL     1      -9.432   5.459 129.423  0.00  0.00    +0.000 S 
ATOM     11  C   UNL     1      -9.403   7.017 130.313  0.00  0.00    +0.000 C 
ATOM     12  O   UNL     1      -9.195   5.720 128.014  0.00  0.00    +0.000 OA
ATOM     13  O   UNL     1     -10.606   4.739 129.852  0.00  0.00    +0.000 OA
ENDBRANCH   8  10
ENDBRANCH   5   8
ENDBRANCH   1   2
BRANCH   1  14
ATOM     14  O   UNL     1      -5.999  -1.178 128.477  0.00  0.00    +0.000 OA
ATOM     15  H   UNL     1      -5.535  -0.467 128.946  0.00  0.00    +0.000 HD
ENDBRANCH   1  14
BRANCH   1  16
ATOM     16  C   UNL     1      -7.509  -0.710 126.626  0.00  0.00    +0.000 C 
BRANCH  16  17
ATOM     17  C   UNL     1      -8.982  -0.735 126.298  0.00  0.00    +0.000 C 
BRANCH  17  18
ATOM     18  C   UNL     1      -9.295   0.245 125.175  0.00  0.00    +0.000 C 
BRANCH  18  19
ATOM     19  N   UNL     1      -8.397   0.060 124.016  0.00  0.00    +0.000 NA
BRANCH  19  20
ATOM     20  C   UNL     1      -8.062   1.374 123.414  0.00  0.00    +0.000 C 
ATOM     21  C   UNL     1      -6.831   2.107 123.933  0.00  0.00    +0.000 C 
ENDBRANCH  19  20
BRANCH  19  22
ATOM     22  C   UNL     1      -9.067  -0.873 123.087  0.00  0.00    +0.000 C 
BRANCH  22  23
ATOM     23  C   UNL     1      -8.234  -2.106 122.822  0.00  0.00    +0.000 C 
BRANCH  23  24
ATOM     24  C   UNL     1      -8.327  -3.183 123.864  0.00  0.00    +0.000 C 
BRANCH  24  25
ATOM     25  C   UNL     1      -6.897  -3.603 124.203  0.00  0.00    +0.000 C 
BRANCH  25  26
ATOM     26  C   UNL     1      -5.944  -2.634 123.550  0.00  0.00    +0.000 C 
BRANCH  26  28
ATOM     27  C   UNL     1      -4.582  -4.692 123.673  0.00  0.00    +0.000 C 
ATOM     28  C   UNL     1      -4.531  -3.185 123.539  0.00  0.00    +0.000 C 
ENDBRANCH  26  28
ENDBRANCH  25  26
ENDBRANCH  24  25
ENDBRANCH  23  24
ENDBRANCH  22  23
ENDBRANCH  19  22
ENDBRANCH  18  19
ENDBRANCH  17  18
ENDBRANCH  16  17
ENDBRANCH   1  16
TORSDOF 15
ENDMDL
