MODEL 1
REMARK VINA RESULT:      -6.4      0.000      0.000
REMARK  Name = Icosapent
REMARK  15 active torsions:
REMARK  status: ('A' for Active; 'I' for Inactive)
REMARK    1  A    between atoms: C_1  and  C_2
REMARK    2  A    between atoms: C_2  and  C_3
REMARK    3  A    between atoms: C_4  and  C_5
REMARK    4  A    between atoms: C_5  and  C_6
REMARK    5  A    between atoms: C_7  and  C_8
REMARK    6  A    between atoms: C_8  and  C_9
REMARK    7  A    between atoms: C_10  and  C_11
REMARK    8  A    between atoms: C_11  and  C_12
REMARK    9  A    between atoms: C_13  and  C_14
REMARK   10  A    between atoms: C_14  and  C_15
REMARK   11  A    between atoms: C_16  and  C_17
REMARK   12  A    between atoms: C_17  and  C_18
REMARK   13  A    between atoms: C_18  and  C_19
REMARK   14  A    between atoms: C_19  and  C_20
REMARK   15  A    between atoms: C_20  and  O_21
REMARK                            x       y       z     vdW  Elec       q    Type
REMARK                         _______ _______ _______ _____ _____    ______ ____
ROOT
ATOM      1  C   UNL     1      -8.948   0.501 124.684  0.00  0.00    +0.000 C 
ATOM      2  C   UNL     1      -7.898   1.181 125.172  0.00  0.00    +0.000 C 
ENDROOT
BRANCH   1   3
ATOM      3  C   UNL     1      -9.010   0.053 123.255  0.00  0.00    +0.000 C 
BRANCH   3   5
ATOM      4  C   UNL     1      -8.201  -2.264 122.859  0.00  0.00    +0.000 C 
ATOM      5  C   UNL     1      -9.219  -1.422 123.098  0.00  0.00    +0.000 C 
BRANCH   4   6
ATOM      6  C   UNL     1      -6.786  -1.788 122.733  0.00  0.00    +0.000 C 
BRANCH   6   8
ATOM      7  C   UNL     1      -5.210  -2.713 124.418  0.00  0.00    +0.000 C 
ATOM      8  C   UNL     1      -5.773  -2.787 123.200  0.00  0.00    +0.000 C 
BRANCH   7   9
ATOM      9  C   UNL     1      -5.560  -1.626 125.388  0.00  0.00    +0.000 C 
BRANCH   9  11
ATOM     10  C   UNL     1      -6.808  -2.331 127.413  0.00  0.00    +0.000 C 
ATOM     11  C   UNL     1      -5.634  -2.087 126.810  0.00  0.00    +0.000 C 
BRANCH  10  13
ATOM     12  C   UNL     1      -8.757  -3.493 126.357  0.00  0.00    +0.000 C 
ATOM     13  C   UNL     1      -8.130  -2.161 126.716  0.00  0.00    +0.000 C 
ENDBRANCH  10  13
ENDBRANCH   9  11
ENDBRANCH   7   9
ENDBRANCH   6   8
ENDBRANCH   4   6
ENDBRANCH   3   5
ENDBRANCH   1   3
BRANCH   2  14
ATOM     14  C   UNL     1      -6.722   1.536 124.318  0.00  0.00    +0.000 C 
BRANCH  14  15
ATOM     15  C   UNL     1      -6.250   2.944 124.502  0.00  0.00    +0.000 C 
ATOM     16  C   UNL     1      -6.248   3.821 123.489  0.00  0.00    +0.000 C 
BRANCH  16  17
ATOM     17  C   UNL     1      -6.717   3.454 122.109  0.00  0.00    +0.000 C 
BRANCH  17  18
ATOM     18  C   UNL     1      -5.569   3.512 121.119  0.00  0.00    +0.000 C 
BRANCH  18  19
ATOM     19  C   UNL     1      -5.979   4.205 119.828  0.00  0.00    +0.000 C 
BRANCH  19  20
ATOM     20  C   UNL     1      -5.342   5.555 119.602  0.00  0.00    +0.000 C 
ATOM     21  O   UNL     1      -4.653   6.095 120.462  0.00  0.00    +0.000 OA
BRANCH  20  22
ATOM     22  O   UNL     1      -5.559   6.152 118.414  0.00  0.00    +0.000 OA
ATOM     23  H   UNL     1      -6.321   6.752 118.340  0.00  0.00    +0.000 HD
ENDBRANCH  20  22
ENDBRANCH  19  20
ENDBRANCH  18  19
ENDBRANCH  17  18
ENDBRANCH  16  17
ENDBRANCH  14  15
ENDBRANCH   2  14
TORSDOF 14
ENDMDL
MODEL 2
REMARK VINA RESULT:      -6.2      3.471      5.354
REMARK  Name = Icosapent
REMARK  15 active torsions:
REMARK  status: ('A' for Active; 'I' for Inactive)
REMARK    1  A    between atoms: C_1  and  C_2
REMARK    2  A    between atoms: C_2  and  C_3
REMARK    3  A    between atoms: C_4  and  C_5
REMARK    4  A    between atoms: C_5  and  C_6
REMARK    5  A    between atoms: C_7  and  C_8
REMARK    6  A    between atoms: C_8  and  C_9
REMARK    7  A    between atoms: C_10  and  C_11
REMARK    8  A    between atoms: C_11  and  C_12
REMARK    9  A    between atoms: C_13  and  C_14
REMARK   10  A    between atoms: C_14  and  C_15
REMARK   11  A    between atoms: C_16  and  C_17
REMARK   12  A    between atoms: C_17  and  C_18
REMARK   13  A    between atoms: C_18  and  C_19
REMARK   14  A    between atoms: C_19  and  C_20
REMARK   15  A    between atoms: C_20  and  O_21
REMARK                            x       y       z     vdW  Elec       q    Type
REMARK                         _______ _______ _______ _____ _____    ______ ____
ROOT
ATOM      1  C   UNL     1      -6.103  -2.480 128.686  0.00  0.00    +0.000 C 
ATOM      2  C   UNL     1      -5.316  -2.092 127.669  0.00  0.00    +0.000 C 
ENDROOT
BRANCH   1   3
ATOM      3  C   UNL     1      -7.545  -2.083 128.770  0.00  0.00    +0.000 C 
BRANCH   3   5
ATOM      4  C   UNL     1      -8.916  -3.988 127.948  0.00  0.00    +0.000 C 
ATOM      5  C   UNL     1      -8.474  -3.241 128.973  0.00  0.00    +0.000 C 
BRANCH   4   6
ATOM      6  C   UNL     1      -8.512  -3.715 126.531  0.00  0.00    +0.000 C 
BRANCH   6   8
ATOM      7  C   UNL     1      -9.186  -2.348 124.567  0.00  0.00    +0.000 C 
ATOM      8  C   UNL     1      -9.327  -2.647 125.870  0.00  0.00    +0.000 C 
BRANCH   7   9
ATOM      9  C   UNL     1      -8.203  -3.065 123.693  0.00  0.00    +0.000 C 
BRANCH   9  11
ATOM     10  C   UNL     1      -5.789  -2.577 123.391  0.00  0.00    +0.000 C 
ATOM     11  C   UNL     1      -7.069  -2.205 123.230  0.00  0.00    +0.000 C 
BRANCH  10  13
ATOM     12  C   UNL     1      -4.068  -4.389 123.527  0.00  0.00    +0.000 C 
ATOM     13  C   UNL     1      -5.396  -3.874 124.044  0.00  0.00    +0.000 C 
ENDBRANCH  10  13
ENDBRANCH   9  11
ENDBRANCH   7   9
ENDBRANCH   6   8
ENDBRANCH   4   6
ENDBRANCH   3   5
ENDBRANCH   1   3
BRANCH   2  14
ATOM     14  C   UNL     1      -5.830  -1.238 126.554  0.00  0.00    +0.000 C 
BRANCH  14  15
ATOM     15  C   UNL     1      -5.554   0.221 126.740  0.00  0.00    +0.000 C 
ATOM     16  C   UNL     1      -6.523   1.139 126.614  0.00  0.00    +0.000 C 
BRANCH  16  17
ATOM     17  C   UNL     1      -7.941   0.770 126.282  0.00  0.00    +0.000 C 
BRANCH  17  18
ATOM     18  C   UNL     1      -8.495   1.683 125.205  0.00  0.00    +0.000 C 
BRANCH  18  19
ATOM     19  C   UNL     1      -9.829   1.179 124.676  0.00  0.00    +0.000 C 
BRANCH  19  20
ATOM     20  C   UNL     1      -9.985   1.246 123.176  0.00  0.00    +0.000 C 
ATOM     21  O   UNL     1      -9.341   2.039 122.496  0.00  0.00    +0.000 OA
BRANCH  20  22
ATOM     22  O   UNL     1     -10.863   0.399 122.605  0.00  0.00    +0.000 OA
ATOM     23  H   UNL     1     -10.933  -0.500 122.973  0.00  0.00    +0.000 HD
ENDBRANCH  20  22
ENDBRANCH  19  20
ENDBRANCH  18  19
ENDBRANCH  17  18
ENDBRANCH  16  17
ENDBRANCH  14  15
ENDBRANCH   2  14
TORSDOF 14
ENDMDL
MODEL 3
REMARK VINA RESULT:      -6.1      3.517      5.064
REMARK  Name = Icosapent
REMARK  15 active torsions:
REMARK  status: ('A' for Active; 'I' for Inactive)
REMARK    1  A    between atoms: C_1  and  C_2
REMARK    2  A    between atoms: C_2  and  C_3
REMARK    3  A    between atoms: C_4  and  C_5
REMARK    4  A    between atoms: C_5  and  C_6
REMARK    5  A    between atoms: C_7  and  C_8
REMARK    6  A    between atoms: C_8  and  C_9
REMARK    7  A    between atoms: C_10  and  C_11
REMARK    8  A    between atoms: C_11  and  C_12
REMARK    9  A    between atoms: C_13  and  C_14
REMARK   10  A    between atoms: C_14  and  C_15
REMARK   11  A    between atoms: C_16  and  C_17
REMARK   12  A    between atoms: C_17  and  C_18
REMARK   13  A    between atoms: C_18  and  C_19
REMARK   14  A    between atoms: C_19  and  C_20
REMARK   15  A    between atoms: C_20  and  O_21
REMARK                            x       y       z     vdW  Elec       q    Type
REMARK                         _______ _______ _______ _____ _____    ______ ____
ROOT
ATOM      1  C   UNL     1      -6.164  -2.849 123.636  0.00  0.00    +0.000 C 
ATOM      2  C   UNL     1      -5.455  -1.878 124.234  0.00  0.00    +0.000 C 
ENDROOT
BRANCH   1   3
ATOM      3  C   UNL     1      -7.135  -3.705 124.392  0.00  0.00    +0.000 C 
BRANCH   3   5
ATOM      4  C   UNL     1      -9.406  -2.897 125.000  0.00  0.00    +0.000 C 
ATOM      5  C   UNL     1      -8.568  -3.402 124.080  0.00  0.00    +0.000 C 
BRANCH   4   6
ATOM      6  C   UNL     1      -8.966  -2.600 126.401  0.00  0.00    +0.000 C 
BRANCH   6   8
ATOM      7  C   UNL     1      -8.579  -3.758 128.566  0.00  0.00    +0.000 C 
ATOM      8  C   UNL     1      -9.121  -3.759 127.337  0.00  0.00    +0.000 C 
BRANCH   7   9
ATOM      9  C   UNL     1      -7.785  -2.596 129.081  0.00  0.00    +0.000 C 
BRANCH   9  11
ATOM     10  C   UNL     1      -5.526  -3.315 129.813  0.00  0.00    +0.000 C 
ATOM     11  C   UNL     1      -6.308  -2.742 128.885  0.00  0.00    +0.000 C 
BRANCH  10  13
ATOM     12  C   UNL     1      -5.455  -5.191 131.469  0.00  0.00    +0.000 C 
ATOM     13  C   UNL     1      -6.064  -3.850 131.112  0.00  0.00    +0.000 C 
ENDBRANCH  10  13
ENDBRANCH   9  11
ENDBRANCH   7   9
ENDBRANCH   6   8
ENDBRANCH   4   6
ENDBRANCH   3   5
ENDBRANCH   1   3
BRANCH   2  14
ATOM     14  C   UNL     1      -5.590  -1.589 125.696  0.00  0.00    +0.000 C 
BRANCH  14  15
ATOM     15  C   UNL     1      -5.179  -0.201 126.073  0.00  0.00    +0.000 C 
ATOM     16  C   UNL     1      -6.035   0.828 126.002  0.00  0.00    +0.000 C 
BRANCH  16  17
ATOM     17  C   UNL     1      -7.457   0.659 125.545  0.00  0.00    +0.000 C 
BRANCH  17  18
ATOM     18  C   UNL     1      -7.623   1.149 124.119  0.00  0.00    +0.000 C 
BRANCH  18  19
ATOM     19  C   UNL     1      -8.592   0.275 123.337  0.00  0.00    +0.000 C 
BRANCH  19  20
ATOM     20  C   UNL     1      -9.996   0.820 123.230  0.00  0.00    +0.000 C 
ATOM     21  O   UNL     1     -10.831   0.309 122.490  0.00  0.00    +0.000 OA
BRANCH  20  22
ATOM     22  O   UNL     1     -10.302   1.896 123.980  0.00  0.00    +0.000 OA
ATOM     23  H   UNL     1     -11.242   2.074 124.158  0.00  0.00    +0.000 HD
ENDBRANCH  20  22
ENDBRANCH  19  20
ENDBRANCH  18  19
ENDBRANCH  17  18
ENDBRANCH  16  17
ENDBRANCH  14  15
ENDBRANCH   2  14
TORSDOF 14
ENDMDL
MODEL 4
REMARK VINA RESULT:      -6.1      2.943      5.102
REMARK  Name = Icosapent
REMARK  15 active torsions:
REMARK  status: ('A' for Active; 'I' for Inactive)
REMARK    1  A    between atoms: C_1  and  C_2
REMARK    2  A    between atoms: C_2  and  C_3
REMARK    3  A    between atoms: C_4  and  C_5
REMARK    4  A    between atoms: C_5  and  C_6
REMARK    5  A    between atoms: C_7  and  C_8
REMARK    6  A    between atoms: C_8  and  C_9
REMARK    7  A    between atoms: C_10  and  C_11
REMARK    8  A    between atoms: C_11  and  C_12
REMARK    9  A    between atoms: C_13  and  C_14
REMARK   10  A    between atoms: C_14  and  C_15
REMARK   11  A    between atoms: C_16  and  C_17
REMARK   12  A    between atoms: C_17  and  C_18
REMARK   13  A    between atoms: C_18  and  C_19
REMARK   14  A    between atoms: C_19  and  C_20
REMARK   15  A    between atoms: C_20  and  O_21
REMARK                            x       y       z     vdW  Elec       q    Type
REMARK                         _______ _______ _______ _____ _____    ______ ____
ROOT
ATOM      1  C   UNL     1      -6.251  -2.568 129.406  0.00  0.00    +0.000 C 
ATOM      2  C   UNL     1      -5.271  -1.845 128.838  0.00  0.00    +0.000 C 
ENDROOT
BRANCH   1   3
ATOM      3  C   UNL     1      -7.693  -2.174 129.300  0.00  0.00    +0.000 C 
BRANCH   3   5
ATOM      4  C   UNL     1      -8.836  -3.839 127.850  0.00  0.00    +0.000 C 
ATOM      5  C   UNL     1      -8.615  -3.333 129.074  0.00  0.00    +0.000 C 
BRANCH   4   6
ATOM      6  C   UNL     1      -8.178  -3.280 126.625  0.00  0.00    +0.000 C 
BRANCH   6   8
ATOM      7  C   UNL     1      -8.960  -2.181 124.537  0.00  0.00    +0.000 C 
ATOM      8  C   UNL     1      -9.034  -2.310 125.873  0.00  0.00    +0.000 C 
BRANCH   7   9
ATOM      9  C   UNL     1      -8.014  -3.002 123.715  0.00  0.00    +0.000 C 
BRANCH   9  11
ATOM     10  C   UNL     1      -5.631  -2.458 123.288  0.00  0.00    +0.000 C 
ATOM     11  C   UNL     1      -6.930  -2.201 123.064  0.00  0.00    +0.000 C 
BRANCH  10  13
ATOM     12  C   UNL     1      -4.322  -4.583 123.471  0.00  0.00    +0.000 C 
ATOM     13  C   UNL     1      -5.166  -3.559 124.201  0.00  0.00    +0.000 C 
ENDBRANCH  10  13
ENDBRANCH   9  11
ENDBRANCH   7   9
ENDBRANCH   6   8
ENDBRANCH   4   6
ENDBRANCH   3   5
ENDBRANCH   1   3
BRANCH   2  14
ATOM     14  C   UNL     1      -5.558  -0.599 128.062  0.00  0.00    +0.000 C 
BRANCH  14  15
ATOM     15  C   UNL     1      -5.568  -0.804 126.581  0.00  0.00    +0.000 C 
ATOM     16  C   UNL     1      -5.411   0.220 125.730  0.00  0.00    +0.000 C 
BRANCH  16  17
ATOM     17  C   UNL     1      -5.215   1.633 126.202  0.00  0.00    +0.000 C 
BRANCH  17  18
ATOM     18  C   UNL     1      -5.888   2.612 125.259  0.00  0.00    +0.000 C 
BRANCH  18  19
ATOM     19  C   UNL     1      -7.357   2.271 125.055  0.00  0.00    +0.000 C 
BRANCH  19  20
ATOM     20  C   UNL     1      -8.214   3.415 124.569  0.00  0.00    +0.000 C 
ATOM     21  O   UNL     1      -8.858   4.112 125.346  0.00  0.00    +0.000 OA
BRANCH  20  22
ATOM     22  O   UNL     1      -8.248   3.645 123.243  0.00  0.00    +0.000 OA
ATOM     23  H   UNL     1      -9.119   3.678 122.809  0.00  0.00    +0.000 HD
ENDBRANCH  20  22
ENDBRANCH  19  20
ENDBRANCH  18  19
ENDBRANCH  17  18
ENDBRANCH  16  17
ENDBRANCH  14  15
ENDBRANCH   2  14
TORSDOF 14
ENDMDL
MODEL 5
REMARK VINA RESULT:      -6.0      3.108      4.961
REMARK  Name = Icosapent
REMARK  15 active torsions:
REMARK  status: ('A' for Active; 'I' for Inactive)
REMARK    1  A    between atoms: C_1  and  C_2
REMARK    2  A    between atoms: C_2  and  C_3
REMARK    3  A    between atoms: C_4  and  C_5
REMARK    4  A    between atoms: C_5  and  C_6
REMARK    5  A    between atoms: C_7  and  C_8
REMARK    6  A    between atoms: C_8  and  C_9
REMARK    7  A    between atoms: C_10  and  C_11
REMARK    8  A    between atoms: C_11  and  C_12
REMARK    9  A    between atoms: C_13  and  C_14
REMARK   10  A    between atoms: C_14  and  C_15
REMARK   11  A    between atoms: C_16  and  C_17
REMARK   12  A    between atoms: C_17  and  C_18
REMARK   13  A    between atoms: C_18  and  C_19
REMARK   14  A    between atoms: C_19  and  C_20
REMARK   15  A    between atoms: C_20  and  O_21
REMARK                            x       y       z     vdW  Elec       q    Type
REMARK                         _______ _______ _______ _____ _____    ______ ____
ROOT
ATOM      1  C   UNL     1      -6.318  -1.923 128.829  0.00  0.00    +0.000 C 
ATOM      2  C   UNL     1      -5.350  -1.644 127.941  0.00  0.00    +0.000 C 
ENDROOT
BRANCH   1   3
ATOM      3  C   UNL     1      -7.766  -1.947 128.444  0.00  0.00    +0.000 C 
BRANCH   3   5
ATOM      4  C   UNL     1      -8.904  -3.647 127.031  0.00  0.00    +0.000 C 
ATOM      5  C   UNL     1      -8.293  -3.325 128.182  0.00  0.00    +0.000 C 
BRANCH   4   6
ATOM      6  C   UNL     1      -9.102  -2.653 125.928  0.00  0.00    +0.000 C 
BRANCH   6   8
ATOM      7  C   UNL     1      -8.607  -2.840 123.499  0.00  0.00    +0.000 C 
ATOM      8  C   UNL     1      -9.275  -3.280 124.579  0.00  0.00    +0.000 C 
BRANCH   7   9
ATOM      9  C   UNL     1      -7.645  -1.694 123.575  0.00  0.00    +0.000 C 
BRANCH   9  11
ATOM     10  C   UNL     1      -5.510  -2.608 122.700  0.00  0.00    +0.000 C 
ATOM     11  C   UNL     1      -6.544  -1.762 122.563  0.00  0.00    +0.000 C 
BRANCH  10  13
ATOM     12  C   UNL     1      -4.256  -4.545 123.670  0.00  0.00    +0.000 C 
ATOM     13  C   UNL     1      -5.376  -3.544 123.870  0.00  0.00    +0.000 C 
ENDBRANCH  10  13
ENDBRANCH   9  11
ENDBRANCH   7   9
ENDBRANCH   6   8
ENDBRANCH   4   6
ENDBRANCH   3   5
ENDBRANCH   1   3
BRANCH   2  14
ATOM     14  C   UNL     1      -5.656  -1.338 126.509  0.00  0.00    +0.000 C 
BRANCH  14  15
ATOM     15  C   UNL     1      -5.219   0.026 126.080  0.00  0.00    +0.000 C 
ATOM     16  C   UNL     1      -6.092   1.036 125.955  0.00  0.00    +0.000 C 
BRANCH  16  17
ATOM     17  C   UNL     1      -7.559   0.867 126.237  0.00  0.00    +0.000 C 
BRANCH  17  18
ATOM     18  C   UNL     1      -8.337   2.085 125.774  0.00  0.00    +0.000 C 
BRANCH  18  19
ATOM     19  C   UNL     1      -7.416   3.148 125.194  0.00  0.00    +0.000 C 
BRANCH  19  20
ATOM     20  C   UNL     1      -7.865   4.571 125.425  0.00  0.00    +0.000 C 
ATOM     21  O   UNL     1      -9.013   4.838 125.766  0.00  0.00    +0.000 OA
BRANCH  20  22
ATOM     22  O   UNL     1      -6.954   5.546 125.240  0.00  0.00    +0.000 OA
ATOM     23  H   UNL     1      -6.362   5.763 125.982  0.00  0.00    +0.000 HD
ENDBRANCH  20  22
ENDBRANCH  19  20
ENDBRANCH  18  19
ENDBRANCH  17  18
ENDBRANCH  16  17
ENDBRANCH  14  15
ENDBRANCH   2  14
TORSDOF 14
ENDMDL
MODEL 6
REMARK VINA RESULT:      -5.6      3.505      6.863
REMARK  Name = Icosapent
REMARK  15 active torsions:
REMARK  status: ('A' for Active; 'I' for Inactive)
REMARK    1  A    between atoms: C_1  and  C_2
REMARK    2  A    between atoms: C_2  and  C_3
REMARK    3  A    between atoms: C_4  and  C_5
REMARK    4  A    between atoms: C_5  and  C_6
REMARK    5  A    between atoms: C_7  and  C_8
REMARK    6  A    between atoms: C_8  and  C_9
REMARK    7  A    between atoms: C_10  and  C_11
REMARK    8  A    between atoms: C_11  and  C_12
REMARK    9  A    between atoms: C_13  and  C_14
REMARK   10  A    between atoms: C_14  and  C_15
REMARK   11  A    between atoms: C_16  and  C_17
REMARK   12  A    between atoms: C_17  and  C_18
REMARK   13  A    between atoms: C_18  and  C_19
REMARK   14  A    between atoms: C_19  and  C_20
REMARK   15  A    between atoms: C_20  and  O_21
REMARK                            x       y       z     vdW  Elec       q    Type
REMARK                         _______ _______ _______ _____ _____    ______ ____
ROOT
ATOM      1  C   UNL     1      -9.017  -3.862 127.461  0.00  0.00    +0.000 C 
ATOM      2  C   UNL     1      -8.308  -3.582 128.566  0.00  0.00    +0.000 C 
ENDROOT
BRANCH   1   3
ATOM      3  C   UNL     1      -9.047  -2.939 126.280  0.00  0.00    +0.000 C 
BRANCH   3   5
ATOM      4  C   UNL     1      -9.086  -3.008 123.795  0.00  0.00    +0.000 C 
ATOM      5  C   UNL     1      -9.202  -3.648 124.970  0.00  0.00    +0.000 C 
BRANCH   4   6
ATOM      6  C   UNL     1      -8.792  -1.541 123.713  0.00  0.00    +0.000 C 
BRANCH   6   8
ATOM      7  C   UNL     1      -7.037   0.003 122.865  0.00  0.00    +0.000 C 
ATOM      8  C   UNL     1      -7.612  -1.212 122.853  0.00  0.00    +0.000 C 
BRANCH   7   9
ATOM      9  C   UNL     1      -7.542   1.108 123.742  0.00  0.00    +0.000 C 
BRANCH   9  11
ATOM     10  C   UNL     1      -7.776   3.185 122.405  0.00  0.00    +0.000 C 
ATOM     11  C   UNL     1      -8.350   2.134 123.013  0.00  0.00    +0.000 C 
BRANCH  10  13
ATOM     12  C   UNL     1      -5.681   3.219 121.035  0.00  0.00    +0.000 C 
ATOM     13  C   UNL     1      -6.289   3.412 122.410  0.00  0.00    +0.000 C 
ENDBRANCH  10  13
ENDBRANCH   9  11
ENDBRANCH   7   9
ENDBRANCH   6   8
ENDBRANCH   4   6
ENDBRANCH   3   5
ENDBRANCH   1   3
BRANCH   2  14
ATOM     14  C   UNL     1      -7.500  -2.328 128.689  0.00  0.00    +0.000 C 
BRANCH  14  15
ATOM     15  C   UNL     1      -6.023  -2.562 128.670  0.00  0.00    +0.000 C 
ATOM     16  C   UNL     1      -5.257  -2.125 127.661  0.00  0.00    +0.000 C 
BRANCH  16  17
ATOM     17  C   UNL     1      -5.824  -1.374 126.489  0.00  0.00    +0.000 C 
BRANCH  17  18
ATOM     18  C   UNL     1      -5.212  -1.865 125.191  0.00  0.00    +0.000 C 
BRANCH  18  19
ATOM     19  C   UNL     1      -5.439  -3.356 124.995  0.00  0.00    +0.000 C 
BRANCH  19  20
ATOM     20  C   UNL     1      -4.617  -3.986 123.896  0.00  0.00    +0.000 C 
ATOM     21  O   UNL     1      -3.860  -3.320 123.196  0.00  0.00    +0.000 OA
BRANCH  20  22
ATOM     22  O   UNL     1      -4.746  -5.313 123.708  0.00  0.00    +0.000 OA
ATOM     23  H   UNL     1      -3.932  -5.844 123.641  0.00  0.00    +0.000 HD
ENDBRANCH  20  22
ENDBRANCH  19  20
ENDBRANCH  18  19
ENDBRANCH  17  18
ENDBRANCH  16  17
ENDBRANCH  14  15
ENDBRANCH   2  14
TORSDOF 14
ENDMDL
MODEL 7
REMARK VINA RESULT:      -5.6      3.720      5.116
REMARK  Name = Icosapent
REMARK  15 active torsions:
REMARK  status: ('A' for Active; 'I' for Inactive)
REMARK    1  A    between atoms: C_1  and  C_2
REMARK    2  A    between atoms: C_2  and  C_3
REMARK    3  A    between atoms: C_4  and  C_5
REMARK    4  A    between atoms: C_5  and  C_6
REMARK    5  A    between atoms: C_7  and  C_8
REMARK    6  A    between atoms: C_8  and  C_9
REMARK    7  A    between atoms: C_10  and  C_11
REMARK    8  A    between atoms: C_11  and  C_12
REMARK    9  A    between atoms: C_13  and  C_14
REMARK   10  A    between atoms: C_14  and  C_15
REMARK   11  A    between atoms: C_16  and  C_17
REMARK   12  A    between atoms: C_17  and  C_18
REMARK   13  A    between atoms: C_18  and  C_19
REMARK   14  A    between atoms: C_19  and  C_20
REMARK   15  A    between atoms: C_20  and  O_21
REMARK                            x       y       z     vdW  Elec       q    Type
REMARK                         _______ _______ _______ _____ _____    ______ ____
ROOT
ATOM      1  C   UNL     1      -6.204  -2.817 123.669  0.00  0.00    +0.000 C 
ATOM      2  C   UNL     1      -5.531  -1.798 124.228  0.00  0.00    +0.000 C 
ENDROOT
BRANCH   1   3
ATOM      3  C   UNL     1      -7.118  -3.698 124.465  0.00  0.00    +0.000 C 
BRANCH   3   5
ATOM      4  C   UNL     1      -9.401  -2.957 125.115  0.00  0.00    +0.000 C 
ATOM      5  C   UNL     1      -8.571  -3.459 124.186  0.00  0.00    +0.000 C 
BRANCH   4   6
ATOM      6  C   UNL     1      -8.933  -2.601 126.493  0.00  0.00    +0.000 C 
BRANCH   6   8
ATOM      7  C   UNL     1      -8.346  -3.718 128.635  0.00  0.00    +0.000 C 
ATOM      8  C   UNL     1      -9.006  -3.738 127.464  0.00  0.00    +0.000 C 
BRANCH   7   9
ATOM      9  C   UNL     1      -7.495  -2.555 129.044  0.00  0.00    +0.000 C 
BRANCH   9  11
ATOM     10  C   UNL     1      -7.916  -0.604 130.518  0.00  0.00    +0.000 C 
ATOM     11  C   UNL     1      -7.904  -1.936 130.343  0.00  0.00    +0.000 C 
BRANCH  10  13
ATOM     12  C   UNL     1      -8.431   1.571 129.392  0.00  0.00    +0.000 C 
ATOM     13  C   UNL     1      -7.521   0.361 129.434  0.00  0.00    +0.000 C 
ENDBRANCH  10  13
ENDBRANCH   9  11
ENDBRANCH   7   9
ENDBRANCH   6   8
ENDBRANCH   4   6
ENDBRANCH   3   5
ENDBRANCH   1   3
BRANCH   2  14
ATOM     14  C   UNL     1      -5.651  -1.478 125.684  0.00  0.00    +0.000 C 
BRANCH  14  15
ATOM     15  C   UNL     1      -5.308  -0.061 126.017  0.00  0.00    +0.000 C 
ATOM     16  C   UNL     1      -6.250   0.891 126.089  0.00  0.00    +0.000 C 
BRANCH  16  17
ATOM     17  C   UNL     1      -7.704   0.601 125.843  0.00  0.00    +0.000 C 
BRANCH  17  18
ATOM     18  C   UNL     1      -8.326   1.677 124.974  0.00  0.00    +0.000 C 
BRANCH  18  19
ATOM     19  C   UNL     1      -9.712   1.276 124.494  0.00  0.00    +0.000 C 
BRANCH  19  20
ATOM     20  C   UNL     1      -9.731   0.418 123.252  0.00  0.00    +0.000 C 
ATOM     21  O   UNL     1      -8.747  -0.223 122.896  0.00  0.00    +0.000 OA
BRANCH  20  22
ATOM     22  O   UNL     1     -10.874   0.383 122.540  0.00  0.00    +0.000 OA
ATOM     23  H   UNL     1     -10.923   0.922 121.731  0.00  0.00    +0.000 HD
ENDBRANCH  20  22
ENDBRANCH  19  20
ENDBRANCH  18  19
ENDBRANCH  17  18
ENDBRANCH  16  17
ENDBRANCH  14  15
ENDBRANCH   2  14
TORSDOF 14
ENDMDL
MODEL 8
REMARK VINA RESULT:      -5.6      6.501      9.354
REMARK  Name = Icosapent
REMARK  15 active torsions:
REMARK  status: ('A' for Active; 'I' for Inactive)
REMARK    1  A    between atoms: C_1  and  C_2
REMARK    2  A    between atoms: C_2  and  C_3
REMARK    3  A    between atoms: C_4  and  C_5
REMARK    4  A    between atoms: C_5  and  C_6
REMARK    5  A    between atoms: C_7  and  C_8
REMARK    6  A    between atoms: C_8  and  C_9
REMARK    7  A    between atoms: C_10  and  C_11
REMARK    8  A    between atoms: C_11  and  C_12
REMARK    9  A    between atoms: C_13  and  C_14
REMARK   10  A    between atoms: C_14  and  C_15
REMARK   11  A    between atoms: C_16  and  C_17
REMARK   12  A    between atoms: C_17  and  C_18
REMARK   13  A    between atoms: C_18  and  C_19
REMARK   14  A    between atoms: C_19  and  C_20
REMARK   15  A    between atoms: C_20  and  O_21
REMARK                            x       y       z     vdW  Elec       q    Type
REMARK                         _______ _______ _______ _____ _____    ______ ____
ROOT
ATOM      1  C   UNL     1      -6.635  -1.093 127.243  0.00  0.00    +0.000 C 
ATOM      2  C   UNL     1      -5.447  -1.064 127.868  0.00  0.00    +0.000 C 
ENDROOT
BRANCH   1   3
ATOM      3  C   UNL     1      -7.861  -1.659 127.893  0.00  0.00    +0.000 C 
BRANCH   3   5
ATOM      4  C   UNL     1      -8.760  -3.633 126.679  0.00  0.00    +0.000 C 
ATOM      5  C   UNL     1      -8.023  -3.133 127.684  0.00  0.00    +0.000 C 
BRANCH   4   6
ATOM      6  C   UNL     1      -9.472  -2.753 125.697  0.00  0.00    +0.000 C 
BRANCH   6   8
ATOM      7  C   UNL     1      -8.536  -2.834 123.395  0.00  0.00    +0.000 C 
ATOM      8  C   UNL     1      -9.437  -3.270 124.293  0.00  0.00    +0.000 C 
BRANCH   7   9
ATOM      9  C   UNL     1      -7.508  -1.801 123.744  0.00  0.00    +0.000 C 
BRANCH   9  11
ATOM     10  C   UNL     1      -5.282  -2.621 123.018  0.00  0.00    +0.000 C 
ATOM     11  C   UNL     1      -6.324  -1.796 122.828  0.00  0.00    +0.000 C 
BRANCH  10  13
ATOM     12  C   UNL     1      -4.495  -4.877 123.765  0.00  0.00    +0.000 C 
ATOM     13  C   UNL     1      -5.220  -3.605 124.154  0.00  0.00    +0.000 C 
ENDBRANCH  10  13
ENDBRANCH   9  11
ENDBRANCH   7   9
ENDBRANCH   6   8
ENDBRANCH   4   6
ENDBRANCH   3   5
ENDBRANCH   1   3
BRANCH   2  14
ATOM     14  C   UNL     1      -5.271  -1.596 129.255  0.00  0.00    +0.000 C 
BRANCH  14  15
ATOM     15  C   UNL     1      -4.281  -2.713 129.347  0.00  0.00    +0.000 C 
ATOM     16  C   UNL     1      -4.593  -3.882 129.926  0.00  0.00    +0.000 C 
BRANCH  16  17
ATOM     17  C   UNL     1      -5.950  -4.149 130.514  0.00  0.00    +0.000 C 
BRANCH  17  18
ATOM     18  C   UNL     1      -5.884  -4.158 132.030  0.00  0.00    +0.000 C 
BRANCH  18  19
ATOM     19  C   UNL     1      -6.923  -3.229 132.639  0.00  0.00    +0.000 C 
BRANCH  19  20
ATOM     20  C   UNL     1      -7.477  -3.680 133.970  0.00  0.00    +0.000 C 
ATOM     21  O   UNL     1      -6.753  -4.148 134.843  0.00  0.00    +0.000 OA
BRANCH  20  22
ATOM     22  O   UNL     1      -8.803  -3.551 134.166  0.00  0.00    +0.000 OA
ATOM     23  H   UNL     1      -9.393  -3.722 133.410  0.00  0.00    +0.000 HD
ENDBRANCH  20  22
ENDBRANCH  19  20
ENDBRANCH  18  19
ENDBRANCH  17  18
ENDBRANCH  16  17
ENDBRANCH  14  15
ENDBRANCH   2  14
TORSDOF 14
ENDMDL
MODEL 9
REMARK VINA RESULT:      -5.5      4.704      7.775
REMARK  Name = Icosapent
REMARK  15 active torsions:
REMARK  status: ('A' for Active; 'I' for Inactive)
REMARK    1  A    between atoms: C_1  and  C_2
REMARK    2  A    between atoms: C_2  and  C_3
REMARK    3  A    between atoms: C_4  and  C_5
REMARK    4  A    between atoms: C_5  and  C_6
REMARK    5  A    between atoms: C_7  and  C_8
REMARK    6  A    between atoms: C_8  and  C_9
REMARK    7  A    between atoms: C_10  and  C_11
REMARK    8  A    between atoms: C_11  and  C_12
REMARK    9  A    between atoms: C_13  and  C_14
REMARK   10  A    between atoms: C_14  and  C_15
REMARK   11  A    between atoms: C_16  and  C_17
REMARK   12  A    between atoms: C_17  and  C_18
REMARK   13  A    between atoms: C_18  and  C_19
REMARK   14  A    between atoms: C_19  and  C_20
REMARK   15  A    between atoms: C_20  and  O_21
REMARK                            x       y       z     vdW  Elec       q    Type
REMARK                         _______ _______ _______ _____ _____    ______ ____
ROOT
ATOM      1  C   UNL     1      -7.392  -3.205 124.251  0.00  0.00    +0.000 C 
ATOM      2  C   UNL     1      -8.263  -3.747 125.117  0.00  0.00    +0.000 C 
ENDROOT
BRANCH   1   3
ATOM      3  C   UNL     1      -6.949  -1.778 124.358  0.00  0.00    +0.000 C 
BRANCH   3   5
ATOM      4  C   UNL     1      -5.222  -0.602 125.705  0.00  0.00    +0.000 C 
ATOM      5  C   UNL     1      -5.561  -1.620 124.898  0.00  0.00    +0.000 C 
BRANCH   4   6
ATOM      6  C   UNL     1      -6.208   0.448 126.121  0.00  0.00    +0.000 C 
BRANCH   6   8
ATOM      7  C   UNL     1      -6.116   2.481 124.693  0.00  0.00    +0.000 C 
ATOM      8  C   UNL     1      -5.759   1.845 125.821  0.00  0.00    +0.000 C 
BRANCH   7   9
ATOM      9  C   UNL     1      -6.989   1.832 123.661  0.00  0.00    +0.000 C 
BRANCH   9  11
ATOM     10  C   UNL     1      -9.464   2.004 123.678  0.00  0.00    +0.000 C 
ATOM     11  C   UNL     1      -8.271   2.562 123.412  0.00  0.00    +0.000 C 
BRANCH  10  13
ATOM     12  C   UNL     1      -9.705   0.624 125.752  0.00  0.00    +0.000 C 
ATOM     13  C   UNL     1      -9.605   0.616 124.240  0.00  0.00    +0.000 C 
ENDBRANCH  10  13
ENDBRANCH   9  11
ENDBRANCH   7   9
ENDBRANCH   6   8
ENDBRANCH   4   6
ENDBRANCH   3   5
ENDBRANCH   1   3
BRANCH   2  14
ATOM     14  C   UNL     1      -8.849  -2.958 126.245  0.00  0.00    +0.000 C 
BRANCH  14  15
ATOM     15  C   UNL     1      -8.937  -3.720 127.529  0.00  0.00    +0.000 C 
ATOM     16  C   UNL     1      -8.165  -3.414 128.581  0.00  0.00    +0.000 C 
BRANCH  16  17
ATOM     17  C   UNL     1      -7.166  -2.291 128.543  0.00  0.00    +0.000 C 
BRANCH  17  18
ATOM     18  C   UNL     1      -5.754  -2.833 128.431  0.00  0.00    +0.000 C 
BRANCH  18  19
ATOM     19  C   UNL     1      -4.917  -2.470 129.649  0.00  0.00    +0.000 C 
BRANCH  19  20
ATOM     20  C   UNL     1      -3.466  -2.878 129.568  0.00  0.00    +0.000 C 
ATOM     21  O   UNL     1      -2.586  -2.245 130.142  0.00  0.00    +0.000 OA
BRANCH  20  22
ATOM     22  O   UNL     1      -3.169  -3.970 128.837  0.00  0.00    +0.000 OA
ATOM     23  H   UNL     1      -3.560  -4.819 129.108  0.00  0.00    +0.000 HD
ENDBRANCH  20  22
ENDBRANCH  19  20
ENDBRANCH  18  19
ENDBRANCH  17  18
ENDBRANCH  16  17
ENDBRANCH  14  15
ENDBRANCH   2  14
TORSDOF 14
ENDMDL
