MODEL 1
REMARK VINA RESULT:      -6.0      0.000      0.000
REMARK  Name = Icosapent ethyl
REMARK  17 active torsions:
REMARK  status: ('A' for Active; 'I' for Inactive)
REMARK    1  A    between atoms: C_1  and  C_2
REMARK    2  A    between atoms: C_2  and  O_3
REMARK    3  A    between atoms: O_3  and  C_4
REMARK    4  A    between atoms: C_4  and  C_6
REMARK    5  A    between atoms: C_6  and  C_7
REMARK    6  A    between atoms: C_7  and  C_8
REMARK    7  A    between atoms: C_8  and  C_9
REMARK    8  A    between atoms: C_10  and  C_11
REMARK    9  A    between atoms: C_11  and  C_12
REMARK   10  A    between atoms: C_13  and  C_14
REMARK   11  A    between atoms: C_14  and  C_15
REMARK   12  A    between atoms: C_16  and  C_17
REMARK   13  A    between atoms: C_17  and  C_18
REMARK   14  A    between atoms: C_19  and  C_20
REMARK   15  A    between atoms: C_20  and  C_21
REMARK   16  A    between atoms: C_22  and  C_23
REMARK   17  A    between atoms: C_23  and  C_24
REMARK                            x       y       z     vdW  Elec       q    Type
REMARK                         _______ _______ _______ _____ _____    ______ ____
ROOT
ATOM      1  C   UNL     1      -7.494   0.032 128.151  0.00  0.00    +0.000 C 
ATOM      2  C   UNL     1      -7.684  -0.883 129.116  0.00  0.00    +0.000 C 
ENDROOT
BRANCH   1   3
ATOM      3  C   UNL     1      -6.843  -0.317 126.847  0.00  0.00    +0.000 C 
BRANCH   3   5
ATOM      4  C   UNL     1      -6.898   1.395 125.055  0.00  0.00    +0.000 C 
ATOM      5  C   UNL     1      -7.471   0.342 125.661  0.00  0.00    +0.000 C 
BRANCH   4   6
ATOM      6  C   UNL     1      -5.593   1.988 125.518  0.00  0.00    +0.000 C 
BRANCH   6   7
ATOM      7  C   UNL     1      -5.672   3.501 125.651  0.00  0.00    +0.000 C 
BRANCH   7   8
ATOM      8  C   UNL     1      -5.907   3.947 127.098  0.00  0.00    +0.000 C 
BRANCH   8   9
ATOM      9  C   UNL     1      -4.683   4.675 127.615  0.00  0.00    +0.000 C 
ATOM     10  O   UNL     1      -4.617   5.892 127.766  0.00  0.00    +0.000 OA
BRANCH   9  11
ATOM     11  O   UNL     1      -3.664   3.812 127.892  0.00  0.00    +0.000 OA
BRANCH  11  13
ATOM     12  C   UNL     1      -1.690   2.977 126.761  0.00  0.00    +0.000 C 
ATOM     13  C   UNL     1      -2.415   4.200 127.292  0.00  0.00    +0.000 C 
ENDBRANCH  11  13
ENDBRANCH   9  11
ENDBRANCH   8   9
ENDBRANCH   7   8
ENDBRANCH   6   7
ENDBRANCH   4   6
ENDBRANCH   3   5
ENDBRANCH   1   3
BRANCH   2  14
ATOM     14  C   UNL     1      -7.257  -2.310 128.953  0.00  0.00    +0.000 C 
BRANCH  14  15
ATOM     15  C   UNL     1      -8.374  -3.295 129.123  0.00  0.00    +0.000 C 
ATOM     16  C   UNL     1      -8.938  -3.921 128.078  0.00  0.00    +0.000 C 
BRANCH  16  17
ATOM     17  C   UNL     1      -8.491  -3.678 126.668  0.00  0.00    +0.000 C 
BRANCH  17  18
ATOM     18  C   UNL     1      -9.446  -2.842 125.871  0.00  0.00    +0.000 C 
ATOM     19  C   UNL     1      -9.292  -2.650 124.550  0.00  0.00    +0.000 C 
BRANCH  19  20
ATOM     20  C   UNL     1      -8.156  -3.260 123.789  0.00  0.00    +0.000 C 
BRANCH  20  21
ATOM     21  C   UNL     1      -7.247  -2.255 123.154  0.00  0.00    +0.000 C 
ATOM     22  C   UNL     1      -5.926  -2.241 123.402  0.00  0.00    +0.000 C 
BRANCH  22  23
ATOM     23  C   UNL     1      -5.263  -3.223 124.328  0.00  0.00    +0.000 C 
ATOM     24  C   UNL     1      -4.404  -4.218 123.577  0.00  0.00    +0.000 C 
ENDBRANCH  22  23
ENDBRANCH  20  21
ENDBRANCH  19  20
ENDBRANCH  17  18
ENDBRANCH  16  17
ENDBRANCH  14  15
ENDBRANCH   2  14
TORSDOF 15
ENDMDL
MODEL 2
REMARK VINA RESULT:      -5.8      2.067      3.318
REMARK  Name = Icosapent ethyl
REMARK  17 active torsions:
REMARK  status: ('A' for Active; 'I' for Inactive)
REMARK    1  A    between atoms: C_1  and  C_2
REMARK    2  A    between atoms: C_2  and  O_3
REMARK    3  A    between atoms: O_3  and  C_4
REMARK    4  A    between atoms: C_4  and  C_6
REMARK    5  A    between atoms: C_6  and  C_7
REMARK    6  A    between atoms: C_7  and  C_8
REMARK    7  A    between atoms: C_8  and  C_9
REMARK    8  A    between atoms: C_10  and  C_11
REMARK    9  A    between atoms: C_11  and  C_12
REMARK   10  A    between atoms: C_13  and  C_14
REMARK   11  A    between atoms: C_14  and  C_15
REMARK   12  A    between atoms: C_16  and  C_17
REMARK   13  A    between atoms: C_17  and  C_18
REMARK   14  A    between atoms: C_19  and  C_20
REMARK   15  A    between atoms: C_20  and  C_21
REMARK   16  A    between atoms: C_22  and  C_23
REMARK   17  A    between atoms: C_23  and  C_24
REMARK                            x       y       z     vdW  Elec       q    Type
REMARK                         _______ _______ _______ _____ _____    ______ ____
ROOT
ATOM      1  C   UNL     1      -7.195   0.593 126.570  0.00  0.00    +0.000 C 
ATOM      2  C   UNL     1      -7.961  -0.443 126.950  0.00  0.00    +0.000 C 
ENDROOT
BRANCH   1   3
ATOM      3  C   UNL     1      -5.723   0.440 126.331  0.00  0.00    +0.000 C 
BRANCH   3   5
ATOM      4  C   UNL     1      -4.391   2.391 127.087  0.00  0.00    +0.000 C 
ATOM      5  C   UNL     1      -4.870   1.159 127.328  0.00  0.00    +0.000 C 
BRANCH   4   6
ATOM      6  C   UNL     1      -4.671   3.136 125.808  0.00  0.00    +0.000 C 
BRANCH   6   7
ATOM      7  C   UNL     1      -5.552   4.353 126.042  0.00  0.00    +0.000 C 
BRANCH   7   8
ATOM      8  C   UNL     1      -6.534   4.591 124.889  0.00  0.00    +0.000 C 
BRANCH   8   9
ATOM      9  C   UNL     1      -7.890   4.017 125.244  0.00  0.00    +0.000 C 
ATOM     10  O   UNL     1      -8.296   3.865 126.393  0.00  0.00    +0.000 OA
BRANCH   9  11
ATOM     11  O   UNL     1      -8.605   3.691 124.129  0.00  0.00    +0.000 OA
BRANCH  11  13
ATOM     12  C   UNL     1      -9.811   1.590 124.050  0.00  0.00    +0.000 C 
ATOM     13  C   UNL     1      -8.497   2.299 123.775  0.00  0.00    +0.000 C 
ENDBRANCH  11  13
ENDBRANCH   9  11
ENDBRANCH   8   9
ENDBRANCH   7   8
ENDBRANCH   6   7
ENDBRANCH   4   6
ENDBRANCH   3   5
ENDBRANCH   1   3
BRANCH   2  14
ATOM     14  C   UNL     1      -7.397  -1.815 127.160  0.00  0.00    +0.000 C 
BRANCH  14  15
ATOM     15  C   UNL     1      -8.432  -2.846 127.492  0.00  0.00    +0.000 C 
ATOM     16  C   UNL     1      -8.837  -3.764 126.599  0.00  0.00    +0.000 C 
BRANCH  16  17
ATOM     17  C   UNL     1      -8.280  -3.822 125.209  0.00  0.00    +0.000 C 
BRANCH  17  18
ATOM     18  C   UNL     1      -9.234  -3.334 124.160  0.00  0.00    +0.000 C 
ATOM     19  C   UNL     1      -8.962  -2.266 123.392  0.00  0.00    +0.000 C 
BRANCH  19  20
ATOM     20  C   UNL     1      -7.686  -1.494 123.533  0.00  0.00    +0.000 C 
BRANCH  20  21
ATOM     21  C   UNL     1      -6.709  -1.737 122.426  0.00  0.00    +0.000 C 
ATOM     22  C   UNL     1      -5.554  -2.392 122.634  0.00  0.00    +0.000 C 
BRANCH  22  23
ATOM     23  C   UNL     1      -5.155  -2.927 123.982  0.00  0.00    +0.000 C 
ATOM     24  C   UNL     1      -4.488  -4.282 123.878  0.00  0.00    +0.000 C 
ENDBRANCH  22  23
ENDBRANCH  20  21
ENDBRANCH  19  20
ENDBRANCH  17  18
ENDBRANCH  16  17
ENDBRANCH  14  15
ENDBRANCH   2  14
TORSDOF 15
ENDMDL
MODEL 3
REMARK VINA RESULT:      -5.8      1.789      3.845
REMARK  Name = Icosapent ethyl
REMARK  17 active torsions:
REMARK  status: ('A' for Active; 'I' for Inactive)
REMARK    1  A    between atoms: C_1  and  C_2
REMARK    2  A    between atoms: C_2  and  O_3
REMARK    3  A    between atoms: O_3  and  C_4
REMARK    4  A    between atoms: C_4  and  C_6
REMARK    5  A    between atoms: C_6  and  C_7
REMARK    6  A    between atoms: C_7  and  C_8
REMARK    7  A    between atoms: C_8  and  C_9
REMARK    8  A    between atoms: C_10  and  C_11
REMARK    9  A    between atoms: C_11  and  C_12
REMARK   10  A    between atoms: C_13  and  C_14
REMARK   11  A    between atoms: C_14  and  C_15
REMARK   12  A    between atoms: C_16  and  C_17
REMARK   13  A    between atoms: C_17  and  C_18
REMARK   14  A    between atoms: C_19  and  C_20
REMARK   15  A    between atoms: C_20  and  C_21
REMARK   16  A    between atoms: C_22  and  C_23
REMARK   17  A    between atoms: C_23  and  C_24
REMARK                            x       y       z     vdW  Elec       q    Type
REMARK                         _______ _______ _______ _____ _____    ______ ____
ROOT
ATOM      1  C   UNL     1      -8.272  -3.527 128.650  0.00  0.00    +0.000 C 
ATOM      2  C   UNL     1      -8.924  -3.809 127.510  0.00  0.00    +0.000 C 
ENDROOT
BRANCH   1   3
ATOM      3  C   UNL     1      -7.486  -2.262 128.819  0.00  0.00    +0.000 C 
BRANCH   3   5
ATOM      4  C   UNL     1      -5.411  -1.562 127.656  0.00  0.00    +0.000 C 
ATOM      5  C   UNL     1      -6.033  -2.404 128.498  0.00  0.00    +0.000 C 
BRANCH   4   6
ATOM      6  C   UNL     1      -6.122  -0.421 126.977  0.00  0.00    +0.000 C 
BRANCH   6   7
ATOM      7  C   UNL     1      -5.164   0.448 126.176  0.00  0.00    +0.000 C 
BRANCH   7   8
ATOM      8  C   UNL     1      -5.687   1.878 125.995  0.00  0.00    +0.000 C 
BRANCH   8   9
ATOM      9  C   UNL     1      -5.110   2.774 127.071  0.00  0.00    +0.000 C 
ATOM     10  O   UNL     1      -5.761   3.605 127.699  0.00  0.00    +0.000 OA
BRANCH   9  11
ATOM     11  O   UNL     1      -3.779   2.544 127.256  0.00  0.00    +0.000 OA
BRANCH  11  13
ATOM     12  C   UNL     1      -1.490   2.985 126.593  0.00  0.00    +0.000 C 
ATOM     13  C   UNL     1      -2.939   3.422 126.484  0.00  0.00    +0.000 C 
ENDBRANCH  11  13
ENDBRANCH   9  11
ENDBRANCH   8   9
ENDBRANCH   7   8
ENDBRANCH   6   7
ENDBRANCH   4   6
ENDBRANCH   3   5
ENDBRANCH   1   3
BRANCH   2  14
ATOM     14  C   UNL     1      -8.910  -2.879 126.335  0.00  0.00    +0.000 C 
BRANCH  14  15
ATOM     15  C   UNL     1      -9.010  -3.578 125.014  0.00  0.00    +0.000 C 
ATOM     16  C   UNL     1      -8.009  -3.562 124.120  0.00  0.00    +0.000 C 
BRANCH  16  17
ATOM     17  C   UNL     1      -6.720  -2.843 124.381  0.00  0.00    +0.000 C 
BRANCH  17  18
ATOM     18  C   UNL     1      -6.280  -1.967 123.248  0.00  0.00    +0.000 C 
ATOM     19  C   UNL     1      -6.845  -0.771 123.011  0.00  0.00    +0.000 C 
BRANCH  19  20
ATOM     20  C   UNL     1      -7.952  -0.236 123.867  0.00  0.00    +0.000 C 
BRANCH  20  21
ATOM     21  C   UNL     1      -9.262  -0.117 123.154  0.00  0.00    +0.000 C 
ATOM     22  C   UNL     1      -9.798   1.079 122.856  0.00  0.00    +0.000 C 
BRANCH  22  23
ATOM     23  C   UNL     1      -9.132   2.379 123.212  0.00  0.00    +0.000 C 
ATOM     24  C   UNL     1      -8.561   3.075 121.994  0.00  0.00    +0.000 C 
ENDBRANCH  22  23
ENDBRANCH  20  21
ENDBRANCH  19  20
ENDBRANCH  17  18
ENDBRANCH  16  17
ENDBRANCH  14  15
ENDBRANCH   2  14
TORSDOF 15
ENDMDL
MODEL 4
REMARK VINA RESULT:      -5.7      4.092      6.729
REMARK  Name = Icosapent ethyl
REMARK  17 active torsions:
REMARK  status: ('A' for Active; 'I' for Inactive)
REMARK    1  A    between atoms: C_1  and  C_2
REMARK    2  A    between atoms: C_2  and  O_3
REMARK    3  A    between atoms: O_3  and  C_4
REMARK    4  A    between atoms: C_4  and  C_6
REMARK    5  A    between atoms: C_6  and  C_7
REMARK    6  A    between atoms: C_7  and  C_8
REMARK    7  A    between atoms: C_8  and  C_9
REMARK    8  A    between atoms: C_10  and  C_11
REMARK    9  A    between atoms: C_11  and  C_12
REMARK   10  A    between atoms: C_13  and  C_14
REMARK   11  A    between atoms: C_14  and  C_15
REMARK   12  A    between atoms: C_16  and  C_17
REMARK   13  A    between atoms: C_17  and  C_18
REMARK   14  A    between atoms: C_19  and  C_20
REMARK   15  A    between atoms: C_20  and  C_21
REMARK   16  A    between atoms: C_22  and  C_23
REMARK   17  A    between atoms: C_23  and  C_24
REMARK                            x       y       z     vdW  Elec       q    Type
REMARK                         _______ _______ _______ _____ _____    ______ ____
ROOT
ATOM      1  C   UNL     1      -8.812  -3.705 128.133  0.00  0.00    +0.000 C 
ATOM      2  C   UNL     1      -8.239  -3.290 129.275  0.00  0.00    +0.000 C 
ENDROOT
BRANCH   1   3
ATOM      3  C   UNL     1      -8.718  -2.910 126.867  0.00  0.00    +0.000 C 
BRANCH   3   5
ATOM      4  C   UNL     1      -8.055  -3.664 124.599  0.00  0.00    +0.000 C 
ATOM      5  C   UNL     1      -7.728  -3.450 125.885  0.00  0.00    +0.000 C 
BRANCH   4   6
ATOM      6  C   UNL     1      -9.430  -3.380 124.053  0.00  0.00    +0.000 C 
BRANCH   6   7
ATOM      7  C   UNL     1      -9.378  -2.500 122.814  0.00  0.00    +0.000 C 
BRANCH   7   8
ATOM      8  C   UNL     1      -8.573  -1.215 123.045  0.00  0.00    +0.000 C 
BRANCH   8   9
ATOM      9  C   UNL     1      -9.491  -0.014 122.968  0.00  0.00    +0.000 C 
ATOM     10  O   UNL     1     -10.608  -0.031 122.457  0.00  0.00    +0.000 OA
BRANCH   9  11
ATOM     11  O   UNL     1      -8.924   1.089 123.535  0.00  0.00    +0.000 OA
BRANCH  11  13
ATOM     12  C   UNL     1      -9.591   0.636 125.820  0.00  0.00    +0.000 C 
ATOM     13  C   UNL     1      -9.675   1.601 124.651  0.00  0.00    +0.000 C 
ENDBRANCH  11  13
ENDBRANCH   9  11
ENDBRANCH   8   9
ENDBRANCH   7   8
ENDBRANCH   6   7
ENDBRANCH   4   6
ENDBRANCH   3   5
ENDBRANCH   1   3
BRANCH   2  14
ATOM     14  C   UNL     1      -7.471  -2.006 129.358  0.00  0.00    +0.000 C 
BRANCH  14  15
ATOM     15  C   UNL     1      -8.171  -0.936 130.139  0.00  0.00    +0.000 C 
ATOM     16  C   UNL     1      -7.907  -0.711 131.436  0.00  0.00    +0.000 C 
BRANCH  16  17
ATOM     17  C   UNL     1      -6.894  -1.515 132.194  0.00  0.00    +0.000 C 
BRANCH  17  18
ATOM     18  C   UNL     1      -7.499  -2.545 133.098  0.00  0.00    +0.000 C 
ATOM     19  C   UNL     1      -6.881  -3.707 133.368  0.00  0.00    +0.000 C 
BRANCH  19  20
ATOM     20  C   UNL     1      -5.545  -4.046 132.783  0.00  0.00    +0.000 C 
BRANCH  20  21
ATOM     21  C   UNL     1      -5.621  -4.934 131.581  0.00  0.00    +0.000 C 
ATOM     22  C   UNL     1      -5.028  -4.606 130.421  0.00  0.00    +0.000 C 
BRANCH  22  23
ATOM     23  C   UNL     1      -4.249  -3.333 130.239  0.00  0.00    +0.000 C 
ATOM     24  C   UNL     1      -3.070  -3.519 129.307  0.00  0.00    +0.000 C 
ENDBRANCH  22  23
ENDBRANCH  20  21
ENDBRANCH  19  20
ENDBRANCH  17  18
ENDBRANCH  16  17
ENDBRANCH  14  15
ENDBRANCH   2  14
TORSDOF 15
ENDMDL
MODEL 5
REMARK VINA RESULT:      -5.7      3.290      6.148
REMARK  Name = Icosapent ethyl
REMARK  17 active torsions:
REMARK  status: ('A' for Active; 'I' for Inactive)
REMARK    1  A    between atoms: C_1  and  C_2
REMARK    2  A    between atoms: C_2  and  O_3
REMARK    3  A    between atoms: O_3  and  C_4
REMARK    4  A    between atoms: C_4  and  C_6
REMARK    5  A    between atoms: C_6  and  C_7
REMARK    6  A    between atoms: C_7  and  C_8
REMARK    7  A    between atoms: C_8  and  C_9
REMARK    8  A    between atoms: C_10  and  C_11
REMARK    9  A    between atoms: C_11  and  C_12
REMARK   10  A    between atoms: C_13  and  C_14
REMARK   11  A    between atoms: C_14  and  C_15
REMARK   12  A    between atoms: C_16  and  C_17
REMARK   13  A    between atoms: C_17  and  C_18
REMARK   14  A    between atoms: C_19  and  C_20
REMARK   15  A    between atoms: C_20  and  C_21
REMARK   16  A    between atoms: C_22  and  C_23
REMARK   17  A    between atoms: C_23  and  C_24
REMARK                            x       y       z     vdW  Elec       q    Type
REMARK                         _______ _______ _______ _____ _____    ______ ____
ROOT
ATOM      1  C   UNL     1      -8.477  -2.497 122.887  0.00  0.00    +0.000 C 
ATOM      2  C   UNL     1      -8.841  -1.360 122.271  0.00  0.00    +0.000 C 
ENDROOT
BRANCH   1   3
ATOM      3  C   UNL     1      -9.263  -3.063 124.030  0.00  0.00    +0.000 C 
BRANCH   3   5
ATOM      4  C   UNL     1      -8.230  -3.655 126.206  0.00  0.00    +0.000 C 
ATOM      5  C   UNL     1      -8.470  -3.966 124.921  0.00  0.00    +0.000 C 
BRANCH   4   6
ATOM      6  C   UNL     1      -8.734  -2.386 126.843  0.00  0.00    +0.000 C 
BRANCH   6   7
ATOM      7  C   UNL     1      -8.107  -2.148 128.207  0.00  0.00    +0.000 C 
BRANCH   7   8
ATOM      8  C   UNL     1      -8.001  -3.436 129.032  0.00  0.00    +0.000 C 
BRANCH   8   9
ATOM      9  C   UNL     1      -6.700  -3.443 129.806  0.00  0.00    +0.000 C 
ATOM     10  O   UNL     1      -6.613  -3.678 131.009  0.00  0.00    +0.000 OA
BRANCH   9  11
ATOM     11  O   UNL     1      -5.636  -3.157 129.002  0.00  0.00    +0.000 OA
BRANCH  11  13
ATOM     12  C   UNL     1      -3.256  -3.616 129.050  0.00  0.00    +0.000 C 
ATOM     13  C   UNL     1      -4.419  -2.922 129.736  0.00  0.00    +0.000 C 
ENDBRANCH  11  13
ENDBRANCH   9  11
ENDBRANCH   8   9
ENDBRANCH   7   8
ENDBRANCH   6   7
ENDBRANCH   4   6
ENDBRANCH   3   5
ENDBRANCH   1   3
BRANCH   2  14
ATOM     14  C   UNL     1     -10.054  -0.584 122.685  0.00  0.00    +0.000 C 
BRANCH  14  15
ATOM     15  C   UNL     1      -9.903   0.898 122.527  0.00  0.00    +0.000 C 
ATOM     16  C   UNL     1      -9.434   1.678 123.514  0.00  0.00    +0.000 C 
BRANCH  16  17
ATOM     17  C   UNL     1      -9.029   1.119 124.844  0.00  0.00    +0.000 C 
BRANCH  17  18
ATOM     18  C   UNL     1      -7.826   1.790 125.436  0.00  0.00    +0.000 C 
ATOM     19  C   UNL     1      -6.619   1.201 125.452  0.00  0.00    +0.000 C 
BRANCH  19  20
ATOM     20  C   UNL     1      -6.396  -0.164 124.878  0.00  0.00    +0.000 C 
BRANCH  20  21
ATOM     21  C   UNL     1      -5.594  -1.066 125.762  0.00  0.00    +0.000 C 
ATOM     22  C   UNL     1      -5.035  -2.196 125.297  0.00  0.00    +0.000 C 
BRANCH  22  23
ATOM     23  C   UNL     1      -5.169  -2.641 123.867  0.00  0.00    +0.000 C 
ATOM     24  C   UNL     1      -4.689  -4.063 123.668  0.00  0.00    +0.000 C 
ENDBRANCH  22  23
ENDBRANCH  20  21
ENDBRANCH  19  20
ENDBRANCH  17  18
ENDBRANCH  16  17
ENDBRANCH  14  15
ENDBRANCH   2  14
TORSDOF 15
ENDMDL
MODEL 6
REMARK VINA RESULT:      -5.6      2.632      3.807
REMARK  Name = Icosapent ethyl
REMARK  17 active torsions:
REMARK  status: ('A' for Active; 'I' for Inactive)
REMARK    1  A    between atoms: C_1  and  C_2
REMARK    2  A    between atoms: C_2  and  O_3
REMARK    3  A    between atoms: O_3  and  C_4
REMARK    4  A    between atoms: C_4  and  C_6
REMARK    5  A    between atoms: C_6  and  C_7
REMARK    6  A    between atoms: C_7  and  C_8
REMARK    7  A    between atoms: C_8  and  C_9
REMARK    8  A    between atoms: C_10  and  C_11
REMARK    9  A    between atoms: C_11  and  C_12
REMARK   10  A    between atoms: C_13  and  C_14
REMARK   11  A    between atoms: C_14  and  C_15
REMARK   12  A    between atoms: C_16  and  C_17
REMARK   13  A    between atoms: C_17  and  C_18
REMARK   14  A    between atoms: C_19  and  C_20
REMARK   15  A    between atoms: C_20  and  C_21
REMARK   16  A    between atoms: C_22  and  C_23
REMARK   17  A    between atoms: C_23  and  C_24
REMARK                            x       y       z     vdW  Elec       q    Type
REMARK                         _______ _______ _______ _____ _____    ______ ____
ROOT
ATOM      1  C   UNL     1      -5.507  -1.762 127.240  0.00  0.00    +0.000 C 
ATOM      2  C   UNL     1      -6.136  -2.427 128.224  0.00  0.00    +0.000 C 
ENDROOT
BRANCH   1   3
ATOM      3  C   UNL     1      -6.148  -0.608 126.531  0.00  0.00    +0.000 C 
BRANCH   3   5
ATOM      4  C   UNL     1      -5.559   1.555 127.591  0.00  0.00    +0.000 C 
ATOM      5  C   UNL     1      -5.362   0.661 126.607  0.00  0.00    +0.000 C 
BRANCH   4   6
ATOM      6  C   UNL     1      -6.577   1.350 128.682  0.00  0.00    +0.000 C 
BRANCH   6   7
ATOM      7  C   UNL     1      -7.817   2.204 128.469  0.00  0.00    +0.000 C 
BRANCH   7   8
ATOM      8  C   UNL     1      -7.925   3.340 129.493  0.00  0.00    +0.000 C 
BRANCH   8   9
ATOM      9  C   UNL     1      -9.233   3.228 130.247  0.00  0.00    +0.000 C 
ATOM     10  O   UNL     1     -10.337   3.425 129.746  0.00  0.00    +0.000 OA
BRANCH   9  11
ATOM     11  O   UNL     1      -9.034   2.880 131.551  0.00  0.00    +0.000 OA
BRANCH  11  13
ATOM     12  C   UNL     1      -9.046   0.460 131.676  0.00  0.00    +0.000 C 
ATOM     13  C   UNL     1      -9.812   1.740 131.958  0.00  0.00    +0.000 C 
ENDBRANCH  11  13
ENDBRANCH   9  11
ENDBRANCH   8   9
ENDBRANCH   7   8
ENDBRANCH   6   7
ENDBRANCH   4   6
ENDBRANCH   3   5
ENDBRANCH   1   3
BRANCH   2  14
ATOM     14  C   UNL     1      -7.516  -2.060 128.676  0.00  0.00    +0.000 C 
BRANCH  14  15
ATOM     15  C   UNL     1      -8.405  -3.242 128.915  0.00  0.00    +0.000 C 
ATOM     16  C   UNL     1      -8.866  -4.003 127.910  0.00  0.00    +0.000 C 
BRANCH  16  17
ATOM     17  C   UNL     1      -8.524  -3.723 126.478  0.00  0.00    +0.000 C 
BRANCH  17  18
ATOM     18  C   UNL     1      -9.279  -2.568 125.895  0.00  0.00    +0.000 C 
ATOM     19  C   UNL     1      -9.140  -2.201 124.610  0.00  0.00    +0.000 C 
BRANCH  19  20
ATOM     20  C   UNL     1      -8.220  -2.926 123.676  0.00  0.00    +0.000 C 
BRANCH  20  21
ATOM     21  C   UNL     1      -7.083  -2.090 123.179  0.00  0.00    +0.000 C 
ATOM     22  C   UNL     1      -5.804  -2.455 123.365  0.00  0.00    +0.000 C 
BRANCH  22  23
ATOM     23  C   UNL     1      -5.415  -3.720 124.080  0.00  0.00    +0.000 C 
ATOM     24  C   UNL     1      -4.136  -4.313 123.528  0.00  0.00    +0.000 C 
ENDBRANCH  22  23
ENDBRANCH  20  21
ENDBRANCH  19  20
ENDBRANCH  17  18
ENDBRANCH  16  17
ENDBRANCH  14  15
ENDBRANCH   2  14
TORSDOF 15
ENDMDL
MODEL 7
REMARK VINA RESULT:      -5.6      4.287      6.077
REMARK  Name = Icosapent ethyl
REMARK  17 active torsions:
REMARK  status: ('A' for Active; 'I' for Inactive)
REMARK    1  A    between atoms: C_1  and  C_2
REMARK    2  A    between atoms: C_2  and  O_3
REMARK    3  A    between atoms: O_3  and  C_4
REMARK    4  A    between atoms: C_4  and  C_6
REMARK    5  A    between atoms: C_6  and  C_7
REMARK    6  A    between atoms: C_7  and  C_8
REMARK    7  A    between atoms: C_8  and  C_9
REMARK    8  A    between atoms: C_10  and  C_11
REMARK    9  A    between atoms: C_11  and  C_12
REMARK   10  A    between atoms: C_13  and  C_14
REMARK   11  A    between atoms: C_14  and  C_15
REMARK   12  A    between atoms: C_16  and  C_17
REMARK   13  A    between atoms: C_17  and  C_18
REMARK   14  A    between atoms: C_19  and  C_20
REMARK   15  A    between atoms: C_20  and  C_21
REMARK   16  A    between atoms: C_22  and  C_23
REMARK   17  A    between atoms: C_23  and  C_24
REMARK                            x       y       z     vdW  Elec       q    Type
REMARK                         _______ _______ _______ _____ _____    ______ ____
ROOT
ATOM      1  C   UNL     1      -6.800  -0.459 131.553  0.00  0.00    +0.000 C 
ATOM      2  C   UNL     1      -7.808  -1.262 131.175  0.00  0.00    +0.000 C 
ENDROOT
BRANCH   1   3
ATOM      3  C   UNL     1      -5.843   0.129 130.560  0.00  0.00    +0.000 C 
BRANCH   3   5
ATOM      4  C   UNL     1      -3.777  -1.213 130.282  0.00  0.00    +0.000 C 
ATOM      5  C   UNL     1      -4.408  -0.173 130.850  0.00  0.00    +0.000 C 
BRANCH   4   6
ATOM      6  C   UNL     1      -4.460  -2.148 129.317  0.00  0.00    +0.000 C 
BRANCH   6   7
ATOM      7  C   UNL     1      -4.076  -3.599 129.565  0.00  0.00    +0.000 C 
BRANCH   7   8
ATOM      8  C   UNL     1      -5.105  -4.333 130.433  0.00  0.00    +0.000 C 
BRANCH   8   9
ATOM      9  C   UNL     1      -4.531  -4.574 131.813  0.00  0.00    +0.000 C 
ATOM     10  O   UNL     1      -3.477  -4.091 132.217  0.00  0.00    +0.000 OA
BRANCH   9  11
ATOM     11  O   UNL     1      -5.331  -5.395 132.553  0.00  0.00    +0.000 OA
BRANCH  11  13
ATOM     12  C   UNL     1      -6.752  -3.770 133.656  0.00  0.00    +0.000 C 
ATOM     13  C   UNL     1      -5.686  -4.837 133.832  0.00  0.00    +0.000 C 
ENDBRANCH  11  13
ENDBRANCH   9  11
ENDBRANCH   8   9
ENDBRANCH   7   8
ENDBRANCH   6   7
ENDBRANCH   4   6
ENDBRANCH   3   5
ENDBRANCH   1   3
BRANCH   2  14
ATOM     14  C   UNL     1      -8.042  -1.624 129.740  0.00  0.00    +0.000 C 
BRANCH  14  15
ATOM     15  C   UNL     1      -8.323  -3.079 129.524  0.00  0.00    +0.000 C 
ATOM     16  C   UNL     1      -8.291  -3.639 128.304  0.00  0.00    +0.000 C 
BRANCH  16  17
ATOM     17  C   UNL     1      -7.972  -2.847 127.073  0.00  0.00    +0.000 C 
BRANCH  17  18
ATOM     18  C   UNL     1      -9.145  -2.660 126.159  0.00  0.00    +0.000 C 
ATOM     19  C   UNL     1      -9.101  -3.010 124.863  0.00  0.00    +0.000 C 
BRANCH  19  20
ATOM     20  C   UNL     1      -7.875  -3.613 124.248  0.00  0.00    +0.000 C 
BRANCH  20  21
ATOM     21  C   UNL     1      -7.056  -2.641 123.459  0.00  0.00    +0.000 C 
ATOM     22  C   UNL     1      -5.713  -2.664 123.485  0.00  0.00    +0.000 C 
BRANCH  22  23
ATOM     23  C   UNL     1      -4.934  -3.658 124.301  0.00  0.00    +0.000 C 
ATOM     24  C   UNL     1      -4.284  -4.716 123.434  0.00  0.00    +0.000 C 
ENDBRANCH  22  23
ENDBRANCH  20  21
ENDBRANCH  19  20
ENDBRANCH  17  18
ENDBRANCH  16  17
ENDBRANCH  14  15
ENDBRANCH   2  14
TORSDOF 15
ENDMDL
MODEL 8
REMARK VINA RESULT:      -5.6      3.679      6.462
REMARK  Name = Icosapent ethyl
REMARK  17 active torsions:
REMARK  status: ('A' for Active; 'I' for Inactive)
REMARK    1  A    between atoms: C_1  and  C_2
REMARK    2  A    between atoms: C_2  and  O_3
REMARK    3  A    between atoms: O_3  and  C_4
REMARK    4  A    between atoms: C_4  and  C_6
REMARK    5  A    between atoms: C_6  and  C_7
REMARK    6  A    between atoms: C_7  and  C_8
REMARK    7  A    between atoms: C_8  and  C_9
REMARK    8  A    between atoms: C_10  and  C_11
REMARK    9  A    between atoms: C_11  and  C_12
REMARK   10  A    between atoms: C_13  and  C_14
REMARK   11  A    between atoms: C_14  and  C_15
REMARK   12  A    between atoms: C_16  and  C_17
REMARK   13  A    between atoms: C_17  and  C_18
REMARK   14  A    between atoms: C_19  and  C_20
REMARK   15  A    between atoms: C_20  and  C_21
REMARK   16  A    between atoms: C_22  and  C_23
REMARK   17  A    between atoms: C_23  and  C_24
REMARK                            x       y       z     vdW  Elec       q    Type
REMARK                         _______ _______ _______ _____ _____    ______ ____
ROOT
ATOM      1  C   UNL     1      -9.314  -3.351 124.067  0.00  0.00    +0.000 C 
ATOM      2  C   UNL     1      -9.295  -2.700 122.892  0.00  0.00    +0.000 C 
ENDROOT
BRANCH   1   3
ATOM      3  C   UNL     1      -8.979  -2.664 125.356  0.00  0.00    +0.000 C 
BRANCH   3   5
ATOM      4  C   UNL     1      -8.714  -3.415 127.705  0.00  0.00    +0.000 C 
ATOM      5  C   UNL     1      -9.437  -3.404 126.572  0.00  0.00    +0.000 C 
BRANCH   4   6
ATOM      6  C   UNL     1      -7.400  -2.690 127.836  0.00  0.00    +0.000 C 
BRANCH   6   7
ATOM      7  C   UNL     1      -7.403  -1.717 129.005  0.00  0.00    +0.000 C 
BRANCH   7   8
ATOM      8  C   UNL     1      -6.252  -1.979 129.984  0.00  0.00    +0.000 C 
BRANCH   8   9
ATOM      9  C   UNL     1      -6.494  -3.280 130.721  0.00  0.00    +0.000 C 
ATOM     10  O   UNL     1      -5.775  -4.271 130.625  0.00  0.00    +0.000 OA
BRANCH   9  11
ATOM     11  O   UNL     1      -7.608  -3.214 131.506  0.00  0.00    +0.000 OA
BRANCH  11  13
ATOM     12  C   UNL     1      -8.081  -3.003 133.874  0.00  0.00    +0.000 C 
ATOM     13  C   UNL     1      -7.441  -2.363 132.655  0.00  0.00    +0.000 C 
ENDBRANCH  11  13
ENDBRANCH   9  11
ENDBRANCH   8   9
ENDBRANCH   7   8
ENDBRANCH   6   7
ENDBRANCH   4   6
ENDBRANCH   3   5
ENDBRANCH   1   3
BRANCH   2  14
ATOM     14  C   UNL     1      -8.939  -1.248 122.792  0.00  0.00    +0.000 C 
BRANCH  14  15
ATOM     15  C   UNL     1     -10.117  -0.355 122.547  0.00  0.00    +0.000 C 
ATOM     16  C   UNL     1     -10.132   0.930 122.937  0.00  0.00    +0.000 C 
BRANCH  16  17
ATOM     17  C   UNL     1      -8.972   1.560 123.645  0.00  0.00    +0.000 C 
BRANCH  17  18
ATOM     18  C   UNL     1      -8.941   1.278 125.116  0.00  0.00    +0.000 C 
ATOM     19  C   UNL     1      -7.855   0.767 125.721  0.00  0.00    +0.000 C 
BRANCH  19  20
ATOM     20  C   UNL     1      -6.604   0.448 124.962  0.00  0.00    +0.000 C 
BRANCH  20  21
ATOM     21  C   UNL     1      -5.645  -0.417 125.718  0.00  0.00    +0.000 C 
ATOM     22  C   UNL     1      -5.218  -1.593 125.230  0.00  0.00    +0.000 C 
BRANCH  22  23
ATOM     23  C   UNL     1      -5.666  -2.131 123.899  0.00  0.00    +0.000 C 
ATOM     24  C   UNL     1      -4.882  -3.361 123.493  0.00  0.00    +0.000 C 
ENDBRANCH  22  23
ENDBRANCH  20  21
ENDBRANCH  19  20
ENDBRANCH  17  18
ENDBRANCH  16  17
ENDBRANCH  14  15
ENDBRANCH   2  14
TORSDOF 15
ENDMDL
MODEL 9
REMARK VINA RESULT:      -5.5      2.845      5.545
REMARK  Name = Icosapent ethyl
REMARK  17 active torsions:
REMARK  status: ('A' for Active; 'I' for Inactive)
REMARK    1  A    between atoms: C_1  and  C_2
REMARK    2  A    between atoms: C_2  and  O_3
REMARK    3  A    between atoms: O_3  and  C_4
REMARK    4  A    between atoms: C_4  and  C_6
REMARK    5  A    between atoms: C_6  and  C_7
REMARK    6  A    between atoms: C_7  and  C_8
REMARK    7  A    between atoms: C_8  and  C_9
REMARK    8  A    between atoms: C_10  and  C_11
REMARK    9  A    between atoms: C_11  and  C_12
REMARK   10  A    between atoms: C_13  and  C_14
REMARK   11  A    between atoms: C_14  and  C_15
REMARK   12  A    between atoms: C_16  and  C_17
REMARK   13  A    between atoms: C_17  and  C_18
REMARK   14  A    between atoms: C_19  and  C_20
REMARK   15  A    between atoms: C_20  and  C_21
REMARK   16  A    between atoms: C_22  and  C_23
REMARK   17  A    between atoms: C_23  and  C_24
REMARK                            x       y       z     vdW  Elec       q    Type
REMARK                         _______ _______ _______ _____ _____    ______ ____
ROOT
ATOM      1  C   UNL     1      -9.154  -3.472 124.322  0.00  0.00    +0.000 C 
ATOM      2  C   UNL     1      -9.182  -2.851 123.132  0.00  0.00    +0.000 C 
ENDROOT
BRANCH   1   3
ATOM      3  C   UNL     1      -8.794  -2.747 125.584  0.00  0.00    +0.000 C 
BRANCH   3   5
ATOM      4  C   UNL     1      -8.530  -3.258 127.996  0.00  0.00    +0.000 C 
ATOM      5  C   UNL     1      -9.159  -3.487 126.832  0.00  0.00    +0.000 C 
BRANCH   4   6
ATOM      6  C   UNL     1      -7.419  -2.249 128.135  0.00  0.00    +0.000 C 
BRANCH   6   7
ATOM      7  C   UNL     1      -7.570  -1.408 129.393  0.00  0.00    +0.000 C 
BRANCH   7   8
ATOM      8  C   UNL     1      -7.195   0.060 129.160  0.00  0.00    +0.000 C 
BRANCH   8   9
ATOM      9  C   UNL     1      -8.250   0.960 129.768  0.00  0.00    +0.000 C 
ATOM     10  O   UNL     1      -8.597   2.037 129.290  0.00  0.00    +0.000 OA
BRANCH   9  11
ATOM     11  O   UNL     1      -8.767   0.427 130.912  0.00  0.00    +0.000 OA
BRANCH  11  13
ATOM     12  C   UNL     1      -7.595   1.422 132.786  0.00  0.00    +0.000 C 
ATOM     13  C   UNL     1      -8.882   1.384 131.981  0.00  0.00    +0.000 C 
ENDBRANCH  11  13
ENDBRANCH   9  11
ENDBRANCH   8   9
ENDBRANCH   7   8
ENDBRANCH   6   7
ENDBRANCH   4   6
ENDBRANCH   3   5
ENDBRANCH   1   3
BRANCH   2  14
ATOM     14  C   UNL     1      -8.857  -1.396 122.986  0.00  0.00    +0.000 C 
BRANCH  14  15
ATOM     15  C   UNL     1     -10.024  -0.558 122.562  0.00  0.00    +0.000 C 
ATOM     16  C   UNL     1     -10.067   0.767 122.776  0.00  0.00    +0.000 C 
BRANCH  16  17
ATOM     17  C   UNL     1      -8.950   1.500 123.454  0.00  0.00    +0.000 C 
BRANCH  17  18
ATOM     18  C   UNL     1      -8.961   1.363 124.947  0.00  0.00    +0.000 C 
ATOM     19  C   UNL     1      -7.883   0.949 125.632  0.00  0.00    +0.000 C 
BRANCH  19  20
ATOM     20  C   UNL     1      -6.597   0.599 124.947  0.00  0.00    +0.000 C 
BRANCH  20  21
ATOM     21  C   UNL     1      -5.678  -0.236 125.782  0.00  0.00    +0.000 C 
ATOM     22  C   UNL     1      -5.222  -1.426 125.356  0.00  0.00    +0.000 C 
BRANCH  22  23
ATOM     23  C   UNL     1      -5.595  -2.009 124.022  0.00  0.00    +0.000 C 
ATOM     24  C   UNL     1      -5.316  -3.496 123.954  0.00  0.00    +0.000 C 
ENDBRANCH  22  23
ENDBRANCH  20  21
ENDBRANCH  19  20
ENDBRANCH  17  18
ENDBRANCH  16  17
ENDBRANCH  14  15
ENDBRANCH   2  14
TORSDOF 15
ENDMDL
