MODEL 1
REMARK VINA RESULT:      -9.3      0.000      0.000
REMARK  Name = Idarubicin
REMARK  10 active torsions:
REMARK  status: ('A' for Active; 'I' for Inactive)
REMARK    1  A    between atoms: C_1  and  C_2
REMARK    2  A    between atoms: C_4  and  O_10
REMARK    3  A    between atoms: C_6  and  N_7
REMARK    4  A    between atoms: C_8  and  O_9
REMARK    5  A    between atoms: O_10  and  C_11
REMARK    6  A    between atoms: C_13  and  O_14
REMARK    7  A    between atoms: C_13  and  C_34
REMARK    8  A    between atoms: C_18  and  O_19
REMARK    9  A    between atoms: C_32  and  O_33
REMARK   10  A    between atoms: C_34  and  C_35
REMARK                            x       y       z     vdW  Elec       q    Type
REMARK                         _______ _______ _______ _____ _____    ______ ____
ROOT
ATOM      1  C   UNL     1      -6.815   2.997 130.145  0.00  0.00    +0.000 C 
ATOM      2  C   UNL     1      -6.626   1.926 131.205  0.00  0.00    +0.000 C 
ATOM      3  C   UNL     1      -6.604   2.562 132.600  0.00  0.00    +0.000 C 
ATOM      4  C   UNL     1      -8.003   3.098 132.892  0.00  0.00    +0.000 C 
ATOM      5  C   UNL     1      -8.549   3.946 131.750  0.00  0.00    +0.000 A 
ATOM      6  C   UNL     1      -8.031   3.852 130.433  0.00  0.00    +0.000 A 
ATOM      7  C   UNL     1      -8.545   4.693 129.429  0.00  0.00    +0.000 A 
ATOM      8  C   UNL     1      -9.577   5.598 129.710  0.00  0.00    +0.000 A 
ATOM      9  C   UNL     1     -10.105   6.493 128.648  0.00  0.00    +0.000 C 
ATOM     10  O   UNL     1      -9.671   6.507 127.507  0.00  0.00    +0.000 OA
ATOM     11  C   UNL     1     -11.208   7.410 128.970  0.00  0.00    +0.000 A 
ATOM     12  C   UNL     1     -11.719   8.232 127.960  0.00  0.00    +0.000 A 
ATOM     13  C   UNL     1     -12.770   9.101 128.237  0.00  0.00    +0.000 A 
ATOM     14  C   UNL     1     -13.310   9.150 129.523  0.00  0.00    +0.000 A 
ATOM     15  C   UNL     1     -12.800   8.331 130.531  0.00  0.00    +0.000 A 
ATOM     16  C   UNL     1     -11.744   7.460 130.250  0.00  0.00    +0.000 A 
ATOM     17  C   UNL     1     -11.209   6.593 131.311  0.00  0.00    +0.000 C 
ATOM     18  O   UNL     1     -11.674   6.636 132.445  0.00  0.00    +0.000 OA
ATOM     19  C   UNL     1     -10.107   5.661 131.004  0.00  0.00    +0.000 A 
ATOM     20  C   UNL     1      -9.597   4.834 132.014  0.00  0.00    +0.000 A 
ENDROOT
BRANCH   3  21
ATOM     21  C   UNL     1      -6.216   1.491 133.622  0.00  0.00    +0.000 C 
ATOM     22  C   UNL     1      -5.110   1.827 134.591  0.00  0.00    +0.000 C 
ATOM     23  O   UNL     1      -6.788   0.399 133.667  0.00  0.00    +0.000 OA
ENDBRANCH   3  21
BRANCH   3  24
ATOM     24  O   UNL     1      -5.682   3.651 132.720  0.00  0.00    +0.000 OA
ATOM     25  H   UNL     1      -5.509   4.001 131.821  0.00  0.00    +0.000 HD
ENDBRANCH   3  24
BRANCH   7  26
ATOM     26  O   UNL     1      -8.029   4.657 128.161  0.00  0.00    +0.000 OA
ATOM     27  H   UNL     1      -8.343   5.382 127.604  0.00  0.00    +0.000 HD
ENDBRANCH   7  26
BRANCH  20  28
ATOM     28  O   UNL     1     -10.076   4.854 133.301  0.00  0.00    +0.000 OA
ATOM     29  H   UNL     1     -10.644   5.648 133.421  0.00  0.00    +0.000 HD
ENDBRANCH  20  28
BRANCH   1  30
ATOM     30  O   UNL     1      -5.795   3.997 130.142  0.00  0.00    +0.000 OA
BRANCH  30  34
ATOM     31  C   UNL     1      -4.688   4.020 125.952  0.00  0.00    +0.000 C 
ATOM     32  C   UNL     1      -4.448   2.881 126.950  0.00  0.00    +0.000 C 
ATOM     33  O   UNL     1      -5.300   3.015 128.086  0.00  0.00    +0.000 OA
ATOM     34  C   UNL     1      -4.962   4.054 128.994  0.00  0.00    +0.000 C 
ATOM     35  C   UNL     1      -3.529   3.887 129.508  0.00  0.00    +0.000 C 
ATOM     36  C   UNL     1      -2.537   3.805 128.352  0.00  0.00    +0.000 C 
ATOM     37  C   UNL     1      -2.992   2.676 127.402  0.00  0.00    +0.000 C 
BRANCH  36  38
ATOM     38  N   UNL     1      -2.428   5.128 127.714  0.00  0.00    +0.000 NA
ATOM     39  H   UNL     1      -3.298   5.396 127.265  0.00  0.00    +0.000 HD
ATOM     40  H   UNL     1      -1.720   5.131 126.987  0.00  0.00    +0.000 HD
ENDBRANCH  36  38
BRANCH  37  41
ATOM     41  O   UNL     1      -2.098   2.521 126.305  0.00  0.00    +0.000 OA
ATOM     42  H   UNL     1      -2.309   3.191 125.638  0.00  0.00    +0.000 HD
ENDBRANCH  37  41
ENDBRANCH  30  34
ENDBRANCH   1  30
TORSDOF 8
ENDMDL
MODEL 2
REMARK VINA RESULT:      -9.1      4.252      7.701
REMARK  Name = Idarubicin
REMARK  10 active torsions:
REMARK  status: ('A' for Active; 'I' for Inactive)
REMARK    1  A    between atoms: C_1  and  C_2
REMARK    2  A    between atoms: C_4  and  O_10
REMARK    3  A    between atoms: C_6  and  N_7
REMARK    4  A    between atoms: C_8  and  O_9
REMARK    5  A    between atoms: O_10  and  C_11
REMARK    6  A    between atoms: C_13  and  O_14
REMARK    7  A    between atoms: C_13  and  C_34
REMARK    8  A    between atoms: C_18  and  O_19
REMARK    9  A    between atoms: C_32  and  O_33
REMARK   10  A    between atoms: C_34  and  C_35
REMARK                            x       y       z     vdW  Elec       q    Type
REMARK                         _______ _______ _______ _____ _____    ______ ____
ROOT
ATOM      1  C   UNL     1      -8.057   3.138 129.779  0.00  0.00    +0.000 C 
ATOM      2  C   UNL     1      -7.384   3.151 131.141  0.00  0.00    +0.000 C 
ATOM      3  C   UNL     1      -7.943   2.023 132.016  0.00  0.00    +0.000 C 
ATOM      4  C   UNL     1      -7.486   0.696 131.415  0.00  0.00    +0.000 C 
ATOM      5  C   UNL     1      -7.757   0.613 129.918  0.00  0.00    +0.000 A 
ATOM      6  C   UNL     1      -7.963   1.773 129.129  0.00  0.00    +0.000 A 
ATOM      7  C   UNL     1      -8.254   1.633 127.760  0.00  0.00    +0.000 A 
ATOM      8  C   UNL     1      -8.314   0.365 127.166  0.00  0.00    +0.000 A 
ATOM      9  C   UNL     1      -8.636   0.223 125.723  0.00  0.00    +0.000 C 
ATOM     10  O   UNL     1      -8.879   1.173 124.994  0.00  0.00    +0.000 OA
ATOM     11  C   UNL     1      -8.663  -1.120 125.126  0.00  0.00    +0.000 A 
ATOM     12  C   UNL     1      -8.941  -1.246 123.760  0.00  0.00    +0.000 A 
ATOM     13  C   UNL     1      -8.962  -2.506 123.169  0.00  0.00    +0.000 A 
ATOM     14  C   UNL     1      -8.706  -3.639 123.941  0.00  0.00    +0.000 A 
ATOM     15  C   UNL     1      -8.430  -3.514 125.303  0.00  0.00    +0.000 A 
ATOM     16  C   UNL     1      -8.410  -2.248 125.895  0.00  0.00    +0.000 A 
ATOM     17  C   UNL     1      -8.115  -2.115 127.329  0.00  0.00    +0.000 C 
ATOM     18  O   UNL     1      -7.897  -3.108 128.015  0.00  0.00    +0.000 OA
ATOM     19  C   UNL     1      -8.076  -0.774 127.944  0.00  0.00    +0.000 A 
ATOM     20  C   UNL     1      -7.794  -0.646 129.311  0.00  0.00    +0.000 A 
ENDROOT
BRANCH   3  21
ATOM     21  C   UNL     1      -7.394   2.185 133.436  0.00  0.00    +0.000 C 
ATOM     22  C   UNL     1      -7.597   3.520 134.108  0.00  0.00    +0.000 C 
ATOM     23  O   UNL     1      -6.820   1.262 134.019  0.00  0.00    +0.000 OA
ENDBRANCH   3  21
BRANCH   3  24
ATOM     24  O   UNL     1      -9.373   2.005 132.087  0.00  0.00    +0.000 OA
ATOM     25  H   UNL     1      -9.670   2.876 132.420  0.00  0.00    +0.000 HD
ENDBRANCH   3  24
BRANCH   7  26
ATOM     26  O   UNL     1      -8.505   2.734 126.986  0.00  0.00    +0.000 OA
ATOM     27  H   UNL     1      -8.104   3.541 127.334  0.00  0.00    +0.000 HD
ENDBRANCH   7  26
BRANCH  20  28
ATOM     28  O   UNL     1      -7.555  -1.727 130.123  0.00  0.00    +0.000 OA
ATOM     29  H   UNL     1      -7.141  -1.417 130.960  0.00  0.00    +0.000 HD
ENDBRANCH  20  28
BRANCH   1  30
ATOM     30  O   UNL     1      -9.476   3.299 129.830  0.00  0.00    +0.000 OA
BRANCH  30  34
ATOM     31  C   UNL     1     -11.882   6.522 131.445  0.00  0.00    +0.000 C 
ATOM     32  C   UNL     1     -11.989   5.924 130.037  0.00  0.00    +0.000 C 
ATOM     33  O   UNL     1     -11.380   4.635 129.986  0.00  0.00    +0.000 OA
ATOM     34  C   UNL     1      -9.960   4.619 130.025  0.00  0.00    +0.000 C 
ATOM     35  C   UNL     1      -9.372   5.453 128.883  0.00  0.00    +0.000 C 
ATOM     36  C   UNL     1      -9.919   6.877 128.905  0.00  0.00    +0.000 C 
ATOM     37  C   UNL     1     -11.461   6.803 128.890  0.00  0.00    +0.000 C 
BRANCH  36  38
ATOM     38  N   UNL     1      -9.357   7.593 130.062  0.00  0.00    +0.000 NA
ATOM     39  H   UNL     1      -8.482   8.051 129.825  0.00  0.00    +0.000 HD
ATOM     40  H   UNL     1      -9.148   6.958 130.825  0.00  0.00    +0.000 HD
ENDBRANCH  36  38
BRANCH  37  41
ATOM     41  O   UNL     1     -12.048   8.100 128.884  0.00  0.00    +0.000 OA
ATOM     42  H   UNL     1     -11.345   8.758 128.981  0.00  0.00    +0.000 HD
ENDBRANCH  37  41
ENDBRANCH  30  34
ENDBRANCH   1  30
TORSDOF 8
ENDMDL
MODEL 3
REMARK VINA RESULT:      -8.8      4.546      7.863
REMARK  Name = Idarubicin
REMARK  10 active torsions:
REMARK  status: ('A' for Active; 'I' for Inactive)
REMARK    1  A    between atoms: C_1  and  C_2
REMARK    2  A    between atoms: C_4  and  O_10
REMARK    3  A    between atoms: C_6  and  N_7
REMARK    4  A    between atoms: C_8  and  O_9
REMARK    5  A    between atoms: O_10  and  C_11
REMARK    6  A    between atoms: C_13  and  O_14
REMARK    7  A    between atoms: C_13  and  C_34
REMARK    8  A    between atoms: C_18  and  O_19
REMARK    9  A    between atoms: C_32  and  O_33
REMARK   10  A    between atoms: C_34  and  C_35
REMARK                            x       y       z     vdW  Elec       q    Type
REMARK                         _______ _______ _______ _____ _____    ______ ____
ROOT
ATOM      1  C   UNL     1      -6.792   0.897 130.896  0.00  0.00    +0.000 C 
ATOM      2  C   UNL     1      -6.225   0.219 132.131  0.00  0.00    +0.000 C 
ATOM      3  C   UNL     1      -7.173  -0.885 132.610  0.00  0.00    +0.000 C 
ATOM      4  C   UNL     1      -7.160  -1.999 131.566  0.00  0.00    +0.000 C 
ATOM      5  C   UNL     1      -7.367  -1.469 130.152  0.00  0.00    +0.000 A 
ATOM      6  C   UNL     1      -7.130  -0.112 129.818  0.00  0.00    +0.000 A 
ATOM      7  C   UNL     1      -7.382   0.329 128.506  0.00  0.00    +0.000 A 
ATOM      8  C   UNL     1      -7.835  -0.563 127.524  0.00  0.00    +0.000 A 
ATOM      9  C   UNL     1      -8.112  -0.087 126.144  0.00  0.00    +0.000 C 
ATOM     10  O   UNL     1      -7.984   1.077 125.799  0.00  0.00    +0.000 OA
ATOM     11  C   UNL     1      -8.559  -1.054 125.132  0.00  0.00    +0.000 A 
ATOM     12  C   UNL     1      -8.794  -0.606 123.827  0.00  0.00    +0.000 A 
ATOM     13  C   UNL     1      -9.208  -1.505 122.848  0.00  0.00    +0.000 A 
ATOM     14  C   UNL     1      -9.388  -2.850 123.172  0.00  0.00    +0.000 A 
ATOM     15  C   UNL     1      -9.155  -3.297 124.473  0.00  0.00    +0.000 A 
ATOM     16  C   UNL     1      -8.740  -2.393 125.454  0.00  0.00    +0.000 A 
ATOM     17  C   UNL     1      -8.491  -2.864 126.825  0.00  0.00    +0.000 C 
ATOM     18  O   UNL     1      -8.654  -4.044 127.118  0.00  0.00    +0.000 OA
ATOM     19  C   UNL     1      -8.034  -1.908 127.853  0.00  0.00    +0.000 A 
ATOM     20  C   UNL     1      -7.795  -2.357 129.159  0.00  0.00    +0.000 A 
ENDROOT
BRANCH   3  21
ATOM     21  C   UNL     1      -6.675  -1.410 133.959  0.00  0.00    +0.000 C 
ATOM     22  C   UNL     1      -6.533  -2.904 134.110  0.00  0.00    +0.000 C 
ATOM     23  O   UNL     1      -6.388  -0.649 134.886  0.00  0.00    +0.000 OA
ENDBRANCH   3  21
BRANCH   3  24
ATOM     24  O   UNL     1      -8.528  -0.449 132.771  0.00  0.00    +0.000 OA
ATOM     25  H   UNL     1      -8.757   0.113 132.003  0.00  0.00    +0.000 HD
ENDBRANCH   3  24
BRANCH   7  26
ATOM     26  O   UNL     1      -7.208   1.645 128.169  0.00  0.00    +0.000 OA
ATOM     27  H   UNL     1      -7.949   2.205 128.434  0.00  0.00    +0.000 HD
ENDBRANCH   7  26
BRANCH  20  28
ATOM     28  O   UNL     1      -7.975  -3.664 129.538  0.00  0.00    +0.000 OA
ATOM     29  H   UNL     1      -8.175  -3.696 130.501  0.00  0.00    +0.000 HD
ENDBRANCH  20  28
BRANCH   1  30
ATOM     30  O   UNL     1      -8.075   1.493 131.098  0.00  0.00    +0.000 OA
BRANCH  30  34
ATOM     31  C   UNL     1      -8.050   4.212 134.473  0.00  0.00    +0.000 C 
ATOM     32  C   UNL     1      -9.253   3.878 133.584  0.00  0.00    +0.000 C 
ATOM     33  O   UNL     1      -9.035   2.659 132.874  0.00  0.00    +0.000 OA
ATOM     34  C   UNL     1      -8.100   2.723 131.806  0.00  0.00    +0.000 C 
ATOM     35  C   UNL     1      -8.510   3.787 130.783  0.00  0.00    +0.000 C 
ATOM     36  C   UNL     1      -8.697   5.146 131.450  0.00  0.00    +0.000 C 
ATOM     37  C   UNL     1      -9.700   4.982 132.611  0.00  0.00    +0.000 C 
BRANCH  36  38
ATOM     38  N   UNL     1      -7.381   5.671 131.853  0.00  0.00    +0.000 NA
ATOM     39  H   UNL     1      -7.463   6.592 132.273  0.00  0.00    +0.000 HD
ATOM     40  H   UNL     1      -6.764   5.777 131.055  0.00  0.00    +0.000 HD
ENDBRANCH  36  38
BRANCH  37  41
ATOM     41  O   UNL     1      -9.947   6.220 133.270  0.00  0.00    +0.000 OA
ATOM     42  H   UNL     1      -9.111   6.703 133.344  0.00  0.00    +0.000 HD
ENDBRANCH  37  41
ENDBRANCH  30  34
ENDBRANCH   1  30
TORSDOF 8
ENDMDL
MODEL 4
REMARK VINA RESULT:      -8.8      4.860      7.583
REMARK  Name = Idarubicin
REMARK  10 active torsions:
REMARK  status: ('A' for Active; 'I' for Inactive)
REMARK    1  A    between atoms: C_1  and  C_2
REMARK    2  A    between atoms: C_4  and  O_10
REMARK    3  A    between atoms: C_6  and  N_7
REMARK    4  A    between atoms: C_8  and  O_9
REMARK    5  A    between atoms: O_10  and  C_11
REMARK    6  A    between atoms: C_13  and  O_14
REMARK    7  A    between atoms: C_13  and  C_34
REMARK    8  A    between atoms: C_18  and  O_19
REMARK    9  A    between atoms: C_32  and  O_33
REMARK   10  A    between atoms: C_34  and  C_35
REMARK                            x       y       z     vdW  Elec       q    Type
REMARK                         _______ _______ _______ _____ _____    ______ ____
ROOT
ATOM      1  C   UNL     1      -7.574   0.973 125.400  0.00  0.00    +0.000 C 
ATOM      2  C   UNL     1      -7.132   1.638 124.107  0.00  0.00    +0.000 C 
ATOM      3  C   UNL     1      -8.104   2.761 123.731  0.00  0.00    +0.000 C 
ATOM      4  C   UNL     1      -7.952   3.875 124.764  0.00  0.00    +0.000 C 
ATOM      5  C   UNL     1      -8.013   3.352 126.194  0.00  0.00    +0.000 A 
ATOM      6  C   UNL     1      -7.770   1.990 126.505  0.00  0.00    +0.000 A 
ATOM      7  C   UNL     1      -7.885   1.556 127.838  0.00  0.00    +0.000 A 
ATOM      8  C   UNL     1      -8.208   2.459 128.860  0.00  0.00    +0.000 A 
ATOM      9  C   UNL     1      -8.342   1.990 130.264  0.00  0.00    +0.000 C 
ATOM     10  O   UNL     1      -8.201   0.824 130.597  0.00  0.00    +0.000 OA
ATOM     11  C   UNL     1      -8.654   2.968 131.316  0.00  0.00    +0.000 A 
ATOM     12  C   UNL     1      -8.753   2.526 132.640  0.00  0.00    +0.000 A 
ATOM     13  C   UNL     1      -9.037   3.435 133.656  0.00  0.00    +0.000 A 
ATOM     14  C   UNL     1      -9.223   4.783 133.350  0.00  0.00    +0.000 A 
ATOM     15  C   UNL     1      -9.125   5.224 132.029  0.00  0.00    +0.000 A 
ATOM     16  C   UNL     1      -8.840   4.310 131.011  0.00  0.00    +0.000 A 
ATOM     17  C   UNL     1      -8.734   4.775 129.619  0.00  0.00    +0.000 C 
ATOM     18  O   UNL     1      -8.903   5.957 129.343  0.00  0.00    +0.000 OA
ATOM     19  C   UNL     1      -8.413   3.808 128.551  0.00  0.00    +0.000 A 
ATOM     20  C   UNL     1      -8.310   4.250 127.225  0.00  0.00    +0.000 A 
ENDROOT
BRANCH   3  21
ATOM     21  C   UNL     1      -7.747   3.274 122.334  0.00  0.00    +0.000 C 
ATOM     22  C   UNL     1      -6.286   3.499 122.032  0.00  0.00    +0.000 C 
ATOM     23  O   UNL     1      -8.611   3.486 121.480  0.00  0.00    +0.000 OA
ENDBRANCH   3  21
BRANCH   3  24
ATOM     24  O   UNL     1      -9.477   2.354 123.722  0.00  0.00    +0.000 OA
ATOM     25  H   UNL     1      -9.542   1.500 124.195  0.00  0.00    +0.000 HD
ENDBRANCH   3  24
BRANCH   7  26
ATOM     26  O   UNL     1      -7.703   0.237 128.158  0.00  0.00    +0.000 OA
ATOM     27  H   UNL     1      -7.226  -0.255 127.477  0.00  0.00    +0.000 HD
ENDBRANCH   7  26
BRANCH  20  28
ATOM     28  O   UNL     1      -8.503   5.560 126.863  0.00  0.00    +0.000 OA
ATOM     29  H   UNL     1      -8.832   6.065 127.641  0.00  0.00    +0.000 HD
ENDBRANCH  20  28
BRANCH   1  30
ATOM     30  O   UNL     1      -8.884   0.405 125.341  0.00  0.00    +0.000 OA
BRANCH  30  34
ATOM     31  C   UNL     1      -9.055  -3.672 126.802  0.00  0.00    +0.000 C 
ATOM     32  C   UNL     1      -7.863  -3.005 126.104  0.00  0.00    +0.000 C 
ATOM     33  O   UNL     1      -7.978  -1.584 126.154  0.00  0.00    +0.000 OA
ATOM     34  C   UNL     1      -8.962  -1.012 125.303  0.00  0.00    +0.000 C 
ATOM     35  C   UNL     1      -8.719  -1.405 123.843  0.00  0.00    +0.000 C 
ATOM     36  C   UNL     1      -8.653  -2.921 123.687  0.00  0.00    +0.000 C 
ATOM     37  C   UNL     1      -7.585  -3.463 124.662  0.00  0.00    +0.000 C 
BRANCH  36  38
ATOM     38  N   UNL     1      -9.998  -3.487 123.884  0.00  0.00    +0.000 NA
ATOM     39  H   UNL     1     -10.029  -4.094 124.697  0.00  0.00    +0.000 HD
ATOM     40  H   UNL     1     -10.280  -4.056 123.093  0.00  0.00    +0.000 HD
ENDBRANCH  36  38
BRANCH  37  41
ATOM     41  O   UNL     1      -7.447  -4.876 124.557  0.00  0.00    +0.000 OA
ATOM     42  H   UNL     1      -8.205  -5.294 124.991  0.00  0.00    +0.000 HD
ENDBRANCH  37  41
ENDBRANCH  30  34
ENDBRANCH   1  30
TORSDOF 8
ENDMDL
MODEL 5
REMARK VINA RESULT:      -8.6      5.670      8.583
REMARK  Name = Idarubicin
REMARK  10 active torsions:
REMARK  status: ('A' for Active; 'I' for Inactive)
REMARK    1  A    between atoms: C_1  and  C_2
REMARK    2  A    between atoms: C_4  and  O_10
REMARK    3  A    between atoms: C_6  and  N_7
REMARK    4  A    between atoms: C_8  and  O_9
REMARK    5  A    between atoms: O_10  and  C_11
REMARK    6  A    between atoms: C_13  and  O_14
REMARK    7  A    between atoms: C_13  and  C_34
REMARK    8  A    between atoms: C_18  and  O_19
REMARK    9  A    between atoms: C_32  and  O_33
REMARK   10  A    between atoms: C_34  and  C_35
REMARK                            x       y       z     vdW  Elec       q    Type
REMARK                         _______ _______ _______ _____ _____    ______ ____
ROOT
ATOM      1  C   UNL     1      -6.345   1.222 124.831  0.00  0.00    +0.000 C 
ATOM      2  C   UNL     1      -6.558   1.694 123.402  0.00  0.00    +0.000 C 
ATOM      3  C   UNL     1      -7.358   3.002 123.393  0.00  0.00    +0.000 C 
ATOM      4  C   UNL     1      -6.476   4.094 123.993  0.00  0.00    +0.000 C 
ATOM      5  C   UNL     1      -5.850   3.672 125.316  0.00  0.00    +0.000 A 
ATOM      6  C   UNL     1      -5.727   2.308 125.686  0.00  0.00    +0.000 A 
ATOM      7  C   UNL     1      -5.182   1.981 126.940  0.00  0.00    +0.000 A 
ATOM      8  C   UNL     1      -4.734   2.983 127.812  0.00  0.00    +0.000 A 
ATOM      9  C   UNL     1      -4.172   2.631 129.141  0.00  0.00    +0.000 C 
ATOM     10  O   UNL     1      -4.087   1.483 129.549  0.00  0.00    +0.000 OA
ATOM     11  C   UNL     1      -3.686   3.705 130.018  0.00  0.00    +0.000 A 
ATOM     12  C   UNL     1      -3.133   3.366 131.258  0.00  0.00    +0.000 A 
ATOM     13  C   UNL     1      -2.656   4.365 132.102  0.00  0.00    +0.000 A 
ATOM     14  C   UNL     1      -2.731   5.701 131.709  0.00  0.00    +0.000 A 
ATOM     15  C   UNL     1      -3.284   6.040 130.473  0.00  0.00    +0.000 A 
ATOM     16  C   UNL     1      -3.762   5.036 129.627  0.00  0.00    +0.000 A 
ATOM     17  C   UNL     1      -4.341   5.392 128.322  0.00  0.00    +0.000 C 
ATOM     18  O   UNL     1      -4.416   6.565 127.974  0.00  0.00    +0.000 OA
ATOM     19  C   UNL     1      -4.827   4.325 127.425  0.00  0.00    +0.000 A 
ATOM     20  C   UNL     1      -5.377   4.663 126.181  0.00  0.00    +0.000 A 
ENDROOT
BRANCH   3  21
ATOM     21  C   UNL     1      -7.724   3.343 121.946  0.00  0.00    +0.000 C 
ATOM     22  C   UNL     1      -6.596   3.709 121.015  0.00  0.00    +0.000 C 
ATOM     23  O   UNL     1      -8.891   3.311 121.548  0.00  0.00    +0.000 OA
ENDBRANCH   3  21
BRANCH   3  24
ATOM     24  O   UNL     1      -8.566   2.942 124.160  0.00  0.00    +0.000 OA
ATOM     25  H   UNL     1      -9.171   2.308 123.722  0.00  0.00    +0.000 HD
ENDBRANCH   3  24
BRANCH   7  26
ATOM     26  O   UNL     1      -5.097   0.675 127.342  0.00  0.00    +0.000 OA
ATOM     27  H   UNL     1      -5.160   0.048 126.610  0.00  0.00    +0.000 HD
ENDBRANCH   7  26
BRANCH  20  28
ATOM     28  O   UNL     1      -5.495   5.962 125.752  0.00  0.00    +0.000 OA
ATOM     29  H   UNL     1      -5.256   6.569 126.489  0.00  0.00    +0.000 HD
ENDBRANCH  20  28
BRANCH   1  30
ATOM     30  O   UNL     1      -7.556   0.987 125.551  0.00  0.00    +0.000 OA
BRANCH  30  34
ATOM     31  C   UNL     1      -7.593  -2.923 127.418  0.00  0.00    +0.000 C 
ATOM     32  C   UNL     1      -6.961  -2.567 126.068  0.00  0.00    +0.000 C 
ATOM     33  O   UNL     1      -6.747  -1.160 125.965  0.00  0.00    +0.000 OA
ATOM     34  C   UNL     1      -7.912  -0.368 125.775  0.00  0.00    +0.000 C 
ATOM     35  C   UNL     1      -8.677  -0.812 124.525  0.00  0.00    +0.000 C 
ATOM     36  C   UNL     1      -9.012  -2.299 124.585  0.00  0.00    +0.000 C 
ATOM     37  C   UNL     1      -7.701  -3.081 124.821  0.00  0.00    +0.000 C 
BRANCH  36  38
ATOM     38  N   UNL     1     -10.044  -2.522 125.611  0.00  0.00    +0.000 NA
ATOM     39  H   UNL     1      -9.696  -3.102 126.368  0.00  0.00    +0.000 HD
ATOM     40  H   UNL     1     -10.849  -3.007 125.228  0.00  0.00    +0.000 HD
ENDBRANCH  36  38
BRANCH  37  41
ATOM     41  O   UNL     1      -7.929  -4.486 124.864  0.00  0.00    +0.000 OA
ATOM     42  H   UNL     1      -8.847  -4.658 124.608  0.00  0.00    +0.000 HD
ENDBRANCH  37  41
ENDBRANCH  30  34
ENDBRANCH   1  30
TORSDOF 8
ENDMDL
MODEL 6
REMARK VINA RESULT:      -8.3      4.575      8.183
REMARK  Name = Idarubicin
REMARK  10 active torsions:
REMARK  status: ('A' for Active; 'I' for Inactive)
REMARK    1  A    between atoms: C_1  and  C_2
REMARK    2  A    between atoms: C_4  and  O_10
REMARK    3  A    between atoms: C_6  and  N_7
REMARK    4  A    between atoms: C_8  and  O_9
REMARK    5  A    between atoms: O_10  and  C_11
REMARK    6  A    between atoms: C_13  and  O_14
REMARK    7  A    between atoms: C_13  and  C_34
REMARK    8  A    between atoms: C_18  and  O_19
REMARK    9  A    between atoms: C_32  and  O_33
REMARK   10  A    between atoms: C_34  and  C_35
REMARK                            x       y       z     vdW  Elec       q    Type
REMARK                         _______ _______ _______ _____ _____    ______ ____
ROOT
ATOM      1  C   UNL     1      -8.343  -0.159 126.426  0.00  0.00    +0.000 C 
ATOM      2  C   UNL     1      -8.898  -1.307 125.600  0.00  0.00    +0.000 C 
ATOM      3  C   UNL     1      -7.933  -2.497 125.633  0.00  0.00    +0.000 C 
ATOM      4  C   UNL     1      -7.932  -3.059 127.052  0.00  0.00    +0.000 C 
ATOM      5  C   UNL     1      -7.735  -1.975 128.105  0.00  0.00    +0.000 A 
ATOM      6  C   UNL     1      -7.992  -0.608 127.830  0.00  0.00    +0.000 A 
ATOM      7  C   UNL     1      -7.748   0.353 128.827  0.00  0.00    +0.000 A 
ATOM      8  C   UNL     1      -7.284  -0.029 130.093  0.00  0.00    +0.000 A 
ATOM      9  C   UNL     1      -7.016   0.994 131.137  0.00  0.00    +0.000 C 
ATOM     10  O   UNL     1      -7.161   2.192 130.955  0.00  0.00    +0.000 OA
ATOM     11  C   UNL     1      -6.557   0.556 132.463  0.00  0.00    +0.000 A 
ATOM     12  C   UNL     1      -6.330   1.520 133.452  0.00  0.00    +0.000 A 
ATOM     13  C   UNL     1      -5.905   1.130 134.718  0.00  0.00    +0.000 A 
ATOM     14  C   UNL     1      -5.705  -0.222 134.998  0.00  0.00    +0.000 A 
ATOM     15  C   UNL     1      -5.930  -1.184 134.012  0.00  0.00    +0.000 A 
ATOM     16  C   UNL     1      -6.356  -0.790 132.741  0.00  0.00    +0.000 A 
ATOM     17  C   UNL     1      -6.596  -1.804 131.703  0.00  0.00    +0.000 C 
ATOM     18  O   UNL     1      -6.416  -2.994 131.940  0.00  0.00    +0.000 OA
ATOM     19  C   UNL     1      -7.065  -1.383 130.368  0.00  0.00    +0.000 A 
ATOM     20  C   UNL     1      -7.296  -2.349 129.379  0.00  0.00    +0.000 A 
ENDROOT
BRANCH   3  21
ATOM     21  C   UNL     1      -8.422  -3.553 124.638  0.00  0.00    +0.000 C 
ATOM     22  C   UNL     1      -9.441  -3.121 123.615  0.00  0.00    +0.000 C 
ATOM     23  O   UNL     1      -7.995  -4.711 124.659  0.00  0.00    +0.000 OA
ENDBRANCH   3  21
BRANCH   3  24
ATOM     24  O   UNL     1      -6.585  -2.152 125.295  0.00  0.00    +0.000 OA
ATOM     25  H   UNL     1      -6.482  -2.250 124.326  0.00  0.00    +0.000 HD
ENDBRANCH   3  24
BRANCH   7  26
ATOM     26  O   UNL     1      -7.942   1.685 128.572  0.00  0.00    +0.000 OA
ATOM     27  H   UNL     1      -7.747   2.248 129.332  0.00  0.00    +0.000 HD
ENDBRANCH   7  26
BRANCH  20  28
ATOM     28  O   UNL     1      -7.096  -3.691 129.592  0.00  0.00    +0.000 OA
ATOM     29  H   UNL     1      -6.903  -4.129 128.732  0.00  0.00    +0.000 HD
ENDBRANCH  20  28
BRANCH   1  30
ATOM     30  O   UNL     1      -7.069   0.311 125.983  0.00  0.00    +0.000 OA
BRANCH  30  34
ATOM     31  C   UNL     1      -5.439   4.084 124.608  0.00  0.00    +0.000 C 
ATOM     32  C   UNL     1      -6.355   3.877 125.820  0.00  0.00    +0.000 C 
ATOM     33  O   UNL     1      -6.344   2.513 126.236  0.00  0.00    +0.000 OA
ATOM     34  C   UNL     1      -7.036   1.602 125.394  0.00  0.00    +0.000 C 
ATOM     35  C   UNL     1      -8.500   2.020 125.222  0.00  0.00    +0.000 C 
ATOM     36  C   UNL     1      -8.604   3.453 124.708  0.00  0.00    +0.000 C 
ATOM     37  C   UNL     1      -7.804   4.368 125.660  0.00  0.00    +0.000 C 
BRANCH  36  38
ATOM     38  N   UNL     1      -8.158   3.498 123.306  0.00  0.00    +0.000 NA
ATOM     39  H   UNL     1      -8.285   2.601 122.848  0.00  0.00    +0.000 HD
ATOM     40  H   UNL     1      -7.169   3.714 123.238  0.00  0.00    +0.000 HD
ENDBRANCH  36  38
BRANCH  37  41
ATOM     41  O   UNL     1      -7.875   5.732 125.259  0.00  0.00    +0.000 OA
ATOM     42  H   UNL     1      -7.675   5.787 124.313  0.00  0.00    +0.000 HD
ENDBRANCH  37  41
ENDBRANCH  30  34
ENDBRANCH   1  30
TORSDOF 8
ENDMDL
MODEL 7
REMARK VINA RESULT:      -8.2      4.241      8.264
REMARK  Name = Idarubicin
REMARK  10 active torsions:
REMARK  status: ('A' for Active; 'I' for Inactive)
REMARK    1  A    between atoms: C_1  and  C_2
REMARK    2  A    between atoms: C_4  and  O_10
REMARK    3  A    between atoms: C_6  and  N_7
REMARK    4  A    between atoms: C_8  and  O_9
REMARK    5  A    between atoms: O_10  and  C_11
REMARK    6  A    between atoms: C_13  and  O_14
REMARK    7  A    between atoms: C_13  and  C_34
REMARK    8  A    between atoms: C_18  and  O_19
REMARK    9  A    between atoms: C_32  and  O_33
REMARK   10  A    between atoms: C_34  and  C_35
REMARK                            x       y       z     vdW  Elec       q    Type
REMARK                         _______ _______ _______ _____ _____    ______ ____
ROOT
ATOM      1  C   UNL     1      -7.269   2.317 128.295  0.00  0.00    +0.000 C 
ATOM      2  C   UNL     1      -7.485   3.745 128.767  0.00  0.00    +0.000 C 
ATOM      3  C   UNL     1      -8.634   3.798 129.780  0.00  0.00    +0.000 C 
ATOM      4  C   UNL     1      -8.175   3.079 131.046  0.00  0.00    +0.000 C 
ATOM      5  C   UNL     1      -7.572   1.712 130.750  0.00  0.00    +0.000 A 
ATOM      6  C   UNL     1      -7.083   1.371 129.463  0.00  0.00    +0.000 A 
ATOM      7  C   UNL     1      -6.579   0.077 129.237  0.00  0.00    +0.000 A 
ATOM      8  C   UNL     1      -6.530  -0.864 130.274  0.00  0.00    +0.000 A 
ATOM      9  C   UNL     1      -6.009  -2.233 130.025  0.00  0.00    +0.000 C 
ATOM     10  O   UNL     1      -5.623  -2.614 128.931  0.00  0.00    +0.000 OA
ATOM     11  C   UNL     1      -5.946  -3.187 131.142  0.00  0.00    +0.000 A 
ATOM     12  C   UNL     1      -5.431  -4.467 130.908  0.00  0.00    +0.000 A 
ATOM     13  C   UNL     1      -5.350  -5.384 131.952  0.00  0.00    +0.000 A 
ATOM     14  C   UNL     1      -5.785  -5.025 133.227  0.00  0.00    +0.000 A 
ATOM     15  C   UNL     1      -6.300  -3.749 133.461  0.00  0.00    +0.000 A 
ATOM     16  C   UNL     1      -6.380  -2.829 132.412  0.00  0.00    +0.000 A 
ATOM     17  C   UNL     1      -6.919  -1.483 132.658  0.00  0.00    +0.000 C 
ATOM     18  O   UNL     1      -7.309  -1.163 133.776  0.00  0.00    +0.000 OA
ATOM     19  C   UNL     1      -6.983  -0.510 131.550  0.00  0.00    +0.000 A 
ATOM     20  C   UNL     1      -7.496   0.774 131.784  0.00  0.00    +0.000 A 
ENDROOT
BRANCH   3  21
ATOM     21  C   UNL     1      -8.955   5.264 130.083  0.00  0.00    +0.000 C 
ATOM     22  C   UNL     1      -9.069   5.662 131.533  0.00  0.00    +0.000 C 
ATOM     23  O   UNL     1      -9.103   6.095 129.184  0.00  0.00    +0.000 OA
ENDBRANCH   3  21
BRANCH   3  24
ATOM     24  O   UNL     1      -9.833   3.162 129.323  0.00  0.00    +0.000 OA
ATOM     25  H   UNL     1      -9.673   2.196 129.303  0.00  0.00    +0.000 HD
ENDBRANCH   3  24
BRANCH   7  26
ATOM     26  O   UNL     1      -6.145  -0.293 127.992  0.00  0.00    +0.000 OA
ATOM     27  H   UNL     1      -5.832   0.453 127.464  0.00  0.00    +0.000 HD
ENDBRANCH   7  26
BRANCH  20  28
ATOM     28  O   UNL     1      -7.956   1.175 133.014  0.00  0.00    +0.000 OA
ATOM     29  H   UNL     1      -8.936   1.259 132.980  0.00  0.00    +0.000 HD
ENDBRANCH  20  28
BRANCH   1  30
ATOM     30  O   UNL     1      -8.415   1.732 127.674  0.00  0.00    +0.000 OA
BRANCH  30  34
ATOM     31  C   UNL     1      -7.759   2.689 123.498  0.00  0.00    +0.000 C 
ATOM     32  C   UNL     1      -9.116   2.488 124.182  0.00  0.00    +0.000 C 
ATOM     33  O   UNL     1      -8.994   2.621 125.598  0.00  0.00    +0.000 OA
ATOM     34  C   UNL     1      -8.352   1.546 126.268  0.00  0.00    +0.000 C 
ATOM     35  C   UNL     1      -9.067   0.221 125.988  0.00  0.00    +0.000 C 
ATOM     36  C   UNL     1      -9.179  -0.037 124.489  0.00  0.00    +0.000 C 
ATOM     37  C   UNL     1      -9.858   1.186 123.836  0.00  0.00    +0.000 C 
BRANCH  36  38
ATOM     38  N   UNL     1      -7.844  -0.348 123.951  0.00  0.00    +0.000 NA
ATOM     39  H   UNL     1      -7.110   0.050 124.528  0.00  0.00    +0.000 HD
ATOM     40  H   UNL     1      -7.718   0.042 123.023  0.00  0.00    +0.000 HD
ENDBRANCH  36  38
BRANCH  37  41
ATOM     41  O   UNL     1     -10.021   1.009 122.433  0.00  0.00    +0.000 OA
ATOM     42  H   UNL     1      -9.156   0.815 122.043  0.00  0.00    +0.000 HD
ENDBRANCH  37  41
ENDBRANCH  30  34
ENDBRANCH   1  30
TORSDOF 8
ENDMDL
MODEL 8
REMARK VINA RESULT:      -8.2      3.426      8.090
REMARK  Name = Idarubicin
REMARK  10 active torsions:
REMARK  status: ('A' for Active; 'I' for Inactive)
REMARK    1  A    between atoms: C_1  and  C_2
REMARK    2  A    between atoms: C_4  and  O_10
REMARK    3  A    between atoms: C_6  and  N_7
REMARK    4  A    between atoms: C_8  and  O_9
REMARK    5  A    between atoms: O_10  and  C_11
REMARK    6  A    between atoms: C_13  and  O_14
REMARK    7  A    between atoms: C_13  and  C_34
REMARK    8  A    between atoms: C_18  and  O_19
REMARK    9  A    between atoms: C_32  and  O_33
REMARK   10  A    between atoms: C_34  and  C_35
REMARK                            x       y       z     vdW  Elec       q    Type
REMARK                         _______ _______ _______ _____ _____    ______ ____
ROOT
ATOM      1  C   UNL     1      -6.880   3.908 128.769  0.00  0.00    +0.000 C 
ATOM      2  C   UNL     1      -6.673   3.055 127.529  0.00  0.00    +0.000 C 
ATOM      3  C   UNL     1      -5.880   3.838 126.476  0.00  0.00    +0.000 C 
ATOM      4  C   UNL     1      -4.461   4.029 127.008  0.00  0.00    +0.000 C 
ATOM      5  C   UNL     1      -4.444   4.567 128.433  0.00  0.00    +0.000 A 
ATOM      6  C   UNL     1      -5.567   4.452 129.291  0.00  0.00    +0.000 A 
ATOM      7  C   UNL     1      -5.508   5.008 130.582  0.00  0.00    +0.000 A 
ATOM      8  C   UNL     1      -4.345   5.646 131.035  0.00  0.00    +0.000 A 
ATOM      9  C   UNL     1      -4.295   6.243 132.395  0.00  0.00    +0.000 C 
ATOM     10  O   UNL     1      -5.241   6.232 133.167  0.00  0.00    +0.000 OA
ATOM     11  C   UNL     1      -3.051   6.880 132.849  0.00  0.00    +0.000 A 
ATOM     12  C   UNL     1      -3.000   7.418 134.140  0.00  0.00    +0.000 A 
ATOM     13  C   UNL     1      -1.829   8.017 134.597  0.00  0.00    +0.000 A 
ATOM     14  C   UNL     1      -0.711   8.079 133.766  0.00  0.00    +0.000 A 
ATOM     15  C   UNL     1      -0.762   7.544 132.478  0.00  0.00    +0.000 A 
ATOM     16  C   UNL     1      -1.937   6.944 132.021  0.00  0.00    +0.000 A 
ATOM     17  C   UNL     1      -1.990   6.376 130.665  0.00  0.00    +0.000 C 
ATOM     18  O   UNL     1      -1.012   6.434 129.927  0.00  0.00    +0.000 OA
ATOM     19  C   UNL     1      -3.229   5.726 130.195  0.00  0.00    +0.000 A 
ATOM     20  C   UNL     1      -3.280   5.183 128.904  0.00  0.00    +0.000 A 
ENDROOT
BRANCH   3  21
ATOM     21  C   UNL     1      -5.860   3.031 125.176  0.00  0.00    +0.000 C 
ATOM     22  C   UNL     1      -5.736   3.802 123.885  0.00  0.00    +0.000 C 
ATOM     23  O   UNL     1      -5.930   1.799 125.174  0.00  0.00    +0.000 OA
ENDBRANCH   3  21
BRANCH   3  24
ATOM     24  O   UNL     1      -6.422   5.133 126.193  0.00  0.00    +0.000 OA
ATOM     25  H   UNL     1      -7.172   5.286 126.804  0.00  0.00    +0.000 HD
ENDBRANCH   3  24
BRANCH   7  26
ATOM     26  O   UNL     1      -6.595   4.954 131.413  0.00  0.00    +0.000 OA
ATOM     27  H   UNL     1      -7.293   5.574 131.164  0.00  0.00    +0.000 HD
ENDBRANCH   7  26
BRANCH  20  28
ATOM     28  O   UNL     1      -2.217   5.234 128.036  0.00  0.00    +0.000 OA
ATOM     29  H   UNL     1      -1.946   6.172 127.913  0.00  0.00    +0.000 HD
ENDBRANCH  20  28
BRANCH   1  30
ATOM     30  O   UNL     1      -7.582   5.128 128.524  0.00  0.00    +0.000 OA
BRANCH  30  34
ATOM     31  C   UNL     1     -11.053   7.179 130.115  0.00  0.00    +0.000 C 
ATOM     32  C   UNL     1      -9.827   6.715 130.910  0.00  0.00    +0.000 C 
ATOM     33  O   UNL     1      -8.718   6.484 130.042  0.00  0.00    +0.000 OA
ATOM     34  C   UNL     1      -8.796   5.318 129.234  0.00  0.00    +0.000 C 
ATOM     35  C   UNL     1      -8.976   4.066 130.098  0.00  0.00    +0.000 C 
ATOM     36  C   UNL     1     -10.190   4.199 131.012  0.00  0.00    +0.000 C 
ATOM     37  C   UNL     1     -10.040   5.501 131.829  0.00  0.00    +0.000 C 
BRANCH  36  38
ATOM     38  N   UNL     1     -11.417   4.130 130.200  0.00  0.00    +0.000 NA
ATOM     39  H   UNL     1     -11.969   4.977 130.289  0.00  0.00    +0.000 HD
ATOM     40  H   UNL     1     -12.016   3.368 130.499  0.00  0.00    +0.000 HD
ENDBRANCH  36  38
BRANCH  37  41
ATOM     41  O   UNL     1     -11.128   5.683 132.729  0.00  0.00    +0.000 OA
ATOM     42  H   UNL     1     -11.918   5.910 132.216  0.00  0.00    +0.000 HD
ENDBRANCH  37  41
ENDBRANCH  30  34
ENDBRANCH   1  30
TORSDOF 8
ENDMDL
MODEL 9
REMARK VINA RESULT:      -8.1      4.005      9.218
REMARK  Name = Idarubicin
REMARK  10 active torsions:
REMARK  status: ('A' for Active; 'I' for Inactive)
REMARK    1  A    between atoms: C_1  and  C_2
REMARK    2  A    between atoms: C_4  and  O_10
REMARK    3  A    between atoms: C_6  and  N_7
REMARK    4  A    between atoms: C_8  and  O_9
REMARK    5  A    between atoms: O_10  and  C_11
REMARK    6  A    between atoms: C_13  and  O_14
REMARK    7  A    between atoms: C_13  and  C_34
REMARK    8  A    between atoms: C_18  and  O_19
REMARK    9  A    between atoms: C_32  and  O_33
REMARK   10  A    between atoms: C_34  and  C_35
REMARK                            x       y       z     vdW  Elec       q    Type
REMARK                         _______ _______ _______ _____ _____    ______ ____
ROOT
ATOM      1  C   UNL     1      -8.500   1.718 129.065  0.00  0.00    +0.000 C 
ATOM      2  C   UNL     1      -8.484   2.023 127.576  0.00  0.00    +0.000 C 
ATOM      3  C   UNL     1      -7.058   1.901 127.027  0.00  0.00    +0.000 C 
ATOM      4  C   UNL     1      -6.659   0.429 127.085  0.00  0.00    +0.000 C 
ATOM      5  C   UNL     1      -6.935  -0.193 128.448  0.00  0.00    +0.000 A 
ATOM      6  C   UNL     1      -7.856   0.380 129.362  0.00  0.00    +0.000 A 
ATOM      7  C   UNL     1      -8.035  -0.214 130.624  0.00  0.00    +0.000 A 
ATOM      8  C   UNL     1      -7.337  -1.377 130.975  0.00  0.00    +0.000 A 
ATOM      9  C   UNL     1      -7.521  -1.991 132.315  0.00  0.00    +0.000 C 
ATOM     10  O   UNL     1      -8.254  -1.522 133.172  0.00  0.00    +0.000 OA
ATOM     11  C   UNL     1      -6.795  -3.227 132.640  0.00  0.00    +0.000 A 
ATOM     12  C   UNL     1      -6.992  -3.816 133.894  0.00  0.00    +0.000 A 
ATOM     13  C   UNL     1      -6.324  -4.993 134.221  0.00  0.00    +0.000 A 
ATOM     14  C   UNL     1      -5.460  -5.581 133.297  0.00  0.00    +0.000 A 
ATOM     15  C   UNL     1      -5.262  -4.993 132.047  0.00  0.00    +0.000 A 
ATOM     16  C   UNL     1      -5.933  -3.812 131.721  0.00  0.00    +0.000 A 
ATOM     17  C   UNL     1      -5.729  -3.195 130.401  0.00  0.00    +0.000 C 
ATOM     18  O   UNL     1      -4.965  -3.702 129.588  0.00  0.00    +0.000 OA
ATOM     19  C   UNL     1      -6.456  -1.957 130.055  0.00  0.00    +0.000 A 
ATOM     20  C   UNL     1      -6.262  -1.369 128.798  0.00  0.00    +0.000 A 
ENDROOT
BRANCH   3  21
ATOM     21  C   UNL     1      -7.044   2.404 125.582  0.00  0.00    +0.000 C 
ATOM     22  C   UNL     1      -6.734   1.397 124.502  0.00  0.00    +0.000 C 
ATOM     23  O   UNL     1      -7.287   3.580 125.301  0.00  0.00    +0.000 OA
ENDBRANCH   3  21
BRANCH   3  24
ATOM     24  O   UNL     1      -6.090   2.649 127.772  0.00  0.00    +0.000 OA
ATOM     25  H   UNL     1      -5.792   3.397 127.215  0.00  0.00    +0.000 HD
ENDBRANCH   3  24
BRANCH   7  26
ATOM     26  O   UNL     1      -8.881   0.347 131.543  0.00  0.00    +0.000 OA
ATOM     27  H   UNL     1      -8.555   0.279 132.449  0.00  0.00    +0.000 HD
ENDBRANCH   7  26
BRANCH  20  28
ATOM     28  O   UNL     1      -5.409  -1.892 127.858  0.00  0.00    +0.000 OA
ATOM     29  H   UNL     1      -4.606  -1.327 127.801  0.00  0.00    +0.000 HD
ENDBRANCH  20  28
BRANCH   1  30
ATOM     30  O   UNL     1      -7.667   2.580 129.842  0.00  0.00    +0.000 OA
BRANCH  30  34
ATOM     31  C   UNL     1      -7.830   6.720 131.114  0.00  0.00    +0.000 C 
ATOM     32  C   UNL     1      -8.132   5.491 131.979  0.00  0.00    +0.000 C 
ATOM     33  O   UNL     1      -7.572   4.314 131.399  0.00  0.00    +0.000 OA
ATOM     34  C   UNL     1      -8.230   3.820 130.240  0.00  0.00    +0.000 C 
ATOM     35  C   UNL     1      -9.707   3.536 130.530  0.00  0.00    +0.000 C 
ATOM     36  C   UNL     1     -10.405   4.771 131.091  0.00  0.00    +0.000 C 
ATOM     37  C   UNL     1      -9.612   5.257 132.324  0.00  0.00    +0.000 C 
BRANCH  36  38
ATOM     38  N   UNL     1     -10.542   5.776 130.023  0.00  0.00    +0.000 NA
ATOM     39  H   UNL     1      -9.996   6.607 130.224  0.00  0.00    +0.000 HD
ATOM     40  H   UNL     1     -11.504   6.083 129.927  0.00  0.00    +0.000 HD
ENDBRANCH  36  38
BRANCH  37  41
ATOM     41  O   UNL     1     -10.219   6.398 132.921  0.00  0.00    +0.000 OA
ATOM     42  H   UNL     1     -10.521   6.158 133.810  0.00  0.00    +0.000 HD
ENDBRANCH  37  41
ENDBRANCH  30  34
ENDBRANCH   1  30
TORSDOF 8
ENDMDL
