MODEL 1
REMARK VINA RESULT:      -5.7      0.000      0.000
REMARK  Name = Idebenone
REMARK  16 active torsions:
REMARK  status: ('A' for Active; 'I' for Inactive)
REMARK    1  A    between atoms: C_1  and  O_2
REMARK    2  A    between atoms: O_2  and  C_3
REMARK    3  A    between atoms: C_4  and  O_5
REMARK    4  A    between atoms: O_5  and  C_6
REMARK    5  A    between atoms: C_9  and  C_10
REMARK    6  A    between atoms: C_10  and  C_11
REMARK    7  A    between atoms: C_11  and  C_12
REMARK    8  A    between atoms: C_12  and  C_13
REMARK    9  A    between atoms: C_13  and  C_14
REMARK   10  A    between atoms: C_14  and  C_15
REMARK   11  A    between atoms: C_15  and  C_16
REMARK   12  A    between atoms: C_16  and  C_17
REMARK   13  A    between atoms: C_17  and  C_18
REMARK   14  A    between atoms: C_18  and  C_19
REMARK   15  A    between atoms: C_19  and  O_20
REMARK   16  A    between atoms: C_21  and  C_22
REMARK                            x       y       z     vdW  Elec       q    Type
REMARK                         _______ _______ _______ _____ _____    ______ ____
ROOT
ATOM      1  C   UNL     1      -4.215  -3.273 131.992  0.00  0.00    +0.000 C 
ATOM      2  C   UNL     1      -5.440  -3.372 132.536  0.00  0.00    +0.000 C 
ATOM      3  C   UNL     1      -6.626  -3.020 131.716  0.00  0.00    +0.000 C 
ATOM      4  O   UNL     1      -7.728  -3.032 132.242  0.00  0.00    +0.000 OA
ATOM      5  C   UNL     1      -6.460  -2.661 130.273  0.00  0.00    +0.000 C 
ATOM      6  C   UNL     1      -5.232  -2.546 129.745  0.00  0.00    +0.000 C 
ATOM      7  C   UNL     1      -4.963  -2.172 128.308  0.00  0.00    +0.000 C 
ATOM      8  C   UNL     1      -4.028  -2.787 130.585  0.00  0.00    +0.000 C 
ATOM      9  O   UNL     1      -2.909  -2.611 130.112  0.00  0.00    +0.000 OA
ENDROOT
BRANCH   1  11
ATOM     10  C   UNL     1      -2.620  -2.491 133.568  0.00  0.00    +0.000 C 
ATOM     11  O   UNL     1      -3.040  -3.530 132.688  0.00  0.00    +0.000 OA
ENDBRANCH   1  11
BRANCH   2  12
ATOM     12  O   UNL     1      -5.577  -3.743 133.875  0.00  0.00    +0.000 OA
ATOM     13  C   UNL     1      -5.685  -5.120 134.229  0.00  0.00    +0.000 C 
ENDBRANCH   2  12
BRANCH   5  14
ATOM     14  C   UNL     1      -7.690  -2.410 129.425  0.00  0.00    +0.000 C 
BRANCH  14  15
ATOM     15  C   UNL     1      -8.207  -3.609 128.662  0.00  0.00    +0.000 C 
BRANCH  15  16
ATOM     16  C   UNL     1      -8.708  -3.272 127.290  0.00  0.00    +0.000 C 
BRANCH  16  17
ATOM     17  C   UNL     1      -8.442  -1.793 127.064  0.00  0.00    +0.000 C 
BRANCH  17  18
ATOM     18  C   UNL     1      -8.723  -1.462 125.620  0.00  0.00    +0.000 C 
BRANCH  18  19
ATOM     19  C   UNL     1      -8.396  -2.653 124.743  0.00  0.00    +0.000 C 
BRANCH  19  20
ATOM     20  C   UNL     1      -7.064  -2.419 124.056  0.00  0.00    +0.000 C 
BRANCH  20  21
ATOM     21  C   UNL     1      -6.239  -3.693 124.077  0.00  0.00    +0.000 C 
BRANCH  21  22
ATOM     22  C   UNL     1      -4.885  -3.455 123.429  0.00  0.00    +0.000 C 
BRANCH  22  23
ATOM     23  C   UNL     1      -3.935  -4.594 123.755  0.00  0.00    +0.000 C 
BRANCH  23  24
ATOM     24  O   UNL     1      -4.130  -5.658 122.837  0.00  0.00    +0.000 OA
ATOM     25  H   UNL     1      -4.927  -5.452 122.320  0.00  0.00    +0.000 HD
ENDBRANCH  23  24
ENDBRANCH  22  23
ENDBRANCH  21  22
ENDBRANCH  20  21
ENDBRANCH  19  20
ENDBRANCH  18  19
ENDBRANCH  17  18
ENDBRANCH  16  17
ENDBRANCH  15  16
ENDBRANCH  14  15
ENDBRANCH   5  14
TORSDOF 13
ENDMDL
MODEL 2
REMARK VINA RESULT:      -5.7      3.652      7.122
REMARK  Name = Idebenone
REMARK  16 active torsions:
REMARK  status: ('A' for Active; 'I' for Inactive)
REMARK    1  A    between atoms: C_1  and  O_2
REMARK    2  A    between atoms: O_2  and  C_3
REMARK    3  A    between atoms: C_4  and  O_5
REMARK    4  A    between atoms: O_5  and  C_6
REMARK    5  A    between atoms: C_9  and  C_10
REMARK    6  A    between atoms: C_10  and  C_11
REMARK    7  A    between atoms: C_11  and  C_12
REMARK    8  A    between atoms: C_12  and  C_13
REMARK    9  A    between atoms: C_13  and  C_14
REMARK   10  A    between atoms: C_14  and  C_15
REMARK   11  A    between atoms: C_15  and  C_16
REMARK   12  A    between atoms: C_16  and  C_17
REMARK   13  A    between atoms: C_17  and  C_18
REMARK   14  A    between atoms: C_18  and  C_19
REMARK   15  A    between atoms: C_19  and  O_20
REMARK   16  A    between atoms: C_21  and  C_22
REMARK                            x       y       z     vdW  Elec       q    Type
REMARK                         _______ _______ _______ _____ _____    ______ ____
ROOT
ATOM      1  C   UNL     1      -6.891   0.899 125.723  0.00  0.00    +0.000 C 
ATOM      2  C   UNL     1      -8.102   1.074 125.167  0.00  0.00    +0.000 C 
ATOM      3  C   UNL     1      -8.570   0.113 124.137  0.00  0.00    +0.000 C 
ATOM      4  O   UNL     1      -9.634   0.324 123.576  0.00  0.00    +0.000 OA
ATOM      5  C   UNL     1      -7.743  -1.088 123.801  0.00  0.00    +0.000 C 
ATOM      6  C   UNL     1      -6.527  -1.243 124.347  0.00  0.00    +0.000 C 
ATOM      7  C   UNL     1      -5.614  -2.409 124.059  0.00  0.00    +0.000 C 
ATOM      8  C   UNL     1      -5.997  -0.229 125.299  0.00  0.00    +0.000 C 
ATOM      9  O   UNL     1      -4.857  -0.342 125.738  0.00  0.00    +0.000 OA
ENDROOT
BRANCH   1  11
ATOM     10  C   UNL     1      -5.456   2.748 126.123  0.00  0.00    +0.000 C 
ATOM     11  O   UNL     1      -6.341   1.767 126.657  0.00  0.00    +0.000 OA
ENDBRANCH   1  11
BRANCH   2  12
ATOM     12  O   UNL     1      -8.874   2.182 125.518  0.00  0.00    +0.000 OA
ATOM     13  C   UNL     1      -8.695   3.424 124.841  0.00  0.00    +0.000 C 
ENDBRANCH   2  12
BRANCH   5  14
ATOM     14  C   UNL     1      -8.286  -2.114 122.827  0.00  0.00    +0.000 C 
BRANCH  14  15
ATOM     15  C   UNL     1      -9.328  -3.054 123.389  0.00  0.00    +0.000 C 
BRANCH  15  16
ATOM     16  C   UNL     1      -8.874  -3.779 124.621  0.00  0.00    +0.000 C 
BRANCH  16  17
ATOM     17  C   UNL     1      -9.659  -3.213 125.792  0.00  0.00    +0.000 C 
BRANCH  17  18
ATOM     18  C   UNL     1      -8.698  -2.857 126.898  0.00  0.00    +0.000 C 
BRANCH  18  19
ATOM     19  C   UNL     1      -8.828  -3.849 128.035  0.00  0.00    +0.000 C 
BRANCH  19  20
ATOM     20  C   UNL     1      -7.779  -3.546 129.088  0.00  0.00    +0.000 C 
BRANCH  20  21
ATOM     21  C   UNL     1      -7.936  -2.118 129.581  0.00  0.00    +0.000 C 
BRANCH  21  22
ATOM     22  C   UNL     1      -6.581  -1.436 129.662  0.00  0.00    +0.000 C 
BRANCH  22  23
ATOM     23  C   UNL     1      -5.563  -2.180 128.815  0.00  0.00    +0.000 C 
BRANCH  23  24
ATOM     24  O   UNL     1      -4.483  -1.317 128.496  0.00  0.00    +0.000 OA
ATOM     25  H   UNL     1      -4.862  -0.450 128.272  0.00  0.00    +0.000 HD
ENDBRANCH  23  24
ENDBRANCH  22  23
ENDBRANCH  21  22
ENDBRANCH  20  21
ENDBRANCH  19  20
ENDBRANCH  18  19
ENDBRANCH  17  18
ENDBRANCH  16  17
ENDBRANCH  15  16
ENDBRANCH  14  15
ENDBRANCH   5  14
TORSDOF 13
ENDMDL
MODEL 3
REMARK VINA RESULT:      -5.5      3.793      8.138
REMARK  Name = Idebenone
REMARK  16 active torsions:
REMARK  status: ('A' for Active; 'I' for Inactive)
REMARK    1  A    between atoms: C_1  and  O_2
REMARK    2  A    between atoms: O_2  and  C_3
REMARK    3  A    between atoms: C_4  and  O_5
REMARK    4  A    between atoms: O_5  and  C_6
REMARK    5  A    between atoms: C_9  and  C_10
REMARK    6  A    between atoms: C_10  and  C_11
REMARK    7  A    between atoms: C_11  and  C_12
REMARK    8  A    between atoms: C_12  and  C_13
REMARK    9  A    between atoms: C_13  and  C_14
REMARK   10  A    between atoms: C_14  and  C_15
REMARK   11  A    between atoms: C_15  and  C_16
REMARK   12  A    between atoms: C_16  and  C_17
REMARK   13  A    between atoms: C_17  and  C_18
REMARK   14  A    between atoms: C_18  and  C_19
REMARK   15  A    between atoms: C_19  and  O_20
REMARK   16  A    between atoms: C_21  and  C_22
REMARK                            x       y       z     vdW  Elec       q    Type
REMARK                         _______ _______ _______ _____ _____    ______ ____
ROOT
ATOM      1  C   UNL     1      -9.335   0.949 124.143  0.00  0.00    +0.000 C 
ATOM      2  C   UNL     1      -8.881   1.102 125.399  0.00  0.00    +0.000 C 
ATOM      3  C   UNL     1      -8.491  -0.100 126.178  0.00  0.00    +0.000 C 
ATOM      4  O   UNL     1      -8.159   0.038 127.345  0.00  0.00    +0.000 OA
ATOM      5  C   UNL     1      -8.508  -1.450 125.532  0.00  0.00    +0.000 C 
ATOM      6  C   UNL     1      -8.982  -1.594 124.284  0.00  0.00    +0.000 C 
ATOM      7  C   UNL     1      -9.055  -2.913 123.556  0.00  0.00    +0.000 C 
ATOM      8  C   UNL     1      -9.481  -0.412 123.530  0.00  0.00    +0.000 C 
ATOM      9  O   UNL     1      -9.976  -0.564 122.418  0.00  0.00    +0.000 OA
ENDROOT
BRANCH   1  11
ATOM     10  C   UNL     1      -8.763   2.616 122.552  0.00  0.00    +0.000 C 
ATOM     11  O   UNL     1      -9.772   2.003 123.349  0.00  0.00    +0.000 OA
ENDBRANCH   1  11
BRANCH   2  12
ATOM     12  O   UNL     1      -8.840   2.373 125.973  0.00  0.00    +0.000 OA
ATOM     13  C   UNL     1      -7.623   3.119 125.976  0.00  0.00    +0.000 C 
ENDBRANCH   2  12
BRANCH   5  14
ATOM     14  C   UNL     1      -8.004  -2.649 126.307  0.00  0.00    +0.000 C 
BRANCH  14  15
ATOM     15  C   UNL     1      -9.064  -3.438 127.043  0.00  0.00    +0.000 C 
BRANCH  15  16
ATOM     16  C   UNL     1      -8.617  -3.929 128.387  0.00  0.00    +0.000 C 
BRANCH  16  17
ATOM     17  C   UNL     1      -7.970  -2.755 129.103  0.00  0.00    +0.000 C 
BRANCH  17  18
ATOM     18  C   UNL     1      -7.412  -3.234 130.420  0.00  0.00    +0.000 C 
BRANCH  18  19
ATOM     19  C   UNL     1      -6.230  -4.150 130.178  0.00  0.00    +0.000 C 
BRANCH  19  20
ATOM     20  C   UNL     1      -5.113  -3.363 129.518  0.00  0.00    +0.000 C 
BRANCH  20  21
ATOM     21  C   UNL     1      -3.977  -3.150 130.502  0.00  0.00    +0.000 C 
BRANCH  21  22
ATOM     22  C   UNL     1      -3.658  -1.670 130.627  0.00  0.00    +0.000 C 
BRANCH  22  23
ATOM     23  C   UNL     1      -3.442  -1.296 132.082  0.00  0.00    +0.000 C 
BRANCH  23  24
ATOM     24  O   UNL     1      -2.287  -1.954 132.580  0.00  0.00    +0.000 OA
ATOM     25  H   UNL     1      -2.032  -1.507 133.404  0.00  0.00    +0.000 HD
ENDBRANCH  23  24
ENDBRANCH  22  23
ENDBRANCH  21  22
ENDBRANCH  20  21
ENDBRANCH  19  20
ENDBRANCH  18  19
ENDBRANCH  17  18
ENDBRANCH  16  17
ENDBRANCH  15  16
ENDBRANCH  14  15
ENDBRANCH   5  14
TORSDOF 13
ENDMDL
MODEL 4
REMARK VINA RESULT:      -5.5      1.708      2.525
REMARK  Name = Idebenone
REMARK  16 active torsions:
REMARK  status: ('A' for Active; 'I' for Inactive)
REMARK    1  A    between atoms: C_1  and  O_2
REMARK    2  A    between atoms: O_2  and  C_3
REMARK    3  A    between atoms: C_4  and  O_5
REMARK    4  A    between atoms: O_5  and  C_6
REMARK    5  A    between atoms: C_9  and  C_10
REMARK    6  A    between atoms: C_10  and  C_11
REMARK    7  A    between atoms: C_11  and  C_12
REMARK    8  A    between atoms: C_12  and  C_13
REMARK    9  A    between atoms: C_13  and  C_14
REMARK   10  A    between atoms: C_14  and  C_15
REMARK   11  A    between atoms: C_15  and  C_16
REMARK   12  A    between atoms: C_16  and  C_17
REMARK   13  A    between atoms: C_17  and  C_18
REMARK   14  A    between atoms: C_18  and  C_19
REMARK   15  A    between atoms: C_19  and  O_20
REMARK   16  A    between atoms: C_21  and  C_22
REMARK                            x       y       z     vdW  Elec       q    Type
REMARK                         _______ _______ _______ _____ _____    ______ ____
ROOT
ATOM      1  C   UNL     1      -5.874  -3.223 133.659  0.00  0.00    +0.000 C 
ATOM      2  C   UNL     1      -5.489  -4.193 132.811  0.00  0.00    +0.000 C 
ATOM      3  C   UNL     1      -5.983  -4.168 131.412  0.00  0.00    +0.000 C 
ATOM      4  O   UNL     1      -5.698  -5.096 130.671  0.00  0.00    +0.000 OA
ATOM      5  C   UNL     1      -6.813  -3.020 130.930  0.00  0.00    +0.000 C 
ATOM      6  C   UNL     1      -7.208  -2.067 131.789  0.00  0.00    +0.000 C 
ATOM      7  C   UNL     1      -8.059  -0.882 131.403  0.00  0.00    +0.000 C 
ATOM      8  C   UNL     1      -6.813  -2.138 133.222  0.00  0.00    +0.000 C 
ATOM      9  O   UNL     1      -7.236  -1.301 134.013  0.00  0.00    +0.000 OA
ENDROOT
BRANCH   1  11
ATOM     10  C   UNL     1      -6.339  -3.941 135.874  0.00  0.00    +0.000 C 
ATOM     11  O   UNL     1      -5.509  -3.183 134.999  0.00  0.00    +0.000 OA
ENDBRANCH   1  11
BRANCH   2  12
ATOM     12  O   UNL     1      -4.685  -5.237 133.270  0.00  0.00    +0.000 OA
ATOM     13  C   UNL     1      -3.274  -5.061 133.378  0.00  0.00    +0.000 C 
ENDBRANCH   2  12
BRANCH   5  14
ATOM     14  C   UNL     1      -7.218  -2.957 129.472  0.00  0.00    +0.000 C 
BRANCH  14  15
ATOM     15  C   UNL     1      -8.644  -3.362 129.176  0.00  0.00    +0.000 C 
BRANCH  15  16
ATOM     16  C   UNL     1      -8.817  -3.995 127.828  0.00  0.00    +0.000 C 
BRANCH  16  17
ATOM     17  C   UNL     1      -8.365  -2.980 126.792  0.00  0.00    +0.000 C 
BRANCH  17  18
ATOM     18  C   UNL     1      -9.407  -2.896 125.704  0.00  0.00    +0.000 C 
BRANCH  18  19
ATOM     19  C   UNL     1      -8.739  -2.930 124.346  0.00  0.00    +0.000 C 
BRANCH  19  20
ATOM     20  C   UNL     1      -7.538  -3.856 124.400  0.00  0.00    +0.000 C 
BRANCH  20  21
ATOM     21  C   UNL     1      -6.290  -3.113 123.956  0.00  0.00    +0.000 C 
BRANCH  21  22
ATOM     22  C   UNL     1      -5.045  -3.851 124.419  0.00  0.00    +0.000 C 
BRANCH  22  23
ATOM     23  C   UNL     1      -4.223  -4.302 123.225  0.00  0.00    +0.000 C 
BRANCH  23  24
ATOM     24  O   UNL     1      -4.273  -5.716 123.115  0.00  0.00    +0.000 OA
ATOM     25  H   UNL     1      -5.194  -5.959 122.919  0.00  0.00    +0.000 HD
ENDBRANCH  23  24
ENDBRANCH  22  23
ENDBRANCH  21  22
ENDBRANCH  20  21
ENDBRANCH  19  20
ENDBRANCH  18  19
ENDBRANCH  17  18
ENDBRANCH  16  17
ENDBRANCH  15  16
ENDBRANCH  14  15
ENDBRANCH   5  14
TORSDOF 13
ENDMDL
MODEL 5
REMARK VINA RESULT:      -5.4      3.905      7.318
REMARK  Name = Idebenone
REMARK  16 active torsions:
REMARK  status: ('A' for Active; 'I' for Inactive)
REMARK    1  A    between atoms: C_1  and  O_2
REMARK    2  A    between atoms: O_2  and  C_3
REMARK    3  A    between atoms: C_4  and  O_5
REMARK    4  A    between atoms: O_5  and  C_6
REMARK    5  A    between atoms: C_9  and  C_10
REMARK    6  A    between atoms: C_10  and  C_11
REMARK    7  A    between atoms: C_11  and  C_12
REMARK    8  A    between atoms: C_12  and  C_13
REMARK    9  A    between atoms: C_13  and  C_14
REMARK   10  A    between atoms: C_14  and  C_15
REMARK   11  A    between atoms: C_15  and  C_16
REMARK   12  A    between atoms: C_16  and  C_17
REMARK   13  A    between atoms: C_17  and  C_18
REMARK   14  A    between atoms: C_18  and  C_19
REMARK   15  A    between atoms: C_19  and  O_20
REMARK   16  A    between atoms: C_21  and  C_22
REMARK                            x       y       z     vdW  Elec       q    Type
REMARK                         _______ _______ _______ _____ _____    ______ ____
ROOT
ATOM      1  C   UNL     1      -7.822   1.008 124.087  0.00  0.00    +0.000 C 
ATOM      2  C   UNL     1      -7.843   1.551 125.317  0.00  0.00    +0.000 C 
ATOM      3  C   UNL     1      -7.032   0.931 126.395  0.00  0.00    +0.000 C 
ATOM      4  O   UNL     1      -7.121   1.378 127.528  0.00  0.00    +0.000 OA
ATOM      5  C   UNL     1      -6.125  -0.218 126.084  0.00  0.00    +0.000 C 
ATOM      6  C   UNL     1      -6.126  -0.764 124.858  0.00  0.00    +0.000 C 
ATOM      7  C   UNL     1      -5.262  -1.933 124.454  0.00  0.00    +0.000 C 
ATOM      8  C   UNL     1      -7.018  -0.224 123.796  0.00  0.00    +0.000 C 
ATOM      9  O   UNL     1      -7.063  -0.774 122.700  0.00  0.00    +0.000 OA
ENDROOT
BRANCH   1  11
ATOM     10  C   UNL     1      -9.914   0.978 122.963  0.00  0.00    +0.000 C 
ATOM     11  O   UNL     1      -8.582   1.481 123.025  0.00  0.00    +0.000 OA
ENDBRANCH   1  11
BRANCH   2  12
ATOM     12  O   UNL     1      -8.669   2.645 125.579  0.00  0.00    +0.000 OA
ATOM     13  C   UNL     1      -8.180   3.972 125.395  0.00  0.00    +0.000 C 
ENDBRANCH   2  12
BRANCH   5  14
ATOM     14  C   UNL     1      -5.225  -0.767 127.171  0.00  0.00    +0.000 C 
BRANCH  14  15
ATOM     15  C   UNL     1      -5.622  -2.119 127.721  0.00  0.00    +0.000 C 
BRANCH  15  16
ATOM     16  C   UNL     1      -5.551  -2.198 129.217  0.00  0.00    +0.000 C 
BRANCH  16  17
ATOM     17  C   UNL     1      -6.690  -3.092 129.675  0.00  0.00    +0.000 C 
BRANCH  17  18
ATOM     18  C   UNL     1      -7.988  -2.545 129.136  0.00  0.00    +0.000 C 
BRANCH  18  19
ATOM     19  C   UNL     1      -8.996  -3.663 128.980  0.00  0.00    +0.000 C 
BRANCH  19  20
ATOM     20  C   UNL     1      -8.948  -4.188 127.557  0.00  0.00    +0.000 C 
BRANCH  20  21
ATOM     21  C   UNL     1      -8.824  -3.031 126.581  0.00  0.00    +0.000 C 
BRANCH  21  22
ATOM     22  C   UNL     1      -8.561  -3.550 125.178  0.00  0.00    +0.000 C 
BRANCH  22  23
ATOM     23  C   UNL     1      -9.395  -2.786 124.166  0.00  0.00    +0.000 C 
BRANCH  23  24
ATOM     24  O   UNL     1     -10.188  -3.693 123.415  0.00  0.00    +0.000 OA
ATOM     25  H   UNL     1      -9.758  -4.563 123.466  0.00  0.00    +0.000 HD
ENDBRANCH  23  24
ENDBRANCH  22  23
ENDBRANCH  21  22
ENDBRANCH  20  21
ENDBRANCH  19  20
ENDBRANCH  18  19
ENDBRANCH  17  18
ENDBRANCH  16  17
ENDBRANCH  15  16
ENDBRANCH  14  15
ENDBRANCH   5  14
TORSDOF 13
ENDMDL
MODEL 6
REMARK VINA RESULT:      -5.4      2.137      2.793
REMARK  Name = Idebenone
REMARK  16 active torsions:
REMARK  status: ('A' for Active; 'I' for Inactive)
REMARK    1  A    between atoms: C_1  and  O_2
REMARK    2  A    between atoms: O_2  and  C_3
REMARK    3  A    between atoms: C_4  and  O_5
REMARK    4  A    between atoms: O_5  and  C_6
REMARK    5  A    between atoms: C_9  and  C_10
REMARK    6  A    between atoms: C_10  and  C_11
REMARK    7  A    between atoms: C_11  and  C_12
REMARK    8  A    between atoms: C_12  and  C_13
REMARK    9  A    between atoms: C_13  and  C_14
REMARK   10  A    between atoms: C_14  and  C_15
REMARK   11  A    between atoms: C_15  and  C_16
REMARK   12  A    between atoms: C_16  and  C_17
REMARK   13  A    between atoms: C_17  and  C_18
REMARK   14  A    between atoms: C_18  and  C_19
REMARK   15  A    between atoms: C_19  and  O_20
REMARK   16  A    between atoms: C_21  and  C_22
REMARK                            x       y       z     vdW  Elec       q    Type
REMARK                         _______ _______ _______ _____ _____    ______ ____
ROOT
ATOM      1  C   UNL     1      -5.472  -1.062 132.066  0.00  0.00    +0.000 C 
ATOM      2  C   UNL     1      -6.415  -0.314 131.466  0.00  0.00    +0.000 C 
ATOM      3  C   UNL     1      -7.238  -0.916 130.388  0.00  0.00    +0.000 C 
ATOM      4  O   UNL     1      -8.033  -0.207 129.790  0.00  0.00    +0.000 OA
ATOM      5  C   UNL     1      -7.087  -2.365 130.049  0.00  0.00    +0.000 C 
ATOM      6  C   UNL     1      -6.130  -3.099 130.640  0.00  0.00    +0.000 C 
ATOM      7  C   UNL     1      -5.889  -4.560 130.353  0.00  0.00    +0.000 C 
ATOM      8  C   UNL     1      -5.223  -2.480 131.644  0.00  0.00    +0.000 C 
ATOM      9  O   UNL     1      -4.307  -3.140 132.126  0.00  0.00    +0.000 OA
ENDROOT
BRANCH   1  11
ATOM     10  C   UNL     1      -5.078  -0.752 134.387  0.00  0.00    +0.000 C 
ATOM     11  O   UNL     1      -4.618  -0.581 133.049  0.00  0.00    +0.000 OA
ENDBRANCH   1  11
BRANCH   2  12
ATOM     12  O   UNL     1      -6.564   1.028 131.820  0.00  0.00    +0.000 OA
ATOM     13  C   UNL     1      -5.696   2.016 131.268  0.00  0.00    +0.000 C 
ENDBRANCH   2  12
BRANCH   5  14
ATOM     14  C   UNL     1      -8.010  -2.987 129.022  0.00  0.00    +0.000 C 
BRANCH  14  15
ATOM     15  C   UNL     1      -7.559  -2.860 127.584  0.00  0.00    +0.000 C 
BRANCH  15  16
ATOM     16  C   UNL     1      -8.493  -2.047 126.737  0.00  0.00    +0.000 C 
BRANCH  16  17
ATOM     17  C   UNL     1      -9.135  -2.994 125.738  0.00  0.00    +0.000 C 
BRANCH  17  18
ATOM     18  C   UNL     1      -8.084  -3.463 124.764  0.00  0.00    +0.000 C 
BRANCH  18  19
ATOM     19  C   UNL     1      -8.052  -2.547 123.558  0.00  0.00    +0.000 C 
BRANCH  19  20
ATOM     20  C   UNL     1      -6.745  -1.776 123.549  0.00  0.00    +0.000 C 
BRANCH  20  21
ATOM     21  C   UNL     1      -5.676  -2.558 124.291  0.00  0.00    +0.000 C 
BRANCH  21  22
ATOM     22  C   UNL     1      -4.860  -3.391 123.317  0.00  0.00    +0.000 C 
BRANCH  22  23
ATOM     23  C   UNL     1      -4.582  -4.765 123.899  0.00  0.00    +0.000 C 
BRANCH  23  24
ATOM     24  O   UNL     1      -4.067  -5.619 122.889  0.00  0.00    +0.000 OA
ATOM     25  H   UNL     1      -3.144  -5.816 123.121  0.00  0.00    +0.000 HD
ENDBRANCH  23  24
ENDBRANCH  22  23
ENDBRANCH  21  22
ENDBRANCH  20  21
ENDBRANCH  19  20
ENDBRANCH  18  19
ENDBRANCH  17  18
ENDBRANCH  16  17
ENDBRANCH  15  16
ENDBRANCH  14  15
ENDBRANCH   5  14
TORSDOF 13
ENDMDL
MODEL 7
REMARK VINA RESULT:      -5.4      8.208     10.397
REMARK  Name = Idebenone
REMARK  16 active torsions:
REMARK  status: ('A' for Active; 'I' for Inactive)
REMARK    1  A    between atoms: C_1  and  O_2
REMARK    2  A    between atoms: O_2  and  C_3
REMARK    3  A    between atoms: C_4  and  O_5
REMARK    4  A    between atoms: O_5  and  C_6
REMARK    5  A    between atoms: C_9  and  C_10
REMARK    6  A    between atoms: C_10  and  C_11
REMARK    7  A    between atoms: C_11  and  C_12
REMARK    8  A    between atoms: C_12  and  C_13
REMARK    9  A    between atoms: C_13  and  C_14
REMARK   10  A    between atoms: C_14  and  C_15
REMARK   11  A    between atoms: C_15  and  C_16
REMARK   12  A    between atoms: C_16  and  C_17
REMARK   13  A    between atoms: C_17  and  C_18
REMARK   14  A    between atoms: C_18  and  C_19
REMARK   15  A    between atoms: C_19  and  O_20
REMARK   16  A    between atoms: C_21  and  C_22
REMARK                            x       y       z     vdW  Elec       q    Type
REMARK                         _______ _______ _______ _____ _____    ______ ____
ROOT
ATOM      1  C   UNL     1     -10.724   6.444 129.128  0.00  0.00    +0.000 C 
ATOM      2  C   UNL     1     -11.371   6.824 130.244  0.00  0.00    +0.000 C 
ATOM      3  C   UNL     1     -10.746   6.566 131.565  0.00  0.00    +0.000 C 
ATOM      4  O   UNL     1     -11.376   6.837 132.576  0.00  0.00    +0.000 OA
ATOM      5  C   UNL     1      -9.370   5.984 131.643  0.00  0.00    +0.000 C 
ATOM      6  C   UNL     1      -8.741   5.590 130.525  0.00  0.00    +0.000 C 
ATOM      7  C   UNL     1      -7.362   4.979 130.503  0.00  0.00    +0.000 C 
ATOM      8  C   UNL     1      -9.401   5.741 129.199  0.00  0.00    +0.000 C 
ATOM      9  O   UNL     1      -8.848   5.314 128.191  0.00  0.00    +0.000 OA
ENDROOT
BRANCH   1  11
ATOM     10  C   UNL     1     -10.869   7.797 127.182  0.00  0.00    +0.000 C 
ATOM     11  O   UNL     1     -11.243   6.594 127.848  0.00  0.00    +0.000 OA
ENDBRANCH   1  11
BRANCH   2  12
ATOM     12  O   UNL     1     -12.640   7.397 130.149  0.00  0.00    +0.000 OA
ATOM     13  C   UNL     1     -12.782   8.815 130.069  0.00  0.00    +0.000 C 
ENDBRANCH   2  12
BRANCH   5  14
ATOM     14  C   UNL     1      -8.706   5.829 132.996  0.00  0.00    +0.000 C 
BRANCH  14  15
ATOM     15  C   UNL     1      -9.081   4.580 133.762  0.00  0.00    +0.000 C 
BRANCH  15  16
ATOM     16  C   UNL     1      -7.909   3.699 134.077  0.00  0.00    +0.000 C 
BRANCH  16  17
ATOM     17  C   UNL     1      -8.019   2.469 133.193  0.00  0.00    +0.000 C 
BRANCH  17  18
ATOM     18  C   UNL     1      -9.449   2.325 132.734  0.00  0.00    +0.000 C 
BRANCH  18  19
ATOM     19  C   UNL     1      -9.485   1.799 131.314  0.00  0.00    +0.000 C 
BRANCH  19  20
ATOM     20  C   UNL     1      -8.376   0.781 131.128  0.00  0.00    +0.000 C 
BRANCH  20  21
ATOM     21  C   UNL     1      -8.037   0.647 129.654  0.00  0.00    +0.000 C 
BRANCH  21  22
ATOM     22  C   UNL     1      -6.848   1.526 129.306  0.00  0.00    +0.000 C 
BRANCH  22  23
ATOM     23  C   UNL     1      -7.071   2.213 127.970  0.00  0.00    +0.000 C 
BRANCH  23  24
ATOM     24  O   UNL     1      -5.827   2.400 127.313  0.00  0.00    +0.000 OA
ATOM     25  H   UNL     1      -5.864   3.259 126.861  0.00  0.00    +0.000 HD
ENDBRANCH  23  24
ENDBRANCH  22  23
ENDBRANCH  21  22
ENDBRANCH  20  21
ENDBRANCH  19  20
ENDBRANCH  18  19
ENDBRANCH  17  18
ENDBRANCH  16  17
ENDBRANCH  15  16
ENDBRANCH  14  15
ENDBRANCH   5  14
TORSDOF 13
ENDMDL
MODEL 8
REMARK VINA RESULT:      -5.4      7.993     10.495
REMARK  Name = Idebenone
REMARK  16 active torsions:
REMARK  status: ('A' for Active; 'I' for Inactive)
REMARK    1  A    between atoms: C_1  and  O_2
REMARK    2  A    between atoms: O_2  and  C_3
REMARK    3  A    between atoms: C_4  and  O_5
REMARK    4  A    between atoms: O_5  and  C_6
REMARK    5  A    between atoms: C_9  and  C_10
REMARK    6  A    between atoms: C_10  and  C_11
REMARK    7  A    between atoms: C_11  and  C_12
REMARK    8  A    between atoms: C_12  and  C_13
REMARK    9  A    between atoms: C_13  and  C_14
REMARK   10  A    between atoms: C_14  and  C_15
REMARK   11  A    between atoms: C_15  and  C_16
REMARK   12  A    between atoms: C_16  and  C_17
REMARK   13  A    between atoms: C_17  and  C_18
REMARK   14  A    between atoms: C_18  and  C_19
REMARK   15  A    between atoms: C_19  and  O_20
REMARK   16  A    between atoms: C_21  and  C_22
REMARK                            x       y       z     vdW  Elec       q    Type
REMARK                         _______ _______ _______ _____ _____    ______ ____
ROOT
ATOM      1  C   UNL     1     -10.645   6.383 129.117  0.00  0.00    +0.000 C 
ATOM      2  C   UNL     1     -11.287   6.769 130.234  0.00  0.00    +0.000 C 
ATOM      3  C   UNL     1     -10.648   6.533 131.553  0.00  0.00    +0.000 C 
ATOM      4  O   UNL     1     -11.272   6.809 132.566  0.00  0.00    +0.000 OA
ATOM      5  C   UNL     1      -9.265   5.968 131.626  0.00  0.00    +0.000 C 
ATOM      6  C   UNL     1      -8.641   5.568 130.507  0.00  0.00    +0.000 C 
ATOM      7  C   UNL     1      -7.255   4.972 130.480  0.00  0.00    +0.000 C 
ATOM      8  C   UNL     1      -9.314   5.696 129.185  0.00  0.00    +0.000 C 
ATOM      9  O   UNL     1      -8.764   5.264 128.177  0.00  0.00    +0.000 OA
ENDROOT
BRANCH   1  11
ATOM     10  C   UNL     1     -10.795   7.696 127.145  0.00  0.00    +0.000 C 
ATOM     11  O   UNL     1     -11.177   6.513 127.841  0.00  0.00    +0.000 OA
ENDBRANCH   1  11
BRANCH   2  12
ATOM     12  O   UNL     1     -12.563   7.326 130.144  0.00  0.00    +0.000 OA
ATOM     13  C   UNL     1     -12.722   8.741 130.041  0.00  0.00    +0.000 C 
ENDBRANCH   2  12
BRANCH   5  14
ATOM     14  C   UNL     1      -8.587   5.836 132.974  0.00  0.00    +0.000 C 
BRANCH  14  15
ATOM     15  C   UNL     1      -9.034   4.658 133.811  0.00  0.00    +0.000 C 
BRANCH  15  16
ATOM     16  C   UNL     1      -7.909   3.754 134.217  0.00  0.00    +0.000 C 
BRANCH  16  17
ATOM     17  C   UNL     1      -7.940   2.552 133.289  0.00  0.00    +0.000 C 
BRANCH  17  18
ATOM     18  C   UNL     1      -9.345   2.372 132.770  0.00  0.00    +0.000 C 
BRANCH  18  19
ATOM     19  C   UNL     1      -9.309   1.929 131.322  0.00  0.00    +0.000 C 
BRANCH  19  20
ATOM     20  C   UNL     1      -8.135   0.990 131.114  0.00  0.00    +0.000 C 
BRANCH  20  21
ATOM     21  C   UNL     1      -8.598  -0.451 131.224  0.00  0.00    +0.000 C 
BRANCH  21  22
ATOM     22  C   UNL     1      -7.722  -1.212 132.205  0.00  0.00    +0.000 C 
BRANCH  22  23
ATOM     23  C   UNL     1      -7.263  -2.525 131.596  0.00  0.00    +0.000 C 
BRANCH  23  24
ATOM     24  O   UNL     1      -6.959  -3.452 132.627  0.00  0.00    +0.000 OA
ATOM     25  H   UNL     1      -6.185  -3.963 132.338  0.00  0.00    +0.000 HD
ENDBRANCH  23  24
ENDBRANCH  22  23
ENDBRANCH  21  22
ENDBRANCH  20  21
ENDBRANCH  19  20
ENDBRANCH  18  19
ENDBRANCH  17  18
ENDBRANCH  16  17
ENDBRANCH  15  16
ENDBRANCH  14  15
ENDBRANCH   5  14
TORSDOF 13
ENDMDL
MODEL 9
REMARK VINA RESULT:      -5.3      5.562      7.923
REMARK  Name = Idebenone
REMARK  16 active torsions:
REMARK  status: ('A' for Active; 'I' for Inactive)
REMARK    1  A    between atoms: C_1  and  O_2
REMARK    2  A    between atoms: O_2  and  C_3
REMARK    3  A    between atoms: C_4  and  O_5
REMARK    4  A    between atoms: O_5  and  C_6
REMARK    5  A    between atoms: C_9  and  C_10
REMARK    6  A    between atoms: C_10  and  C_11
REMARK    7  A    between atoms: C_11  and  C_12
REMARK    8  A    between atoms: C_12  and  C_13
REMARK    9  A    between atoms: C_13  and  C_14
REMARK   10  A    between atoms: C_14  and  C_15
REMARK   11  A    between atoms: C_15  and  C_16
REMARK   12  A    between atoms: C_16  and  C_17
REMARK   13  A    between atoms: C_17  and  C_18
REMARK   14  A    between atoms: C_18  and  C_19
REMARK   15  A    between atoms: C_19  and  O_20
REMARK   16  A    between atoms: C_21  and  C_22
REMARK                            x       y       z     vdW  Elec       q    Type
REMARK                         _______ _______ _______ _____ _____    ______ ____
ROOT
ATOM      1  C   UNL     1      -6.167   3.133 124.765  0.00  0.00    +0.000 C 
ATOM      2  C   UNL     1      -6.813   3.533 123.656  0.00  0.00    +0.000 C 
ATOM      3  C   UNL     1      -8.132   2.933 123.331  0.00  0.00    +0.000 C 
ATOM      4  O   UNL     1      -8.674   3.238 122.280  0.00  0.00    +0.000 OA
ATOM      5  C   UNL     1      -8.773   1.973 124.283  0.00  0.00    +0.000 C 
ATOM      6  C   UNL     1      -8.111   1.565 125.377  0.00  0.00    +0.000 C 
ATOM      7  C   UNL     1      -8.666   0.590 126.385  0.00  0.00    +0.000 C 
ATOM      8  C   UNL     1      -6.741   2.074 125.659  0.00  0.00    +0.000 C 
ATOM      9  O   UNL     1      -6.117   1.643 126.623  0.00  0.00    +0.000 OA
ENDROOT
BRANCH   1  11
ATOM     10  C   UNL     1      -4.908   4.644 126.095  0.00  0.00    +0.000 C 
ATOM     11  O   UNL     1      -4.909   3.595 125.131  0.00  0.00    +0.000 OA
ENDBRANCH   1  11
BRANCH   2  12
ATOM     12  O   UNL     1      -6.214   4.456 122.797  0.00  0.00    +0.000 OA
ATOM     13  C   UNL     1      -5.573   4.012 121.603  0.00  0.00    +0.000 C 
ENDBRANCH   2  12
BRANCH   5  14
ATOM     14  C   UNL     1     -10.165   1.454 123.988  0.00  0.00    +0.000 C 
BRANCH  14  15
ATOM     15  C   UNL     1     -10.255  -0.023 123.677  0.00  0.00    +0.000 C 
BRANCH  15  16
ATOM     16  C   UNL     1      -9.480  -0.423 122.457  0.00  0.00    +0.000 C 
BRANCH  16  17
ATOM     17  C   UNL     1      -8.397  -1.388 122.908  0.00  0.00    +0.000 C 
BRANCH  17  18
ATOM     18  C   UNL     1      -9.032  -2.490 123.718  0.00  0.00    +0.000 C 
BRANCH  18  19
ATOM     19  C   UNL     1      -8.127  -2.873 124.870  0.00  0.00    +0.000 C 
BRANCH  19  20
ATOM     20  C   UNL     1      -6.833  -2.087 124.774  0.00  0.00    +0.000 C 
BRANCH  20  21
ATOM     21  C   UNL     1      -5.646  -3.030 124.851  0.00  0.00    +0.000 C 
BRANCH  21  22
ATOM     22  C   UNL     1      -5.236  -3.476 123.457  0.00  0.00    +0.000 C 
BRANCH  22  23
ATOM     23  C   UNL     1      -3.944  -4.271 123.515  0.00  0.00    +0.000 C 
BRANCH  23  24
ATOM     24  O   UNL     1      -4.151  -5.561 122.961  0.00  0.00    +0.000 OA
ATOM     25  H   UNL     1      -4.853  -5.481 122.294  0.00  0.00    +0.000 HD
ENDBRANCH  23  24
ENDBRANCH  22  23
ENDBRANCH  21  22
ENDBRANCH  20  21
ENDBRANCH  19  20
ENDBRANCH  18  19
ENDBRANCH  17  18
ENDBRANCH  16  17
ENDBRANCH  15  16
ENDBRANCH  14  15
ENDBRANCH   5  14
TORSDOF 13
ENDMDL
