MODEL 1
REMARK VINA RESULT:      -9.3      0.000      0.000
REMARK  Name = Idelalisib
REMARK  5 active torsions:
REMARK  status: ('A' for Active; 'I' for Inactive)
REMARK    1  A    between atoms: C_2  and  C_3
REMARK    2  A    between atoms: C_2  and  N_5
REMARK    3  A    between atoms: C_2  and  C_15
REMARK    4  A    between atoms: C_3  and  C_4
REMARK    5  A    between atoms: N_26  and  C_27
REMARK                            x       y       z     vdW  Elec       q    Type
REMARK                         _______ _______ _______ _____ _____    ______ ____
ROOT
ATOM      1  C   UNL     1      -7.085   1.240 123.985  0.00  0.00    +0.000 A 
ATOM      2  N   UNL     1      -7.052   0.202 123.194  0.00  0.00    +0.000 NA
ATOM      3  C   UNL     1      -6.428  -0.975 123.598  0.00  0.00    +0.000 A 
ATOM      4  C   UNL     1      -6.185  -1.987 122.661  0.00  0.00    +0.000 A 
ATOM      5  C   UNL     1      -5.425  -3.104 123.017  0.00  0.00    +0.000 A 
ATOM      6  C   UNL     1      -5.113  -3.322 124.355  0.00  0.00    +0.000 A 
ATOM      7  C   UNL     1      -5.425  -2.355 125.296  0.00  0.00    +0.000 A 
ATOM      8  F   UNL     1      -5.170  -2.612 126.585  0.00  0.00    +0.000 F 
ATOM      9  C   UNL     1      -5.982  -1.149 124.897  0.00  0.00    +0.000 A 
ATOM     10  C   UNL     1      -6.068  -0.018 125.807  0.00  0.00    +0.000 A 
ATOM     11  O   UNL     1      -5.641  -0.146 126.963  0.00  0.00    +0.000 OA
ATOM     12  N   UNL     1      -6.618   1.156 125.299  0.00  0.00    +0.000 N 
ENDROOT
BRANCH  12  13
ATOM     13  C   UNL     1      -6.704   2.213 126.241  0.00  0.00    +0.000 A 
ATOM     14  C   UNL     1      -7.795   2.237 127.125  0.00  0.00    +0.000 A 
ATOM     15  C   UNL     1      -7.694   2.975 128.298  0.00  0.00    +0.000 A 
ATOM     16  C   UNL     1      -6.631   3.862 128.471  0.00  0.00    +0.000 A 
ATOM     17  C   UNL     1      -5.617   3.948 127.516  0.00  0.00    +0.000 A 
ATOM     18  C   UNL     1      -5.631   3.094 126.416  0.00  0.00    +0.000 A 
ENDBRANCH  12  13
BRANCH   1  19
ATOM     19  C   UNL     1      -7.665   2.564 123.328  0.00  0.00    +0.000 C 
BRANCH  19  20
ATOM     20  N   UNL     1      -7.173   2.816 121.991  0.00  0.00    +0.000 N 
ATOM     21  C   UNL     1      -6.256   3.776 121.648  0.00  0.00    +0.000 A 
ATOM     22  N   UNL     1      -5.307   4.186 122.517  0.00  0.00    +0.000 NA
ATOM     23  C   UNL     1      -4.415   5.109 122.095  0.00  0.00    +0.000 A 
ATOM     24  N   UNL     1      -4.342   5.728 120.895  0.00  0.00    +0.000 NA
ATOM     25  C   UNL     1      -5.309   5.288 120.079  0.00  0.00    +0.000 A 
ATOM     26  C   UNL     1      -6.268   4.335 120.353  0.00  0.00    +0.000 A 
ATOM     27  N   UNL     1      -7.096   4.146 119.259  0.00  0.00    +0.000 NA
ATOM     28  C   UNL     1      -6.648   4.984 118.350  0.00  0.00    +0.000 A 
ATOM     29  N   UNL     1      -5.578   5.704 118.808  0.00  0.00    +0.000 N 
ATOM     30  H   UNL     1      -7.775   2.582 121.208  0.00  0.00    +0.000 HD
ATOM     31  H   UNL     1      -5.086   6.436 118.318  0.00  0.00    +0.000 HD
ENDBRANCH  19  20
BRANCH  19  32
ATOM     32  C   UNL     1      -9.202   2.513 123.176  0.00  0.00    +0.000 C 
ATOM     33  C   UNL     1      -9.945   1.712 124.226  0.00  0.00    +0.000 C 
ENDBRANCH  19  32
ENDBRANCH   1  19
TORSDOF 4
ENDMDL
MODEL 2
REMARK VINA RESULT:      -9.2      5.370      8.539
REMARK  Name = Idelalisib
REMARK  5 active torsions:
REMARK  status: ('A' for Active; 'I' for Inactive)
REMARK    1  A    between atoms: C_2  and  C_3
REMARK    2  A    between atoms: C_2  and  N_5
REMARK    3  A    between atoms: C_2  and  C_15
REMARK    4  A    between atoms: C_3  and  C_4
REMARK    5  A    between atoms: N_26  and  C_27
REMARK                            x       y       z     vdW  Elec       q    Type
REMARK                         _______ _______ _______ _____ _____    ______ ____
ROOT
ATOM      1  C   UNL     1      -9.394   5.366 129.388  0.00  0.00    +0.000 A 
ATOM      2  N   UNL     1      -9.677   6.384 128.622  0.00  0.00    +0.000 NA
ATOM      3  C   UNL     1     -10.753   7.215 128.921  0.00  0.00    +0.000 A 
ATOM      4  C   UNL     1     -11.195   8.146 127.972  0.00  0.00    +0.000 A 
ATOM      5  C   UNL     1     -12.365   8.875 128.197  0.00  0.00    +0.000 A 
ATOM      6  C   UNL     1     -12.957   8.850 129.456  0.00  0.00    +0.000 A 
ATOM      7  C   UNL     1     -12.469   7.986 130.423  0.00  0.00    +0.000 A 
ATOM      8  F   UNL     1     -13.015   8.022 131.645  0.00  0.00    +0.000 F 
ATOM      9  C   UNL     1     -11.444   7.103 130.116  0.00  0.00    +0.000 A 
ATOM     10  C   UNL     1     -11.097   6.008 131.007  0.00  0.00    +0.000 A 
ATOM     11  O   UNL     1     -11.730   5.873 132.063  0.00  0.00    +0.000 OA
ATOM     12  N   UNL     1     -10.072   5.162 130.592  0.00  0.00    +0.000 N 
ENDROOT
BRANCH  12  13
ATOM     13  C   UNL     1      -9.758   4.132 131.516  0.00  0.00    +0.000 A 
ATOM     14  C   UNL     1     -10.171   2.823 131.225  0.00  0.00    +0.000 A 
ATOM     15  C   UNL     1      -9.534   1.760 131.856  0.00  0.00    +0.000 A 
ATOM     16  C   UNL     1      -8.676   2.003 132.929  0.00  0.00    +0.000 A 
ATOM     17  C   UNL     1      -8.379   3.311 133.316  0.00  0.00    +0.000 A 
ATOM     18  C   UNL     1      -8.889   4.380 132.584  0.00  0.00    +0.000 A 
ENDBRANCH  12  13
BRANCH   1  19
ATOM     19  C   UNL     1      -8.260   4.404 128.830  0.00  0.00    +0.000 C 
BRANCH  19  20
ATOM     20  N   UNL     1      -7.983   4.583 127.422  0.00  0.00    +0.000 N 
ATOM     21  C   UNL     1      -7.859   3.576 126.500  0.00  0.00    +0.000 A 
ATOM     22  N   UNL     1      -8.519   2.406 126.642  0.00  0.00    +0.000 NA
ATOM     23  C   UNL     1      -8.375   1.474 125.675  0.00  0.00    +0.000 A 
ATOM     24  N   UNL     1      -7.620   1.527 124.555  0.00  0.00    +0.000 NA
ATOM     25  C   UNL     1      -6.985   2.703 124.471  0.00  0.00    +0.000 A 
ATOM     26  C   UNL     1      -7.054   3.758 125.357  0.00  0.00    +0.000 A 
ATOM     27  N   UNL     1      -6.255   4.807 124.931  0.00  0.00    +0.000 NA
ATOM     28  C   UNL     1      -5.705   4.379 123.815  0.00  0.00    +0.000 A 
ATOM     29  N   UNL     1      -6.108   3.108 123.507  0.00  0.00    +0.000 N 
ATOM     30  H   UNL     1      -7.471   5.411 127.136  0.00  0.00    +0.000 HD
ATOM     31  H   UNL     1      -5.797   2.546 122.730  0.00  0.00    +0.000 HD
ENDBRANCH  19  20
BRANCH  19  32
ATOM     32  C   UNL     1      -6.901   4.640 129.528  0.00  0.00    +0.000 C 
ATOM     33  C   UNL     1      -6.241   3.413 130.124  0.00  0.00    +0.000 C 
ENDBRANCH  19  32
ENDBRANCH   1  19
TORSDOF 4
ENDMDL
MODEL 3
REMARK VINA RESULT:      -8.8      5.647      9.105
REMARK  Name = Idelalisib
REMARK  5 active torsions:
REMARK  status: ('A' for Active; 'I' for Inactive)
REMARK    1  A    between atoms: C_2  and  C_3
REMARK    2  A    between atoms: C_2  and  N_5
REMARK    3  A    between atoms: C_2  and  C_15
REMARK    4  A    between atoms: C_3  and  C_4
REMARK    5  A    between atoms: N_26  and  C_27
REMARK                            x       y       z     vdW  Elec       q    Type
REMARK                         _______ _______ _______ _____ _____    ______ ____
ROOT
ATOM      1  C   UNL     1      -9.078   5.701 129.977  0.00  0.00    +0.000 A 
ATOM      2  N   UNL     1      -9.474   6.379 128.935  0.00  0.00    +0.000 NA
ATOM      3  C   UNL     1     -10.649   7.125 128.981  0.00  0.00    +0.000 A 
ATOM      4  C   UNL     1     -11.188   7.643 127.797  0.00  0.00    +0.000 A 
ATOM      5  C   UNL     1     -12.442   8.259 127.808  0.00  0.00    +0.000 A 
ATOM      6  C   UNL     1     -13.044   8.564 129.024  0.00  0.00    +0.000 A 
ATOM      7  C   UNL     1     -12.469   8.119 130.203  0.00  0.00    +0.000 A 
ATOM      8  F   UNL     1     -13.033   8.477 131.363  0.00  0.00    +0.000 F 
ATOM      9  C   UNL     1     -11.338   7.317 130.166  0.00  0.00    +0.000 A 
ATOM     10  C   UNL     1     -10.872   6.614 131.351  0.00  0.00    +0.000 A 
ATOM     11  O   UNL     1     -11.498   6.747 132.411  0.00  0.00    +0.000 OA
ATOM     12  N   UNL     1      -9.744   5.811 131.201  0.00  0.00    +0.000 N 
ENDROOT
BRANCH  12  13
ATOM     13  C   UNL     1      -9.319   5.176 132.396  0.00  0.00    +0.000 A 
ATOM     14  C   UNL     1      -9.527   3.794 132.531  0.00  0.00    +0.000 A 
ATOM     15  C   UNL     1      -8.767   3.086 133.455  0.00  0.00    +0.000 A 
ATOM     16  C   UNL     1      -7.994   3.774 134.391  0.00  0.00    +0.000 A 
ATOM     17  C   UNL     1      -7.904   5.167 134.349  0.00  0.00    +0.000 A 
ATOM     18  C   UNL     1      -8.536   5.868 133.326  0.00  0.00    +0.000 A 
ENDBRANCH  12  13
BRANCH   1  19
ATOM     19  C   UNL     1      -7.826   4.757 129.727  0.00  0.00    +0.000 C 
BRANCH  19  20
ATOM     20  N   UNL     1      -7.557   4.505 128.328  0.00  0.00    +0.000 N 
ATOM     21  C   UNL     1      -7.714   3.301 127.690  0.00  0.00    +0.000 A 
ATOM     22  N   UNL     1      -8.639   2.405 128.097  0.00  0.00    +0.000 NA
ATOM     23  C   UNL     1      -8.760   1.255 127.398  0.00  0.00    +0.000 A 
ATOM     24  N   UNL     1      -8.049   0.838 126.326  0.00  0.00    +0.000 NA
ATOM     25  C   UNL     1      -7.145   1.762 125.973  0.00  0.00    +0.000 A 
ATOM     26  C   UNL     1      -6.924   2.988 126.566  0.00  0.00    +0.000 A 
ATOM     27  N   UNL     1      -5.903   3.665 125.920  0.00  0.00    +0.000 NA
ATOM     28  C   UNL     1      -5.510   2.851 124.964  0.00  0.00    +0.000 A 
ATOM     29  N   UNL     1      -6.224   1.684 124.969  0.00  0.00    +0.000 N 
ATOM     30  H   UNL     1      -6.864   5.082 127.863  0.00  0.00    +0.000 HD
ATOM     31  H   UNL     1      -6.087   0.887 124.367  0.00  0.00    +0.000 HD
ENDBRANCH  19  20
BRANCH  19  32
ATOM     32  C   UNL     1      -6.516   5.370 130.273  0.00  0.00    +0.000 C 
ATOM     33  C   UNL     1      -5.740   4.508 131.248  0.00  0.00    +0.000 C 
ENDBRANCH  19  32
ENDBRANCH   1  19
TORSDOF 4
ENDMDL
MODEL 4
REMARK VINA RESULT:      -8.7      6.655      9.122
REMARK  Name = Idelalisib
REMARK  5 active torsions:
REMARK  status: ('A' for Active; 'I' for Inactive)
REMARK    1  A    between atoms: C_2  and  C_3
REMARK    2  A    between atoms: C_2  and  N_5
REMARK    3  A    between atoms: C_2  and  C_15
REMARK    4  A    between atoms: C_3  and  C_4
REMARK    5  A    between atoms: N_26  and  C_27
REMARK                            x       y       z     vdW  Elec       q    Type
REMARK                         _______ _______ _______ _____ _____    ______ ____
ROOT
ATOM      1  C   UNL     1      -6.607   4.693 129.983  0.00  0.00    +0.000 A 
ATOM      2  N   UNL     1      -5.910   4.871 128.895  0.00  0.00    +0.000 NA
ATOM      3  C   UNL     1      -4.614   5.378 128.961  0.00  0.00    +0.000 A 
ATOM      4  C   UNL     1      -3.972   5.792 127.787  0.00  0.00    +0.000 A 
ATOM      5  C   UNL     1      -2.738   6.443 127.856  0.00  0.00    +0.000 A 
ATOM      6  C   UNL     1      -2.042   6.467 129.061  0.00  0.00    +0.000 A 
ATOM      7  C   UNL     1      -2.647   5.983 130.209  0.00  0.00    +0.000 A 
ATOM      8  F   UNL     1      -1.937   5.961 131.344  0.00  0.00    +0.000 F 
ATOM      9  C   UNL     1      -3.962   5.542 130.170  0.00  0.00    +0.000 A 
ATOM     10  C   UNL     1      -4.710   5.288 131.391  0.00  0.00    +0.000 A 
ATOM     11  O   UNL     1      -4.151   5.464 132.483  0.00  0.00    +0.000 OA
ATOM     12  N   UNL     1      -6.031   4.875 131.243  0.00  0.00    +0.000 N 
ENDROOT
BRANCH  12  13
ATOM     13  C   UNL     1      -6.699   4.614 132.467  0.00  0.00    +0.000 A 
ATOM     14  C   UNL     1      -7.147   5.702 133.232  0.00  0.00    +0.000 A 
ATOM     15  C   UNL     1      -8.146   5.496 134.176  0.00  0.00    +0.000 A 
ATOM     16  C   UNL     1      -8.519   4.196 134.520  0.00  0.00    +0.000 A 
ATOM     17  C   UNL     1      -7.961   3.100 133.858  0.00  0.00    +0.000 A 
ATOM     18  C   UNL     1      -7.078   3.309 132.802  0.00  0.00    +0.000 A 
ENDBRANCH  12  13
BRANCH   1  19
ATOM     19  C   UNL     1      -8.123   4.284 129.748  0.00  0.00    +0.000 C 
BRANCH  19  20
ATOM     20  N   UNL     1      -8.969   5.388 129.348  0.00  0.00    +0.000 N 
ATOM     21  C   UNL     1     -10.079   5.826 130.025  0.00  0.00    +0.000 A 
ATOM     22  N   UNL     1     -10.184   5.693 131.366  0.00  0.00    +0.000 NA
ATOM     23  C   UNL     1     -11.290   6.182 131.967  0.00  0.00    +0.000 A 
ATOM     24  N   UNL     1     -12.363   6.784 131.405  0.00  0.00    +0.000 NA
ATOM     25  C   UNL     1     -12.206   6.881 130.078  0.00  0.00    +0.000 A 
ATOM     26  C   UNL     1     -11.128   6.460 129.328  0.00  0.00    +0.000 A 
ATOM     27  N   UNL     1     -11.330   6.732 127.985  0.00  0.00    +0.000 NA
ATOM     28  C   UNL     1     -12.518   7.295 127.931  0.00  0.00    +0.000 A 
ATOM     29  N   UNL     1     -13.089   7.392 129.171  0.00  0.00    +0.000 N 
ATOM     30  H   UNL     1      -9.024   5.615 128.361  0.00  0.00    +0.000 HD
ATOM     31  H   UNL     1     -14.008   7.745 129.389  0.00  0.00    +0.000 HD
ENDBRANCH  19  20
BRANCH  19  32
ATOM     32  C   UNL     1      -8.277   3.244 128.615  0.00  0.00    +0.000 C 
ATOM     33  C   UNL     1      -8.246   1.791 129.042  0.00  0.00    +0.000 C 
ENDBRANCH  19  32
ENDBRANCH   1  19
TORSDOF 4
ENDMDL
MODEL 5
REMARK VINA RESULT:      -8.6      3.731      7.294
REMARK  Name = Idelalisib
REMARK  5 active torsions:
REMARK  status: ('A' for Active; 'I' for Inactive)
REMARK    1  A    between atoms: C_2  and  C_3
REMARK    2  A    between atoms: C_2  and  N_5
REMARK    3  A    between atoms: C_2  and  C_15
REMARK    4  A    between atoms: C_3  and  C_4
REMARK    5  A    between atoms: N_26  and  C_27
REMARK                            x       y       z     vdW  Elec       q    Type
REMARK                         _______ _______ _______ _____ _____    ______ ____
ROOT
ATOM      1  C   UNL     1      -7.057   2.687 125.774  0.00  0.00    +0.000 A 
ATOM      2  N   UNL     1      -7.942   2.369 124.869  0.00  0.00    +0.000 NA
ATOM      3  C   UNL     1      -7.796   2.806 123.555  0.00  0.00    +0.000 A 
ATOM      4  C   UNL     1      -8.863   2.670 122.657  0.00  0.00    +0.000 A 
ATOM      5  C   UNL     1      -8.785   3.241 121.384  0.00  0.00    +0.000 A 
ATOM      6  C   UNL     1      -7.568   3.737 120.929  0.00  0.00    +0.000 A 
ATOM      7  C   UNL     1      -6.488   3.798 121.795  0.00  0.00    +0.000 A 
ATOM      8  F   UNL     1      -5.311   4.222 121.318  0.00  0.00    +0.000 F 
ATOM      9  C   UNL     1      -6.639   3.432 123.124  0.00  0.00    +0.000 A 
ATOM     10  C   UNL     1      -5.618   3.738 124.113  0.00  0.00    +0.000 A 
ATOM     11  O   UNL     1      -4.593   4.331 123.750  0.00  0.00    +0.000 OA
ATOM     12  N   UNL     1      -5.880   3.354 125.425  0.00  0.00    +0.000 N 
ENDROOT
BRANCH  12  13
ATOM     13  C   UNL     1      -4.836   3.651 126.338  0.00  0.00    +0.000 A 
ATOM     14  C   UNL     1      -3.781   2.734 126.471  0.00  0.00    +0.000 A 
ATOM     15  C   UNL     1      -2.573   3.171 127.004  0.00  0.00    +0.000 A 
ATOM     16  C   UNL     1      -2.496   4.424 127.614  0.00  0.00    +0.000 A 
ATOM     17  C   UNL     1      -3.597   5.282 127.612  0.00  0.00    +0.000 A 
ATOM     18  C   UNL     1      -4.758   4.912 126.938  0.00  0.00    +0.000 A 
ENDBRANCH  12  13
BRANCH   1  19
ATOM     19  C   UNL     1      -7.442   2.277 127.259  0.00  0.00    +0.000 C 
BRANCH  19  20
ATOM     20  N   UNL     1      -8.070   3.339 128.013  0.00  0.00    +0.000 N 
ATOM     21  C   UNL     1      -8.113   3.427 129.381  0.00  0.00    +0.000 A 
ATOM     22  N   UNL     1      -7.137   2.899 130.152  0.00  0.00    +0.000 NA
ATOM     23  C   UNL     1      -7.230   3.057 131.490  0.00  0.00    +0.000 A 
ATOM     24  N   UNL     1      -8.204   3.663 132.205  0.00  0.00    +0.000 NA
ATOM     25  C   UNL     1      -9.145   4.160 131.391  0.00  0.00    +0.000 A 
ATOM     26  C   UNL     1      -9.175   4.106 130.013  0.00  0.00    +0.000 A 
ATOM     27  N   UNL     1     -10.311   4.730 129.525  0.00  0.00    +0.000 NA
ATOM     28  C   UNL     1     -10.958   5.138 130.595  0.00  0.00    +0.000 A 
ATOM     29  N   UNL     1     -10.296   4.802 131.745  0.00  0.00    +0.000 N 
ATOM     30  H   UNL     1      -8.845   3.835 127.586  0.00  0.00    +0.000 HD
ATOM     31  H   UNL     1     -10.605   4.965 132.691  0.00  0.00    +0.000 HD
ENDBRANCH  19  20
BRANCH  19  32
ATOM     32  C   UNL     1      -8.461   1.115 127.297  0.00  0.00    +0.000 C 
ATOM     33  C   UNL     1      -7.874  -0.276 127.428  0.00  0.00    +0.000 C 
ENDBRANCH  19  32
ENDBRANCH   1  19
TORSDOF 4
ENDMDL
MODEL 6
REMARK VINA RESULT:      -8.5      7.525      9.942
REMARK  Name = Idelalisib
REMARK  5 active torsions:
REMARK  status: ('A' for Active; 'I' for Inactive)
REMARK    1  A    between atoms: C_2  and  C_3
REMARK    2  A    between atoms: C_2  and  N_5
REMARK    3  A    between atoms: C_2  and  C_15
REMARK    4  A    between atoms: C_3  and  C_4
REMARK    5  A    between atoms: N_26  and  C_27
REMARK                            x       y       z     vdW  Elec       q    Type
REMARK                         _______ _______ _______ _____ _____    ______ ____
ROOT
ATOM      1  C   UNL     1      -8.983   5.657 129.899  0.00  0.00    +0.000 A 
ATOM      2  N   UNL     1      -9.422   6.191 128.793  0.00  0.00    +0.000 NA
ATOM      3  C   UNL     1     -10.644   6.858 128.766  0.00  0.00    +0.000 A 
ATOM      4  C   UNL     1     -11.216   7.209 127.537  0.00  0.00    +0.000 A 
ATOM      5  C   UNL     1     -12.509   7.737 127.490  0.00  0.00    +0.000 A 
ATOM      6  C   UNL     1     -13.131   8.131 128.671  0.00  0.00    +0.000 A 
ATOM      7  C   UNL     1     -12.527   7.855 129.886  0.00  0.00    +0.000 A 
ATOM      8  F   UNL     1     -13.115   8.297 131.006  0.00  0.00    +0.000 F 
ATOM      9  C   UNL     1     -11.346   7.130 129.929  0.00  0.00    +0.000 A 
ATOM     10  C   UNL     1     -10.834   6.591 131.178  0.00  0.00    +0.000 A 
ATOM     11  O   UNL     1     -11.468   6.795 132.223  0.00  0.00    +0.000 OA
ATOM     12  N   UNL     1      -9.655   5.854 131.108  0.00  0.00    +0.000 N 
ENDROOT
BRANCH  12  13
ATOM     13  C   UNL     1      -9.189   5.380 132.361  0.00  0.00    +0.000 A 
ATOM     14  C   UNL     1      -9.580   4.099 132.781  0.00  0.00    +0.000 A 
ATOM     15  C   UNL     1      -8.827   3.451 133.754  0.00  0.00    +0.000 A 
ATOM     16  C   UNL     1      -7.856   4.157 134.466  0.00  0.00    +0.000 A 
ATOM     17  C   UNL     1      -7.569   5.485 134.145  0.00  0.00    +0.000 A 
ATOM     18  C   UNL     1      -8.208   6.088 133.065  0.00  0.00    +0.000 A 
ENDBRANCH  12  13
BRANCH   1  19
ATOM     19  C   UNL     1      -7.671   4.777 129.742  0.00  0.00    +0.000 C 
BRANCH  19  20
ATOM     20  N   UNL     1      -6.565   5.227 130.560  0.00  0.00    +0.000 N 
ATOM     21  C   UNL     1      -5.273   5.392 130.131  0.00  0.00    +0.000 A 
ATOM     22  N   UNL     1      -4.992   5.712 128.849  0.00  0.00    +0.000 NA
ATOM     23  C   UNL     1      -3.697   5.893 128.510  0.00  0.00    +0.000 A 
ATOM     24  N   UNL     1      -2.595   5.772 129.282  0.00  0.00    +0.000 NA
ATOM     25  C   UNL     1      -2.933   5.448 130.538  0.00  0.00    +0.000 A 
ATOM     26  C   UNL     1      -4.204   5.260 131.040  0.00  0.00    +0.000 A 
ATOM     27  N   UNL     1      -4.153   4.933 132.386  0.00  0.00    +0.000 NA
ATOM     28  C   UNL     1      -2.871   4.912 132.679  0.00  0.00    +0.000 A 
ATOM     29  N   UNL     1      -2.098   5.204 131.588  0.00  0.00    +0.000 N 
ATOM     30  H   UNL     1      -6.604   5.048 131.558  0.00  0.00    +0.000 HD
ATOM     31  H   UNL     1      -1.090   5.210 131.544  0.00  0.00    +0.000 HD
ENDBRANCH  19  20
BRANCH  19  32
ATOM     32  C   UNL     1      -7.900   3.309 130.170  0.00  0.00    +0.000 C 
ATOM     33  C   UNL     1      -9.014   2.576 129.450  0.00  0.00    +0.000 C 
ENDBRANCH  19  32
ENDBRANCH   1  19
TORSDOF 4
ENDMDL
MODEL 7
REMARK VINA RESULT:      -8.4      5.665      8.410
REMARK  Name = Idelalisib
REMARK  5 active torsions:
REMARK  status: ('A' for Active; 'I' for Inactive)
REMARK    1  A    between atoms: C_2  and  C_3
REMARK    2  A    between atoms: C_2  and  N_5
REMARK    3  A    between atoms: C_2  and  C_15
REMARK    4  A    between atoms: C_3  and  C_4
REMARK    5  A    between atoms: N_26  and  C_27
REMARK                            x       y       z     vdW  Elec       q    Type
REMARK                         _______ _______ _______ _____ _____    ______ ____
ROOT
ATOM      1  C   UNL     1      -7.371   4.166 129.683  0.00  0.00    +0.000 A 
ATOM      2  N   UNL     1      -7.343   4.022 128.387  0.00  0.00    +0.000 NA
ATOM      3  C   UNL     1      -6.129   3.960 127.708  0.00  0.00    +0.000 A 
ATOM      4  C   UNL     1      -6.110   4.052 126.311  0.00  0.00    +0.000 A 
ATOM      5  C   UNL     1      -4.894   4.147 125.630  0.00  0.00    +0.000 A 
ATOM      6  C   UNL     1      -3.706   3.914 126.316  0.00  0.00    +0.000 A 
ATOM      7  C   UNL     1      -3.732   3.742 127.690  0.00  0.00    +0.000 A 
ATOM      8  F   UNL     1      -2.585   3.458 128.320  0.00  0.00    +0.000 F 
ATOM      9  C   UNL     1      -4.925   3.872 128.385  0.00  0.00    +0.000 A 
ATOM     10  C   UNL     1      -4.947   3.970 129.836  0.00  0.00    +0.000 A 
ATOM     11  O   UNL     1      -3.875   3.929 130.455  0.00  0.00    +0.000 OA
ATOM     12  N   UNL     1      -6.194   4.127 130.436  0.00  0.00    +0.000 N 
ENDROOT
BRANCH  12  13
ATOM     13  C   UNL     1      -6.155   4.186 131.852  0.00  0.00    +0.000 A 
ATOM     14  C   UNL     1      -6.136   5.447 132.470  0.00  0.00    +0.000 A 
ATOM     15  C   UNL     1      -6.523   5.550 133.801  0.00  0.00    +0.000 A 
ATOM     16  C   UNL     1      -6.691   4.396 134.567  0.00  0.00    +0.000 A 
ATOM     17  C   UNL     1      -6.563   3.134 133.984  0.00  0.00    +0.000 A 
ATOM     18  C   UNL     1      -6.334   3.027 132.615  0.00  0.00    +0.000 A 
ENDBRANCH  12  13
BRANCH   1  19
ATOM     19  C   UNL     1      -8.814   4.403 130.300  0.00  0.00    +0.000 C 
BRANCH  19  20
ATOM     20  N   UNL     1      -9.579   5.425 129.619  0.00  0.00    +0.000 N 
ATOM     21  C   UNL     1     -10.731   6.003 130.088  0.00  0.00    +0.000 A 
ATOM     22  N   UNL     1     -10.967   6.129 131.412  0.00  0.00    +0.000 NA
ATOM     23  C   UNL     1     -12.108   6.741 131.798  0.00  0.00    +0.000 A 
ATOM     24  N   UNL     1     -13.100   7.244 131.030  0.00  0.00    +0.000 NA
ATOM     25  C   UNL     1     -12.815   7.085 129.730  0.00  0.00    +0.000 A 
ATOM     26  C   UNL     1     -11.686   6.511 129.184  0.00  0.00    +0.000 A 
ATOM     27  N   UNL     1     -11.751   6.527 127.800  0.00  0.00    +0.000 NA
ATOM     28  C   UNL     1     -12.907   7.089 127.524  0.00  0.00    +0.000 A 
ATOM     29  N   UNL     1     -13.589   7.430 128.660  0.00  0.00    +0.000 N 
ATOM     30  H   UNL     1      -9.532   5.462 128.606  0.00  0.00    +0.000 HD
ATOM     31  H   UNL     1     -14.512   7.834 128.716  0.00  0.00    +0.000 HD
ENDBRANCH  19  20
BRANCH  19  32
ATOM     32  C   UNL     1      -9.697   3.136 130.220  0.00  0.00    +0.000 C 
ATOM     33  C   UNL     1      -9.856   2.358 131.511  0.00  0.00    +0.000 C 
ENDBRANCH  19  32
ENDBRANCH   1  19
TORSDOF 4
ENDMDL
MODEL 8
REMARK VINA RESULT:      -8.4      4.220      8.585
REMARK  Name = Idelalisib
REMARK  5 active torsions:
REMARK  status: ('A' for Active; 'I' for Inactive)
REMARK    1  A    between atoms: C_2  and  C_3
REMARK    2  A    between atoms: C_2  and  N_5
REMARK    3  A    between atoms: C_2  and  C_15
REMARK    4  A    between atoms: C_3  and  C_4
REMARK    5  A    between atoms: N_26  and  C_27
REMARK                            x       y       z     vdW  Elec       q    Type
REMARK                         _______ _______ _______ _____ _____    ______ ____
ROOT
ATOM      1  C   UNL     1      -6.354   0.061 126.430  0.00  0.00    +0.000 A 
ATOM      2  N   UNL     1      -5.927   1.253 126.748  0.00  0.00    +0.000 NA
ATOM      3  C   UNL     1      -5.885   2.266 125.794  0.00  0.00    +0.000 A 
ATOM      4  C   UNL     1      -5.203   3.456 126.076  0.00  0.00    +0.000 A 
ATOM      5  C   UNL     1      -5.022   4.415 125.076  0.00  0.00    +0.000 A 
ATOM      6  C   UNL     1      -5.716   4.293 123.876  0.00  0.00    +0.000 A 
ATOM      7  C   UNL     1      -6.456   3.148 123.628  0.00  0.00    +0.000 A 
ATOM      8  F   UNL     1      -7.164   3.080 122.494  0.00  0.00    +0.000 F 
ATOM      9  C   UNL     1      -6.449   2.103 124.540  0.00  0.00    +0.000 A 
ATOM     10  C   UNL     1      -6.983   0.795 124.194  0.00  0.00    +0.000 A 
ATOM     11  O   UNL     1      -7.460   0.623 123.064  0.00  0.00    +0.000 OA
ATOM     12  N   UNL     1      -6.903  -0.194 125.171  0.00  0.00    +0.000 N 
ENDROOT
BRANCH  12  13
ATOM     13  C   UNL     1      -7.467  -1.437 124.788  0.00  0.00    +0.000 A 
ATOM     14  C   UNL     1      -6.607  -2.457 124.351  0.00  0.00    +0.000 A 
ATOM     15  C   UNL     1      -7.053  -3.773 124.383  0.00  0.00    +0.000 A 
ATOM     16  C   UNL     1      -8.403  -4.044 124.611  0.00  0.00    +0.000 A 
ATOM     17  C   UNL     1      -9.294  -3.008 124.900  0.00  0.00    +0.000 A 
ATOM     18  C   UNL     1      -8.819  -1.705 125.028  0.00  0.00    +0.000 A 
ENDBRANCH  12  13
BRANCH   1  19
ATOM     19  C   UNL     1      -6.177  -1.037 127.563  0.00  0.00    +0.000 C 
BRANCH  19  20
ATOM     20  N   UNL     1      -5.205  -0.681 128.574  0.00  0.00    +0.000 N 
ATOM     21  C   UNL     1      -4.527  -1.566 129.374  0.00  0.00    +0.000 A 
ATOM     22  N   UNL     1      -4.243  -2.818 128.954  0.00  0.00    +0.000 NA
ATOM     23  C   UNL     1      -3.540  -3.620 129.783  0.00  0.00    +0.000 A 
ATOM     24  N   UNL     1      -3.083  -3.358 131.029  0.00  0.00    +0.000 NA
ATOM     25  C   UNL     1      -3.400  -2.108 131.393  0.00  0.00    +0.000 A 
ATOM     26  C   UNL     1      -4.082  -1.167 130.650  0.00  0.00    +0.000 A 
ATOM     27  N   UNL     1      -4.219   0.012 131.365  0.00  0.00    +0.000 NA
ATOM     28  C   UNL     1      -3.640  -0.226 132.521  0.00  0.00    +0.000 A 
ATOM     29  N   UNL     1      -3.144  -1.499 132.587  0.00  0.00    +0.000 N 
ATOM     30  H   UNL     1      -5.285   0.229 129.014  0.00  0.00    +0.000 HD
ATOM     31  H   UNL     1      -2.695  -1.935 133.378  0.00  0.00    +0.000 HD
ENDBRANCH  19  20
BRANCH  19  32
ATOM     32  C   UNL     1      -7.487  -1.280 128.349  0.00  0.00    +0.000 C 
ATOM     33  C   UNL     1      -7.922  -2.725 128.479  0.00  0.00    +0.000 C 
ENDBRANCH  19  32
ENDBRANCH   1  19
TORSDOF 4
ENDMDL
MODEL 9
REMARK VINA RESULT:      -8.0      6.334      8.326
REMARK  Name = Idelalisib
REMARK  5 active torsions:
REMARK  status: ('A' for Active; 'I' for Inactive)
REMARK    1  A    between atoms: C_2  and  C_3
REMARK    2  A    between atoms: C_2  and  N_5
REMARK    3  A    between atoms: C_2  and  C_15
REMARK    4  A    between atoms: C_3  and  C_4
REMARK    5  A    between atoms: N_26  and  C_27
REMARK                            x       y       z     vdW  Elec       q    Type
REMARK                         _______ _______ _______ _____ _____    ______ ____
ROOT
ATOM      1  C   UNL     1      -7.303   3.756 130.473  0.00  0.00    +0.000 A 
ATOM      2  N   UNL     1      -8.087   3.006 131.199  0.00  0.00    +0.000 NA
ATOM      3  C   UNL     1      -7.863   1.635 131.295  0.00  0.00    +0.000 A 
ATOM      4  C   UNL     1      -8.841   0.812 131.868  0.00  0.00    +0.000 A 
ATOM      5  C   UNL     1      -8.697  -0.578 131.831  0.00  0.00    +0.000 A 
ATOM      6  C   UNL     1      -7.482  -1.130 131.440  0.00  0.00    +0.000 A 
ATOM      7  C   UNL     1      -6.483  -0.306 130.947  0.00  0.00    +0.000 A 
ATOM      8  F   UNL     1      -5.301  -0.852 130.634  0.00  0.00    +0.000 F 
ATOM      9  C   UNL     1      -6.719   1.051 130.780  0.00  0.00    +0.000 A 
ATOM     10  C   UNL     1      -5.805   1.888 130.020  0.00  0.00    +0.000 A 
ATOM     11  O   UNL     1      -4.794   1.373 129.523  0.00  0.00    +0.000 OA
ATOM     12  N   UNL     1      -6.148   3.231 129.888  0.00  0.00    +0.000 N 
ENDROOT
BRANCH  12  13
ATOM     13  C   UNL     1      -5.204   4.004 129.163  0.00  0.00    +0.000 A 
ATOM     14  C   UNL     1      -4.018   4.390 129.807  0.00  0.00    +0.000 A 
ATOM     15  C   UNL     1      -2.922   4.756 129.035  0.00  0.00    +0.000 A 
ATOM     16  C   UNL     1      -3.077   4.968 127.665  0.00  0.00    +0.000 A 
ATOM     17  C   UNL     1      -4.304   4.726 127.045  0.00  0.00    +0.000 A 
ATOM     18  C   UNL     1      -5.361   4.205 127.788  0.00  0.00    +0.000 A 
ENDBRANCH  12  13
BRANCH   1  19
ATOM     19  C   UNL     1      -7.781   5.261 130.308  0.00  0.00    +0.000 C 
BRANCH  19  20
ATOM     20  N   UNL     1      -9.211   5.436 130.437  0.00  0.00    +0.000 N 
ATOM     21  C   UNL     1      -9.993   6.220 129.627  0.00  0.00    +0.000 A 
ATOM     22  N   UNL     1      -9.667   6.444 128.335  0.00  0.00    +0.000 NA
ATOM     23  C   UNL     1     -10.505   7.197 127.591  0.00  0.00    +0.000 A 
ATOM     24  N   UNL     1     -11.652   7.807 127.964  0.00  0.00    +0.000 NA
ATOM     25  C   UNL     1     -11.920   7.557 129.252  0.00  0.00    +0.000 A 
ATOM     26  C   UNL     1     -11.183   6.787 130.128  0.00  0.00    +0.000 A 
ATOM     27  N   UNL     1     -11.779   6.763 131.378  0.00  0.00    +0.000 NA
ATOM     28  C   UNL     1     -12.849   7.518 131.255  0.00  0.00    +0.000 A 
ATOM     29  N   UNL     1     -12.966   8.029 129.992  0.00  0.00    +0.000 N 
ATOM     30  H   UNL     1      -9.626   5.323 131.355  0.00  0.00    +0.000 HD
ATOM     31  H   UNL     1     -13.673   8.666 129.659  0.00  0.00    +0.000 HD
ENDBRANCH  19  20
BRANCH  19  32
ATOM     32  C   UNL     1      -7.175   6.186 131.389  0.00  0.00    +0.000 C 
ATOM     33  C   UNL     1      -6.108   7.150 130.913  0.00  0.00    +0.000 C 
ENDBRANCH  19  32
ENDBRANCH   1  19
TORSDOF 4
ENDMDL
