MODEL 1
REMARK VINA RESULT:      -6.5      0.000      0.000
REMARK  Name = Idoxuridine
REMARK  4 active torsions:
REMARK  status: ('A' for Active; 'I' for Inactive)
REMARK    1  A    between atoms: O5*_1  and  C5*_2
REMARK    2  A    between atoms: C5*_2  and  C4*_3
REMARK    3  A    between atoms: C1*_5  and  N_9
REMARK    4  A    between atoms: C3*_7  and  O3*_8
REMARK                            x       y       z     vdW  Elec       q    Type
REMARK                         _______ _______ _______ _____ _____    ______ ____
ROOT
ATOM      1  C4* UNL     1     -12.139   7.434 127.278  0.00  0.00    +0.000 C 
ATOM      2  O4* UNL     1     -11.986   6.348 128.223  0.00  0.00    +0.000 OA
ATOM      3  C1* UNL     1     -12.158   6.860 129.559  0.00  0.00    +0.000 C 
ATOM      4  C2* UNL     1     -11.989   8.370 129.488  0.00  0.00    +0.000 C 
ATOM      5  C3* UNL     1     -12.457   8.689 128.089  0.00  0.00    +0.000 C 
ENDROOT
BRANCH   3   6
ATOM      6  N   UNL     1     -11.220   6.200 130.466  0.00  0.00    +0.000 N 
ATOM      7  C   UNL     1     -10.154   5.481 129.951  0.00  0.00    +0.000 A 
ATOM      8  C   UNL     1      -9.353   4.718 130.705  0.00  0.00    +0.000 A 
ATOM      9  I   UNL     1      -7.903   3.527 129.902  0.00  0.00    +0.000 I 
ATOM     10  C   UNL     1      -9.581   4.737 132.173  0.00  0.00    +0.000 A 
ATOM     11  O   UNL     1      -8.976   4.010 132.961  0.00  0.00    +0.000 OA
ATOM     12  N   UNL     1     -10.519   5.629 132.616  0.00  0.00    +0.000 N 
ATOM     13  C   UNL     1     -11.458   6.254 131.833  0.00  0.00    +0.000 A 
ATOM     14  O   UNL     1     -12.421   6.808 132.354  0.00  0.00    +0.000 OA
ATOM     15  H   UNL     1     -10.680   5.650 133.610  0.00  0.00    +0.000 HD
ENDBRANCH   3   6
BRANCH   5  16
ATOM     16  O3* UNL     1     -13.871   8.923 128.111  0.00  0.00    +0.000 OA
ATOM     17  H3* UNL     1     -14.057   9.688 128.685  0.00  0.00    +0.000 HD
ENDBRANCH   5  16
BRANCH   1  18
ATOM     18  C5* UNL     1     -10.883   7.544 126.403  0.00  0.00    +0.000 C 
BRANCH  18  19
ATOM     19  O5* UNL     1     -10.239   6.287 126.218  0.00  0.00    +0.000 OA
ATOM     20  H5* UNL     1     -10.093   6.192 125.259  0.00  0.00    +0.000 HD
ENDBRANCH  18  19
ENDBRANCH   1  18
TORSDOF 4
ENDMDL
MODEL 2
REMARK VINA RESULT:      -6.1      1.900      2.485
REMARK  Name = Idoxuridine
REMARK  4 active torsions:
REMARK  status: ('A' for Active; 'I' for Inactive)
REMARK    1  A    between atoms: O5*_1  and  C5*_2
REMARK    2  A    between atoms: C5*_2  and  C4*_3
REMARK    3  A    between atoms: C1*_5  and  N_9
REMARK    4  A    between atoms: C3*_7  and  O3*_8
REMARK                            x       y       z     vdW  Elec       q    Type
REMARK                         _______ _______ _______ _____ _____    ______ ____
ROOT
ATOM      1  C4* UNL     1     -12.594   7.388 127.950  0.00  0.00    +0.000 C 
ATOM      2  O4* UNL     1     -12.207   6.369 128.902  0.00  0.00    +0.000 OA
ATOM      3  C1* UNL     1     -11.151   6.882 129.738  0.00  0.00    +0.000 C 
ATOM      4  C2* UNL     1     -10.561   8.091 129.026  0.00  0.00    +0.000 C 
ATOM      5  C3* UNL     1     -11.738   8.620 128.243  0.00  0.00    +0.000 C 
ENDROOT
BRANCH   3   6
ATOM      6  N   UNL     1     -10.181   5.824 130.014  0.00  0.00    +0.000 N 
ATOM      7  C   UNL     1     -10.089   5.288 131.288  0.00  0.00    +0.000 A 
ATOM      8  C   UNL     1      -9.121   4.441 131.657  0.00  0.00    +0.000 A 
ATOM      9  I   UNL     1      -8.899   3.807 133.585  0.00  0.00    +0.000 I 
ATOM     10  C   UNL     1      -8.171   3.993 130.606  0.00  0.00    +0.000 A 
ATOM     11  O   UNL     1      -7.187   3.293 130.838  0.00  0.00    +0.000 OA
ATOM     12  N   UNL     1      -8.456   4.409 129.335  0.00  0.00    +0.000 N 
ATOM     13  C   UNL     1      -9.321   5.422 129.001  0.00  0.00    +0.000 A 
ATOM     14  O   UNL     1      -9.295   5.903 127.872  0.00  0.00    +0.000 OA
ATOM     15  H   UNL     1      -7.818   4.109 128.614  0.00  0.00    +0.000 HD
ENDBRANCH   3   6
BRANCH   5  16
ATOM     16  O3* UNL     1     -12.463   9.548 129.059  0.00  0.00    +0.000 OA
ATOM     17  H3* UNL     1     -12.601  10.372 128.559  0.00  0.00    +0.000 HD
ENDBRANCH   5  16
BRANCH   1  18
ATOM     18  C5* UNL     1     -12.457   6.845 126.521  0.00  0.00    +0.000 C 
BRANCH  18  19
ATOM     19  O5* UNL     1     -11.103   6.810 126.082  0.00  0.00    +0.000 OA
ATOM     20  H5* UNL     1     -10.660   7.573 126.496  0.00  0.00    +0.000 HD
ENDBRANCH  18  19
ENDBRANCH   1  18
TORSDOF 4
ENDMDL
MODEL 3
REMARK VINA RESULT:      -5.9      2.211      3.030
REMARK  Name = Idoxuridine
REMARK  4 active torsions:
REMARK  status: ('A' for Active; 'I' for Inactive)
REMARK    1  A    between atoms: O5*_1  and  C5*_2
REMARK    2  A    between atoms: C5*_2  and  C4*_3
REMARK    3  A    between atoms: C1*_5  and  N_9
REMARK    4  A    between atoms: C3*_7  and  O3*_8
REMARK                            x       y       z     vdW  Elec       q    Type
REMARK                         _______ _______ _______ _____ _____    ______ ____
ROOT
ATOM      1  C4* UNL     1     -12.648   6.765 129.298  0.00  0.00    +0.000 C 
ATOM      2  O4* UNL     1     -12.087   5.431 129.296  0.00  0.00    +0.000 OA
ATOM      3  C1* UNL     1     -11.357   5.225 130.521  0.00  0.00    +0.000 C 
ATOM      4  C2* UNL     1     -11.086   6.598 131.119  0.00  0.00    +0.000 C 
ATOM      5  C3* UNL     1     -12.261   7.409 130.629  0.00  0.00    +0.000 C 
ENDROOT
BRANCH   3   6
ATOM      6  N   UNL     1     -10.149   4.447 130.251  0.00  0.00    +0.000 N 
ATOM      7  C   UNL     1     -10.022   3.169 130.771  0.00  0.00    +0.000 A 
ATOM      8  C   UNL     1      -8.887   2.463 130.708  0.00  0.00    +0.000 A 
ATOM      9  I   UNL     1      -8.668   0.660 131.639  0.00  0.00    +0.000 I 
ATOM     10  C   UNL     1      -7.755   3.061 129.954  0.00  0.00    +0.000 A 
ATOM     11  O   UNL     1      -6.634   2.556 129.903  0.00  0.00    +0.000 OA
ATOM     12  N   UNL     1      -8.031   4.230 129.300  0.00  0.00    +0.000 N 
ATOM     13  C   UNL     1      -9.120   5.035 129.529  0.00  0.00    +0.000 A 
ATOM     14  O   UNL     1      -9.132   6.186 129.102  0.00  0.00    +0.000 OA
ATOM     15  H   UNL     1      -7.270   4.643 128.784  0.00  0.00    +0.000 HD
ENDBRANCH   3   6
BRANCH   5  16
ATOM     16  O3* UNL     1     -13.335   7.293 131.570  0.00  0.00    +0.000 OA
ATOM     17  H3* UNL     1     -12.989   7.448 132.468  0.00  0.00    +0.000 HD
ENDBRANCH   5  16
BRANCH   1  18
ATOM     18  C5* UNL     1     -12.171   7.534 128.058  0.00  0.00    +0.000 C 
BRANCH  18  19
ATOM     19  O5* UNL     1     -11.348   6.738 127.211  0.00  0.00    +0.000 OA
ATOM     20  H5* UNL     1     -11.379   5.832 127.570  0.00  0.00    +0.000 HD
ENDBRANCH  18  19
ENDBRANCH   1  18
TORSDOF 4
ENDMDL
MODEL 4
REMARK VINA RESULT:      -5.7      8.083      9.800
REMARK  Name = Idoxuridine
REMARK  4 active torsions:
REMARK  status: ('A' for Active; 'I' for Inactive)
REMARK    1  A    between atoms: O5*_1  and  C5*_2
REMARK    2  A    between atoms: C5*_2  and  C4*_3
REMARK    3  A    between atoms: C1*_5  and  N_9
REMARK    4  A    between atoms: C3*_7  and  O3*_8
REMARK                            x       y       z     vdW  Elec       q    Type
REMARK                         _______ _______ _______ _____ _____    ______ ____
ROOT
ATOM      1  C4* UNL     1      -8.059  -2.931 124.543  0.00  0.00    +0.000 C 
ATOM      2  O4* UNL     1      -8.336  -1.681 125.219  0.00  0.00    +0.000 OA
ATOM      3  C1* UNL     1      -9.244  -0.902 124.416  0.00  0.00    +0.000 C 
ATOM      4  C2* UNL     1      -9.205  -1.477 123.007  0.00  0.00    +0.000 C 
ATOM      5  C3* UNL     1      -8.879  -2.931 123.254  0.00  0.00    +0.000 C 
ENDROOT
BRANCH   3   6
ATOM      6  N   UNL     1      -8.880   0.512 124.489  0.00  0.00    +0.000 N 
ATOM      7  C   UNL     1      -7.612   0.877 124.911  0.00  0.00    +0.000 A 
ATOM      8  C   UNL     1      -7.261   2.144 125.160  0.00  0.00    +0.000 A 
ATOM      9  I   UNL     1      -5.446   2.639 125.954  0.00  0.00    +0.000 I 
ATOM     10  C   UNL     1      -8.265   3.199 124.870  0.00  0.00    +0.000 A 
ATOM     11  O   UNL     1      -8.098   4.387 125.144  0.00  0.00    +0.000 OA
ATOM     12  N   UNL     1      -9.415   2.771 124.264  0.00  0.00    +0.000 N 
ATOM     13  C   UNL     1      -9.843   1.468 124.194  0.00  0.00    +0.000 A 
ATOM     14  O   UNL     1     -11.005   1.220 123.886  0.00  0.00    +0.000 OA
ATOM     15  H   UNL     1     -10.103   3.479 124.062  0.00  0.00    +0.000 HD
ENDBRANCH   3   6
BRANCH   5  16
ATOM     16  O3* UNL     1     -10.099  -3.659 123.437  0.00  0.00    +0.000 OA
ATOM     17  H3* UNL     1     -10.647  -3.569 122.637  0.00  0.00    +0.000 HD
ENDBRANCH   5  16
BRANCH   1  18
ATOM     18  C5* UNL     1      -6.547  -3.088 124.335  0.00  0.00    +0.000 C 
BRANCH  18  19
ATOM     19  O5* UNL     1      -5.793  -2.172 125.124  0.00  0.00    +0.000 OA
ATOM     20  H5* UNL     1      -4.880  -2.513 125.143  0.00  0.00    +0.000 HD
ENDBRANCH  18  19
ENDBRANCH   1  18
TORSDOF 4
ENDMDL
MODEL 5
REMARK VINA RESULT:      -5.6      8.221     10.079
REMARK  Name = Idoxuridine
REMARK  4 active torsions:
REMARK  status: ('A' for Active; 'I' for Inactive)
REMARK    1  A    between atoms: O5*_1  and  C5*_2
REMARK    2  A    between atoms: C5*_2  and  C4*_3
REMARK    3  A    between atoms: C1*_5  and  N_9
REMARK    4  A    between atoms: C3*_7  and  O3*_8
REMARK                            x       y       z     vdW  Elec       q    Type
REMARK                         _______ _______ _______ _____ _____    ______ ____
ROOT
ATOM      1  C4* UNL     1      -9.393  -2.576 125.500  0.00  0.00    +0.000 C 
ATOM      2  O4* UNL     1      -9.446  -1.136 125.367  0.00  0.00    +0.000 OA
ATOM      3  C1* UNL     1      -9.087  -0.773 124.020  0.00  0.00    +0.000 C 
ATOM      4  C2* UNL     1      -8.375  -1.971 123.406  0.00  0.00    +0.000 C 
ATOM      5  C3* UNL     1      -9.005  -3.135 124.132  0.00  0.00    +0.000 C 
ENDROOT
BRANCH   3   6
ATOM      6  N   UNL     1      -8.285   0.449 124.034  0.00  0.00    +0.000 N 
ATOM      7  C   UNL     1      -7.199   0.552 124.888  0.00  0.00    +0.000 A 
ATOM      8  C   UNL     1      -6.522   1.691 125.076  0.00  0.00    +0.000 A 
ATOM      9  I   UNL     1      -5.043   1.865 126.473  0.00  0.00    +0.000 I 
ATOM     10  C   UNL     1      -6.911   2.860 124.247  0.00  0.00    +0.000 A 
ATOM     11  O   UNL     1      -6.431   3.983 124.392  0.00  0.00    +0.000 OA
ATOM     12  N   UNL     1      -7.854   2.616 123.286  0.00  0.00    +0.000 N 
ATOM     13  C   UNL     1      -8.672   1.514 123.231  0.00  0.00    +0.000 A 
ATOM     14  O   UNL     1      -9.663   1.521 122.507  0.00  0.00    +0.000 OA
ATOM     15  H   UNL     1      -8.124   3.402 122.716  0.00  0.00    +0.000 HD
ENDBRANCH   3   6
BRANCH   5  16
ATOM     16  O3* UNL     1     -10.172  -3.556 123.415  0.00  0.00    +0.000 OA
ATOM     17  H3* UNL     1     -10.836  -3.880 124.050  0.00  0.00    +0.000 HD
ENDBRANCH   5  16
BRANCH   1  18
ATOM     18  C5* UNL     1      -8.437  -2.960 126.637  0.00  0.00    +0.000 C 
BRANCH  18  19
ATOM     19  O5* UNL     1      -8.983  -3.963 127.489  0.00  0.00    +0.000 OA
ATOM     20  H5* UNL     1      -9.951  -3.919 127.379  0.00  0.00    +0.000 HD
ENDBRANCH  18  19
ENDBRANCH   1  18
TORSDOF 4
ENDMDL
MODEL 6
REMARK VINA RESULT:      -5.5      2.101      2.749
REMARK  Name = Idoxuridine
REMARK  4 active torsions:
REMARK  status: ('A' for Active; 'I' for Inactive)
REMARK    1  A    between atoms: O5*_1  and  C5*_2
REMARK    2  A    between atoms: C5*_2  and  C4*_3
REMARK    3  A    between atoms: C1*_5  and  N_9
REMARK    4  A    between atoms: C3*_7  and  O3*_8
REMARK                            x       y       z     vdW  Elec       q    Type
REMARK                         _______ _______ _______ _____ _____    ______ ____
ROOT
ATOM      1  C4* UNL     1     -12.119   7.973 129.271  0.00  0.00    +0.000 C 
ATOM      2  O4* UNL     1     -11.624   7.524 130.555  0.00  0.00    +0.000 OA
ATOM      3  C1* UNL     1     -10.271   7.054 130.399  0.00  0.00    +0.000 C 
ATOM      4  C2* UNL     1     -10.052   6.797 128.915  0.00  0.00    +0.000 C 
ATOM      5  C3* UNL     1     -10.981   7.794 128.267  0.00  0.00    +0.000 C 
ENDROOT
BRANCH   3   6
ATOM      6  N   UNL     1     -10.056   5.879 131.242  0.00  0.00    +0.000 N 
ATOM      7  C   UNL     1      -9.252   5.975 132.366  0.00  0.00    +0.000 A 
ATOM      8  C   UNL     1      -8.877   4.913 133.090  0.00  0.00    +0.000 A 
ATOM      9  I   UNL     1      -7.546   5.056 134.631  0.00  0.00    +0.000 I 
ATOM     10  C   UNL     1      -9.442   3.594 132.707  0.00  0.00    +0.000 A 
ATOM     11  O   UNL     1      -9.102   2.534 133.232  0.00  0.00    +0.000 OA
ATOM     12  N   UNL     1     -10.385   3.619 131.716  0.00  0.00    +0.000 N 
ATOM     13  C   UNL     1     -10.615   4.667 130.859  0.00  0.00    +0.000 A 
ATOM     14  O   UNL     1     -11.275   4.491 129.839  0.00  0.00    +0.000 OA
ATOM     15  H   UNL     1     -10.776   2.729 131.450  0.00  0.00    +0.000 HD
ENDBRANCH   3   6
BRANCH   5  16
ATOM     16  O3* UNL     1     -10.282   9.031 128.080  0.00  0.00    +0.000 OA
ATOM     17  H3* UNL     1      -9.990   9.095 127.153  0.00  0.00    +0.000 HD
ENDBRANCH   5  16
BRANCH   1  18
ATOM     18  C5* UNL     1     -13.405   7.216 128.914  0.00  0.00    +0.000 C 
BRANCH  18  19
ATOM     19  O5* UNL     1     -13.157   6.089 128.078  0.00  0.00    +0.000 OA
ATOM     20  H5* UNL     1     -13.727   6.198 127.295  0.00  0.00    +0.000 HD
ENDBRANCH  18  19
ENDBRANCH   1  18
TORSDOF 4
ENDMDL
MODEL 7
REMARK VINA RESULT:      -5.5      3.044      4.910
REMARK  Name = Idoxuridine
REMARK  4 active torsions:
REMARK  status: ('A' for Active; 'I' for Inactive)
REMARK    1  A    between atoms: O5*_1  and  C5*_2
REMARK    2  A    between atoms: C5*_2  and  C4*_3
REMARK    3  A    between atoms: C1*_5  and  N_9
REMARK    4  A    between atoms: C3*_7  and  O3*_8
REMARK                            x       y       z     vdW  Elec       q    Type
REMARK                         _______ _______ _______ _____ _____    ______ ____
ROOT
ATOM      1  C4* UNL     1      -7.305   4.188 127.275  0.00  0.00    +0.000 C 
ATOM      2  O4* UNL     1      -7.822   5.085 128.287  0.00  0.00    +0.000 OA
ATOM      3  C1* UNL     1      -8.330   4.308 129.389  0.00  0.00    +0.000 C 
ATOM      4  C2* UNL     1      -8.533   2.887 128.882  0.00  0.00    +0.000 C 
ATOM      5  C3* UNL     1      -7.479   2.767 127.807  0.00  0.00    +0.000 C 
ENDROOT
BRANCH   3   6
ATOM      6  N   UNL     1      -9.545   4.929 129.913  0.00  0.00    +0.000 N 
ATOM      7  C   UNL     1     -10.166   5.941 129.199  0.00  0.00    +0.000 A 
ATOM      8  C   UNL     1     -11.179   6.666 129.688  0.00  0.00    +0.000 A 
ATOM      9  I   UNL     1     -11.957   8.269 128.691  0.00  0.00    +0.000 I 
ATOM     10  C   UNL     1     -11.708   6.285 131.022  0.00  0.00    +0.000 A 
ATOM     11  O   UNL     1     -12.570   6.929 131.618  0.00  0.00    +0.000 OA
ATOM     12  N   UNL     1     -11.175   5.149 131.568  0.00  0.00    +0.000 N 
ATOM     13  C   UNL     1     -10.018   4.533 131.158  0.00  0.00    +0.000 A 
ATOM     14  O   UNL     1      -9.479   3.698 131.878  0.00  0.00    +0.000 OA
ATOM     15  H   UNL     1     -11.528   4.880 132.473  0.00  0.00    +0.000 HD
ENDBRANCH   3   6
BRANCH   5  16
ATOM     16  O3* UNL     1      -6.260   2.302 128.399  0.00  0.00    +0.000 OA
ATOM     17  H3* UNL     1      -6.198   1.337 128.284  0.00  0.00    +0.000 HD
ENDBRANCH   5  16
BRANCH   1  18
ATOM     18  C5* UNL     1      -8.004   4.455 125.935  0.00  0.00    +0.000 C 
BRANCH  18  19
ATOM     19  O5* UNL     1      -8.892   5.568 125.999  0.00  0.00    +0.000 OA
ATOM     20  H5* UNL     1      -8.368   6.318 126.336  0.00  0.00    +0.000 HD
ENDBRANCH  18  19
ENDBRANCH   1  18
TORSDOF 4
ENDMDL
MODEL 8
REMARK VINA RESULT:      -5.5      7.270      8.827
REMARK  Name = Idoxuridine
REMARK  4 active torsions:
REMARK  status: ('A' for Active; 'I' for Inactive)
REMARK    1  A    between atoms: O5*_1  and  C5*_2
REMARK    2  A    between atoms: C5*_2  and  C4*_3
REMARK    3  A    between atoms: C1*_5  and  N_9
REMARK    4  A    between atoms: C3*_7  and  O3*_8
REMARK                            x       y       z     vdW  Elec       q    Type
REMARK                         _______ _______ _______ _____ _____    ______ ____
ROOT
ATOM      1  C4* UNL     1      -5.410   3.752 125.443  0.00  0.00    +0.000 C 
ATOM      2  O4* UNL     1      -5.958   2.923 124.391  0.00  0.00    +0.000 OA
ATOM      3  C1* UNL     1      -7.273   3.405 124.050  0.00  0.00    +0.000 C 
ATOM      4  C2* UNL     1      -7.742   4.285 125.199  0.00  0.00    +0.000 C 
ATOM      5  C3* UNL     1      -6.446   4.834 125.744  0.00  0.00    +0.000 C 
ENDROOT
BRANCH   3   6
ATOM      6  N   UNL     1      -8.156   2.274 123.770  0.00  0.00    +0.000 N 
ATOM      7  C   UNL     1      -8.124   1.156 124.587  0.00  0.00    +0.000 A 
ATOM      8  C   UNL     1      -8.777   0.022 124.302  0.00  0.00    +0.000 A 
ATOM      9  I   UNL     1      -8.570  -1.670 125.424  0.00  0.00    +0.000 I 
ATOM     10  C   UNL     1      -9.648   0.023 123.099  0.00  0.00    +0.000 A 
ATOM     11  O   UNL     1     -10.224  -0.980 122.680  0.00  0.00    +0.000 OA
ATOM     12  N   UNL     1      -9.783   1.228 122.466  0.00  0.00    +0.000 N 
ATOM     13  C   UNL     1      -8.968   2.319 122.645  0.00  0.00    +0.000 A 
ATOM     14  O   UNL     1      -8.994   3.243 121.837  0.00  0.00    +0.000 OA
ATOM     15  H   UNL     1     -10.373   1.240 121.649  0.00  0.00    +0.000 HD
ENDBRANCH   3   6
BRANCH   5  16
ATOM     16  O3* UNL     1      -6.122   6.044 125.049  0.00  0.00    +0.000 OA
ATOM     17  H3* UNL     1      -6.581   6.050 124.190  0.00  0.00    +0.000 HD
ENDBRANCH   5  16
BRANCH   1  18
ATOM     18  C5* UNL     1      -5.031   2.882 126.649  0.00  0.00    +0.000 C 
BRANCH  18  19
ATOM     19  O5* UNL     1      -4.107   1.854 126.307  0.00  0.00    +0.000 OA
ATOM     20  H5* UNL     1      -3.854   1.422 127.143  0.00  0.00    +0.000 HD
ENDBRANCH  18  19
ENDBRANCH   1  18
TORSDOF 4
ENDMDL
MODEL 9
REMARK VINA RESULT:      -5.5      2.437      3.510
REMARK  Name = Idoxuridine
REMARK  4 active torsions:
REMARK  status: ('A' for Active; 'I' for Inactive)
REMARK    1  A    between atoms: O5*_1  and  C5*_2
REMARK    2  A    between atoms: C5*_2  and  C4*_3
REMARK    3  A    between atoms: C1*_5  and  N_9
REMARK    4  A    between atoms: C3*_7  and  O3*_8
REMARK                            x       y       z     vdW  Elec       q    Type
REMARK                         _______ _______ _______ _____ _____    ______ ____
ROOT
ATOM      1  C4* UNL     1     -11.630   7.793 130.213  0.00  0.00    +0.000 C 
ATOM      2  O4* UNL     1     -10.403   7.481 130.916  0.00  0.00    +0.000 OA
ATOM      3  C1* UNL     1      -9.407   7.066 129.962  0.00  0.00    +0.000 C 
ATOM      4  C2* UNL     1     -10.138   6.693 128.680  0.00  0.00    +0.000 C 
ATOM      5  C3* UNL     1     -11.355   7.585 128.724  0.00  0.00    +0.000 C 
ENDROOT
BRANCH   3   6
ATOM      6  N   UNL     1      -8.605   5.980 130.525  0.00  0.00    +0.000 N 
ATOM      7  C   UNL     1      -9.188   4.746 130.763  0.00  0.00    +0.000 A 
ATOM      8  C   UNL     1      -8.568   3.761 131.424  0.00  0.00    +0.000 A 
ATOM      9  I   UNL     1      -9.509   2.019 131.923  0.00  0.00    +0.000 I 
ATOM     10  C   UNL     1      -7.157   3.992 131.825  0.00  0.00    +0.000 A 
ATOM     11  O   UNL     1      -6.512   3.205 132.516  0.00  0.00    +0.000 OA
ATOM     12  N   UNL     1      -6.595   5.154 131.372  0.00  0.00    +0.000 N 
ATOM     13  C   UNL     1      -7.284   6.231 130.871  0.00  0.00    +0.000 A 
ATOM     14  O   UNL     1      -6.725   7.318 130.757  0.00  0.00    +0.000 OA
ATOM     15  H   UNL     1      -5.637   5.320 131.637  0.00  0.00    +0.000 HD
ENDBRANCH   3   6
BRANCH   5  16
ATOM     16  O3* UNL     1     -11.043   8.833 128.095  0.00  0.00    +0.000 OA
ATOM     17  H3* UNL     1     -10.863   8.677 127.151  0.00  0.00    +0.000 HD
ENDBRANCH   5  16
BRANCH   1  18
ATOM     18  C5* UNL     1     -12.781   6.945 130.772  0.00  0.00    +0.000 C 
BRANCH  18  19
ATOM     19  O5* UNL     1     -12.376   6.143 131.877  0.00  0.00    +0.000 OA
ATOM     20  H5* UNL     1     -12.036   6.758 132.553  0.00  0.00    +0.000 HD
ENDBRANCH  18  19
ENDBRANCH   1  18
TORSDOF 4
ENDMDL
