MODEL 1
REMARK VINA RESULT:      -5.1      0.000      0.000
REMARK  Name = Ifosfamide
REMARK  5 active torsions:
REMARK  status: ('A' for Active; 'I' for Inactive)
REMARK    1  A    between atoms: C_2  and  C_3
REMARK    2  A    between atoms: C_3  and  N_4
REMARK    3  A    between atoms: N_4  and  P_5
REMARK    4  A    between atoms: N_11  and  C_12
REMARK    5  A    between atoms: C_12  and  C_13
REMARK                            x       y       z     vdW  Elec       q    Type
REMARK                         _______ _______ _______ _____ _____    ______ ____
ROOT
ATOM      1  P   UNL     1     -10.841   5.396 130.582  0.00  0.00    +0.000 P 
ATOM      2  O   UNL     1     -11.474   6.119 131.716  0.00  0.00    +0.000 OA
ATOM      3  O   UNL     1      -9.262   5.726 130.538  0.00  0.00    +0.000 OA
ATOM      4  C   UNL     1      -8.995   7.135 130.456  0.00  0.00    +0.000 C 
ATOM      5  C   UNL     1      -9.958   7.859 129.499  0.00  0.00    +0.000 C 
ATOM      6  C   UNL     1     -10.486   6.887 128.447  0.00  0.00    +0.000 C 
ATOM      7  N   UNL     1     -11.384   5.899 129.086  0.00  0.00    +0.000 NA
ENDROOT
BRANCH   1   8
ATOM      8  N   UNL     1     -11.186   3.787 130.474  0.00  0.00    +0.000 NA
ATOM      9  H   UNL     1     -11.909   3.585 131.155  0.00  0.00    +0.000 HD
BRANCH   8  10
ATOM     10  C   UNL     1     -10.033   2.882 130.658  0.00  0.00    +0.000 C 
BRANCH  10  12
ATOM     11 CL   UNL     1      -9.382   3.010 133.289  0.00  0.00    +0.000 Cl
ATOM     12  C   UNL     1      -9.906   1.990 131.913  0.00  0.00    +0.000 C 
ENDBRANCH  10  12
ENDBRANCH   8  10
ENDBRANCH   1   8
BRANCH   7  13
ATOM     13  C   UNL     1     -12.769   6.423 129.195  0.00  0.00    +0.000 C 
BRANCH  13  14
ATOM     14  C   UNL     1     -13.180   7.237 127.961  0.00  0.00    +0.000 C 
ATOM     15 CL   UNL     1     -13.449   8.952 128.295  0.00  0.00    +0.000 Cl
ENDBRANCH  13  14
ENDBRANCH   7  13
TORSDOF 5
ENDMDL
MODEL 2
REMARK VINA RESULT:      -4.8      9.198     10.960
REMARK  Name = Ifosfamide
REMARK  5 active torsions:
REMARK  status: ('A' for Active; 'I' for Inactive)
REMARK    1  A    between atoms: C_2  and  C_3
REMARK    2  A    between atoms: C_3  and  N_4
REMARK    3  A    between atoms: N_4  and  P_5
REMARK    4  A    between atoms: N_11  and  C_12
REMARK    5  A    between atoms: C_12  and  C_13
REMARK                            x       y       z     vdW  Elec       q    Type
REMARK                         _______ _______ _______ _____ _____    ______ ____
ROOT
ATOM      1  P   UNL     1      -7.885  -1.019 125.541  0.00  0.00    +0.000 P 
ATOM      2  O   UNL     1      -7.236  -1.425 126.815  0.00  0.00    +0.000 OA
ATOM      3  O   UNL     1      -9.416  -1.525 125.523  0.00  0.00    +0.000 OA
ATOM      4  C   UNL     1      -9.532  -2.942 125.724  0.00  0.00    +0.000 C 
ATOM      5  C   UNL     1      -8.454  -3.732 124.962  0.00  0.00    +0.000 C 
ATOM      6  C   UNL     1      -7.978  -2.938 123.747  0.00  0.00    +0.000 C 
ATOM      7  N   UNL     1      -7.220  -1.749 124.195  0.00  0.00    +0.000 NA
ENDROOT
BRANCH   1   8
ATOM      8  N   UNL     1      -7.703   0.564 125.114  0.00  0.00    +0.000 NA
ATOM      9  H   UNL     1      -8.264   1.117 125.753  0.00  0.00    +0.000 HD
BRANCH   8  10
ATOM     10  C   UNL     1      -8.047   0.882 123.713  0.00  0.00    +0.000 C 
BRANCH  10  12
ATOM     11 CL   UNL     1     -10.183  -0.077 122.342  0.00  0.00    +0.000 Cl
ATOM     12  C   UNL     1      -9.489   1.262 123.308  0.00  0.00    +0.000 C 
ENDBRANCH  10  12
ENDBRANCH   8  10
ENDBRANCH   1   8
BRANCH   7  13
ATOM     13  C   UNL     1      -5.795  -2.082 124.445  0.00  0.00    +0.000 C 
BRANCH  13  14
ATOM     14  C   UNL     1      -5.182  -2.905 123.304  0.00  0.00    +0.000 C 
ATOM     15 CL   UNL     1      -4.540  -4.470 123.817  0.00  0.00    +0.000 Cl
ENDBRANCH  13  14
ENDBRANCH   7  13
TORSDOF 5
ENDMDL
MODEL 3
REMARK VINA RESULT:      -4.8      9.476     10.755
REMARK  Name = Ifosfamide
REMARK  5 active torsions:
REMARK  status: ('A' for Active; 'I' for Inactive)
REMARK    1  A    between atoms: C_2  and  C_3
REMARK    2  A    between atoms: C_3  and  N_4
REMARK    3  A    between atoms: N_4  and  P_5
REMARK    4  A    between atoms: N_11  and  C_12
REMARK    5  A    between atoms: C_12  and  C_13
REMARK                            x       y       z     vdW  Elec       q    Type
REMARK                         _______ _______ _______ _____ _____    ______ ____
ROOT
ATOM      1  P   UNL     1      -8.827  -2.591 125.029  0.00  0.00    +0.000 P 
ATOM      2  O   UNL     1      -9.385  -3.278 123.835  0.00  0.00    +0.000 OA
ATOM      3  O   UNL     1      -9.336  -1.061 125.065  0.00  0.00    +0.000 OA
ATOM      4  C   UNL     1      -9.009  -0.342 123.866  0.00  0.00    +0.000 C 
ATOM      5  C   UNL     1      -7.596  -0.669 123.354  0.00  0.00    +0.000 C 
ATOM      6  C   UNL     1      -6.708  -1.125 124.510  0.00  0.00    +0.000 C 
ATOM      7  N   UNL     1      -7.164  -2.446 124.997  0.00  0.00    +0.000 NA
ENDROOT
BRANCH   1   8
ATOM      8  N   UNL     1      -9.007  -3.385 126.464  0.00  0.00    +0.000 NA
ATOM      9  H   UNL     1      -9.980  -3.305 126.736  0.00  0.00    +0.000 HD
BRANCH   8  10
ATOM     10  C   UNL     1      -8.124  -2.922 127.555  0.00  0.00    +0.000 C 
BRANCH  10  12
ATOM     11 CL   UNL     1      -6.831  -3.799 129.774  0.00  0.00    +0.000 Cl
ATOM     12  C   UNL     1      -8.387  -3.324 129.023  0.00  0.00    +0.000 C 
ENDBRANCH  10  12
ENDBRANCH   8  10
ENDBRANCH   1   8
BRANCH   7  13
ATOM     13  C   UNL     1      -6.570  -3.548 124.200  0.00  0.00    +0.000 C 
BRANCH  13  14
ATOM     14  C   UNL     1      -5.088  -3.305 123.887  0.00  0.00    +0.000 C 
ATOM     15 CL   UNL     1      -4.186  -4.779 123.516  0.00  0.00    +0.000 Cl
ENDBRANCH  13  14
ENDBRANCH   7  13
TORSDOF 5
ENDMDL
MODEL 4
REMARK VINA RESULT:      -4.7      2.770      5.422
REMARK  Name = Ifosfamide
REMARK  5 active torsions:
REMARK  status: ('A' for Active; 'I' for Inactive)
REMARK    1  A    between atoms: C_2  and  C_3
REMARK    2  A    between atoms: C_3  and  N_4
REMARK    3  A    between atoms: N_4  and  P_5
REMARK    4  A    between atoms: N_11  and  C_12
REMARK    5  A    between atoms: C_12  and  C_13
REMARK                            x       y       z     vdW  Elec       q    Type
REMARK                         _______ _______ _______ _____ _____    ______ ____
ROOT
ATOM      1  P   UNL     1      -9.795   6.678 130.139  0.00  0.00    +0.000 P 
ATOM      2  O   UNL     1     -10.298   6.962 131.509  0.00  0.00    +0.000 OA
ATOM      3  O   UNL     1     -10.582   5.413 129.521  0.00  0.00    +0.000 OA
ATOM      4  C   UNL     1     -10.486   4.245 130.351  0.00  0.00    +0.000 C 
ATOM      5  C   UNL     1      -9.078   4.059 130.941  0.00  0.00    +0.000 C 
ATOM      6  C   UNL     1      -8.037   4.726 130.044  0.00  0.00    +0.000 C 
ATOM      7  N   UNL     1      -8.197   6.197 130.104  0.00  0.00    +0.000 NA
ENDROOT
BRANCH   1   8
ATOM      8  N   UNL     1      -9.715   7.973 129.120  0.00  0.00    +0.000 NA
ATOM      9  H   UNL     1      -9.656   8.808 129.693  0.00  0.00    +0.000 HD
BRANCH   8  10
ATOM     10  C   UNL     1     -10.827   8.084 128.155  0.00  0.00    +0.000 C 
BRANCH  10  12
ATOM     11 CL   UNL     1     -13.448   7.397 128.306  0.00  0.00    +0.000 Cl
ATOM     12  C   UNL     1     -12.201   8.653 128.576  0.00  0.00    +0.000 C 
ENDBRANCH  10  12
ENDBRANCH   8  10
ENDBRANCH   1   8
BRANCH   7  13
ATOM     13  C   UNL     1      -7.464   6.771 131.260  0.00  0.00    +0.000 C 
BRANCH  13  14
ATOM     14  C   UNL     1      -5.974   6.408 131.241  0.00  0.00    +0.000 C 
ATOM     15 CL   UNL     1      -4.959   7.601 130.421  0.00  0.00    +0.000 Cl
ENDBRANCH  13  14
ENDBRANCH   7  13
TORSDOF 5
ENDMDL
MODEL 5
REMARK VINA RESULT:      -4.7      2.337      5.202
REMARK  Name = Ifosfamide
REMARK  5 active torsions:
REMARK  status: ('A' for Active; 'I' for Inactive)
REMARK    1  A    between atoms: C_2  and  C_3
REMARK    2  A    between atoms: C_3  and  N_4
REMARK    3  A    between atoms: N_4  and  P_5
REMARK    4  A    between atoms: N_11  and  C_12
REMARK    5  A    between atoms: C_12  and  C_13
REMARK                            x       y       z     vdW  Elec       q    Type
REMARK                         _______ _______ _______ _____ _____    ______ ____
ROOT
ATOM      1  P   UNL     1     -10.018   6.645 129.358  0.00  0.00    +0.000 P 
ATOM      2  O   UNL     1      -8.924   7.413 130.008  0.00  0.00    +0.000 OA
ATOM      3  O   UNL     1     -11.405   6.904 130.140  0.00  0.00    +0.000 OA
ATOM      4  C   UNL     1     -11.319   6.584 131.537  0.00  0.00    +0.000 C 
ATOM      5  C   UNL     1     -10.523   5.293 131.794  0.00  0.00    +0.000 C 
ATOM      6  C   UNL     1     -10.583   4.383 130.570  0.00  0.00    +0.000 C 
ATOM      7  N   UNL     1      -9.819   4.991 129.458  0.00  0.00    +0.000 NA
ENDROOT
BRANCH   1   8
ATOM      8  N   UNL     1     -10.137   6.811 127.721  0.00  0.00    +0.000 NA
ATOM      9  H   UNL     1      -9.248   7.167 127.386  0.00  0.00    +0.000 HD
BRANCH   8  10
ATOM     10  C   UNL     1     -11.248   7.665 127.254  0.00  0.00    +0.000 C 
BRANCH  10  12
ATOM     11 CL   UNL     1     -13.874   7.277 127.818  0.00  0.00    +0.000 Cl
ATOM     12  C   UNL     1     -12.532   7.051 126.653  0.00  0.00    +0.000 C 
ENDBRANCH  10  12
ENDBRANCH   8  10
ENDBRANCH   1   8
BRANCH   7  13
ATOM     13  C   UNL     1      -8.377   4.654 129.549  0.00  0.00    +0.000 C 
BRANCH  13  14
ATOM     14  C   UNL     1      -7.992   3.494 128.621  0.00  0.00    +0.000 C 
ATOM     15 CL   UNL     1      -8.200   1.897 129.351  0.00  0.00    +0.000 Cl
ENDBRANCH  13  14
ENDBRANCH   7  13
TORSDOF 5
ENDMDL
MODEL 6
REMARK VINA RESULT:      -4.6      2.845      3.524
REMARK  Name = Ifosfamide
REMARK  5 active torsions:
REMARK  status: ('A' for Active; 'I' for Inactive)
REMARK    1  A    between atoms: C_2  and  C_3
REMARK    2  A    between atoms: C_3  and  N_4
REMARK    3  A    between atoms: N_4  and  P_5
REMARK    4  A    between atoms: N_11  and  C_12
REMARK    5  A    between atoms: C_12  and  C_13
REMARK                            x       y       z     vdW  Elec       q    Type
REMARK                         _______ _______ _______ _____ _____    ______ ____
ROOT
ATOM      1  P   UNL     1     -11.479   6.224 130.336  0.00  0.00    +0.000 P 
ATOM      2  O   UNL     1     -12.243   5.469 129.307  0.00  0.00    +0.000 OA
ATOM      3  O   UNL     1     -12.153   7.672 130.561  0.00  0.00    +0.000 OA
ATOM      4  C   UNL     1     -12.253   8.429 129.345  0.00  0.00    +0.000 C 
ATOM      5  C   UNL     1     -10.998   8.294 128.466  0.00  0.00    +0.000 C 
ATOM      6  C   UNL     1      -9.783   7.960 129.327  0.00  0.00    +0.000 C 
ATOM      7  N   UNL     1      -9.919   6.589 129.870  0.00  0.00    +0.000 NA
ENDROOT
BRANCH   1   8
ATOM      8  N   UNL     1     -11.165   5.411 131.737  0.00  0.00    +0.000 NA
ATOM      9  H   UNL     1     -12.050   5.275 132.214  0.00  0.00    +0.000 HD
BRANCH   8  10
ATOM     10  C   UNL     1     -10.187   6.059 132.634  0.00  0.00    +0.000 C 
BRANCH  10  12
ATOM     11 CL   UNL     1      -9.403   3.749 133.824  0.00  0.00    +0.000 Cl
ATOM     12  C   UNL     1      -8.917   5.316 133.105  0.00  0.00    +0.000 C 
ENDBRANCH  10  12
ENDBRANCH   8  10
ENDBRANCH   1   8
BRANCH   7  13
ATOM     13  C   UNL     1      -9.423   5.578 128.904  0.00  0.00    +0.000 C 
BRANCH  13  14
ATOM     14  C   UNL     1      -8.458   4.577 129.554  0.00  0.00    +0.000 C 
ATOM     15 CL   UNL     1      -9.214   3.042 129.998  0.00  0.00    +0.000 Cl
ENDBRANCH  13  14
ENDBRANCH   7  13
TORSDOF 5
ENDMDL
MODEL 7
REMARK VINA RESULT:      -4.6      2.745      3.271
REMARK  Name = Ifosfamide
REMARK  5 active torsions:
REMARK  status: ('A' for Active; 'I' for Inactive)
REMARK    1  A    between atoms: C_2  and  C_3
REMARK    2  A    between atoms: C_3  and  N_4
REMARK    3  A    between atoms: N_4  and  P_5
REMARK    4  A    between atoms: N_11  and  C_12
REMARK    5  A    between atoms: C_12  and  C_13
REMARK                            x       y       z     vdW  Elec       q    Type
REMARK                         _______ _______ _______ _____ _____    ______ ____
ROOT
ATOM      1  P   UNL     1     -10.099   6.551 128.896  0.00  0.00    +0.000 P 
ATOM      2  O   UNL     1      -9.315   7.679 129.465  0.00  0.00    +0.000 OA
ATOM      3  O   UNL     1     -10.251   6.743 127.302  0.00  0.00    +0.000 OA
ATOM      4  C   UNL     1     -10.845   8.003 126.952  0.00  0.00    +0.000 C 
ATOM      5  C   UNL     1     -12.008   8.381 127.885  0.00  0.00    +0.000 C 
ATOM      6  C   UNL     1     -12.631   7.125 128.488  0.00  0.00    +0.000 C 
ATOM      7  N   UNL     1     -11.678   6.501 129.433  0.00  0.00    +0.000 NA
ENDROOT
BRANCH   1   8
ATOM      8  N   UNL     1      -9.608   5.040 129.339  0.00  0.00    +0.000 NA
ATOM      9  H   UNL     1     -10.213   4.733 130.094  0.00  0.00    +0.000 HD
BRANCH   8  10
ATOM     10  C   UNL     1      -8.189   4.929 129.733  0.00  0.00    +0.000 C 
BRANCH  10  12
ATOM     11 CL   UNL     1      -8.927   2.608 130.931  0.00  0.00    +0.000 Cl
ATOM     12  C   UNL     1      -7.738   3.944 130.835  0.00  0.00    +0.000 C 
ENDBRANCH  10  12
ENDBRANCH   8  10
ENDBRANCH   1   8
BRANCH   7  13
ATOM     13  C   UNL     1     -11.779   7.112 130.782  0.00  0.00    +0.000 C 
BRANCH  13  14
ATOM     14  C   UNL     1     -11.595   6.081 131.903  0.00  0.00    +0.000 C 
ATOM     15 CL   UNL     1     -10.006   6.142 132.674  0.00  0.00    +0.000 Cl
ENDBRANCH  13  14
ENDBRANCH   7  13
TORSDOF 5
ENDMDL
MODEL 8
REMARK VINA RESULT:      -4.6      8.544     10.443
REMARK  Name = Ifosfamide
REMARK  5 active torsions:
REMARK  status: ('A' for Active; 'I' for Inactive)
REMARK    1  A    between atoms: C_2  and  C_3
REMARK    2  A    between atoms: C_3  and  N_4
REMARK    3  A    between atoms: N_4  and  P_5
REMARK    4  A    between atoms: N_11  and  C_12
REMARK    5  A    between atoms: C_12  and  C_13
REMARK                            x       y       z     vdW  Elec       q    Type
REMARK                         _______ _______ _______ _____ _____    ______ ____
ROOT
ATOM      1  P   UNL     1      -8.677  -1.508 124.550  0.00  0.00    +0.000 P 
ATOM      2  O   UNL     1      -9.435  -2.387 123.621  0.00  0.00    +0.000 OA
ATOM      3  O   UNL     1      -7.543  -0.702 123.735  0.00  0.00    +0.000 OA
ATOM      4  C   UNL     1      -6.653  -1.573 123.020  0.00  0.00    +0.000 C 
ATOM      5  C   UNL     1      -6.272  -2.819 123.837  0.00  0.00    +0.000 C 
ATOM      6  C   UNL     1      -6.384  -2.526 125.331  0.00  0.00    +0.000 C 
ATOM      7  N   UNL     1      -7.807  -2.349 125.699  0.00  0.00    +0.000 NA
ENDROOT
BRANCH   1   8
ATOM      8  N   UNL     1      -9.589  -0.554 125.540  0.00  0.00    +0.000 NA
ATOM      9  H   UNL     1     -10.539  -0.908 125.514  0.00  0.00    +0.000 HD
BRANCH   8  10
ATOM     10  C   UNL     1      -9.565   0.888 125.221  0.00  0.00    +0.000 C 
BRANCH  10  12
ATOM     11 CL   UNL     1      -9.100   2.318 122.961  0.00  0.00    +0.000 Cl
ATOM     12  C   UNL     1     -10.291   1.446 123.976  0.00  0.00    +0.000 C 
ENDBRANCH  10  12
ENDBRANCH   8  10
ENDBRANCH   1   8
BRANCH   7  13
ATOM     13  C   UNL     1      -8.456  -3.654 125.979  0.00  0.00    +0.000 C 
BRANCH  13  14
ATOM     14  C   UNL     1      -9.098  -3.697 127.372  0.00  0.00    +0.000 C 
ATOM     15 CL   UNL     1      -7.950  -3.462 128.695  0.00  0.00    +0.000 Cl
ENDBRANCH  13  14
ENDBRANCH   7  13
TORSDOF 5
ENDMDL
MODEL 9
REMARK VINA RESULT:      -4.5      2.969      3.396
REMARK  Name = Ifosfamide
REMARK  5 active torsions:
REMARK  status: ('A' for Active; 'I' for Inactive)
REMARK    1  A    between atoms: C_2  and  C_3
REMARK    2  A    between atoms: C_3  and  N_4
REMARK    3  A    between atoms: N_4  and  P_5
REMARK    4  A    between atoms: N_11  and  C_12
REMARK    5  A    between atoms: C_12  and  C_13
REMARK                            x       y       z     vdW  Elec       q    Type
REMARK                         _______ _______ _______ _____ _____    ______ ____
ROOT
ATOM      1  P   UNL     1      -9.712   6.211 130.132  0.00  0.00    +0.000 P 
ATOM      2  O   UNL     1     -10.112   4.857 129.667  0.00  0.00    +0.000 OA
ATOM      3  O   UNL     1     -10.496   6.574 131.494  0.00  0.00    +0.000 OA
ATOM      4  C   UNL     1     -11.923   6.488 131.348  0.00  0.00    +0.000 C 
ATOM      5  C   UNL     1     -12.410   7.059 130.005  0.00  0.00    +0.000 C 
ATOM      6  C   UNL     1     -11.421   8.099 129.484  0.00  0.00    +0.000 C 
ATOM      7  N   UNL     1     -10.160   7.433 129.088  0.00  0.00    +0.000 NA
ENDROOT
BRANCH   1   8
ATOM      8  N   UNL     1      -8.088   6.493 130.206  0.00  0.00    +0.000 NA
ATOM      9  H   UNL     1      -7.778   6.734 129.271  0.00  0.00    +0.000 HD
BRANCH   8  10
ATOM     10  C   UNL     1      -7.280   5.383 130.751  0.00  0.00    +0.000 C 
BRANCH  10  12
ATOM     11 CL   UNL     1      -5.293   7.228 130.871  0.00  0.00    +0.000 Cl
ATOM     12  C   UNL     1      -5.913   5.641 131.424  0.00  0.00    +0.000 C 
ENDBRANCH  10  12
ENDBRANCH   8  10
ENDBRANCH   1   8
BRANCH   7  13
ATOM     13  C   UNL     1     -10.238   6.915 127.699  0.00  0.00    +0.000 C 
BRANCH  13  14
ATOM     14  C   UNL     1     -11.074   7.823 126.787  0.00  0.00    +0.000 C 
ATOM     15 CL   UNL     1     -12.554   7.064 126.188  0.00  0.00    +0.000 Cl
ENDBRANCH  13  14
ENDBRANCH   7  13
TORSDOF 5
ENDMDL
