MODEL 1
REMARK VINA RESULT:      -7.3      0.000      0.000
REMARK  Name = Iloprost
REMARK  14 active torsions:
REMARK  status: ('A' for Active; 'I' for Inactive)
REMARK    1  A    between atoms: C_4  and  O_5
REMARK    2  A    between atoms: C_6  and  C_7
REMARK    3  A    between atoms: C_8  and  C_9
REMARK    4  A    between atoms: C_9  and  O_10
REMARK    5  A    between atoms: C_9  and  C_11
REMARK    6  A    between atoms: C_11  and  C_12
REMARK    7  A    between atoms: C_11  and  C_13
REMARK    8  A    between atoms: C_13  and  C_14
REMARK    9  A    between atoms: C_15  and  C_16
REMARK   10  A    between atoms: C_22  and  C_23
REMARK   11  A    between atoms: C_23  and  C_24
REMARK   12  A    between atoms: C_24  and  C_25
REMARK   13  A    between atoms: C_25  and  C_26
REMARK   14  A    between atoms: C_26  and  O_27
REMARK                            x       y       z     vdW  Elec       q    Type
REMARK                         _______ _______ _______ _____ _____    ______ ____
ROOT
ATOM      1  C   UNL     1      -7.886  -0.403 124.352  0.00  0.00    +0.000 C 
ATOM      2  C   UNL     1      -7.871  -1.789 123.734  0.00  0.00    +0.000 C 
ATOM      3  C   UNL     1      -6.427  -2.267 123.876  0.00  0.00    +0.000 C 
ATOM      4  C   UNL     1      -5.803  -1.455 125.052  0.00  0.00    +0.000 C 
ATOM      5  C   UNL     1      -6.872  -0.426 125.496  0.00  0.00    +0.000 C 
ATOM      6  C   UNL     1      -6.337   1.013 125.597  0.00  0.00    +0.000 C 
ATOM      7  C   UNL     1      -6.672   1.613 124.259  0.00  0.00    +0.000 C 
ATOM      8  C   UNL     1      -7.356   0.625 123.380  0.00  0.00    +0.000 C 
ATOM      9  C   UNL     1      -6.409   2.855 123.835  0.00  0.00    +0.000 C 
ENDROOT
BRANCH   3  10
ATOM     10  O   UNL     1      -5.687  -2.124 122.666  0.00  0.00    +0.000 OA
ATOM     11  H   UNL     1      -4.878  -1.617 122.824  0.00  0.00    +0.000 HD
ENDBRANCH   3  10
BRANCH   4  12
ATOM     12  C   UNL     1      -5.371  -2.294 126.226  0.00  0.00    +0.000 C 
ATOM     13  C   UNL     1      -5.287  -1.816 127.475  0.00  0.00    +0.000 C 
BRANCH  13  14
ATOM     14  C   UNL     1      -5.005  -2.620 128.694  0.00  0.00    +0.000 C 
BRANCH  14  15
ATOM     15  O   UNL     1      -3.657  -2.373 129.068  0.00  0.00    +0.000 OA
ATOM     16  H   UNL     1      -3.267  -1.811 128.377  0.00  0.00    +0.000 HD
ENDBRANCH  14  15
BRANCH  14  17
ATOM     17  C   UNL     1      -5.962  -2.223 129.829  0.00  0.00    +0.000 C 
ATOM     18  C   UNL     1      -6.620  -0.854 129.575  0.00  0.00    +0.000 C 
BRANCH  17  19
ATOM     19  C   UNL     1      -7.023  -3.305 129.972  0.00  0.00    +0.000 C 
BRANCH  19  20
ATOM     20  C   UNL     1      -7.888  -3.338 128.723  0.00  0.00    +0.000 C 
ATOM     21  C   UNL     1      -8.631  -3.366 127.652  0.00  0.00    +0.000 C 
ATOM     22  C   UNL     1      -9.497  -3.399 126.403  0.00  0.00    +0.000 C 
ENDBRANCH  19  20
ENDBRANCH  17  19
ENDBRANCH  14  17
ENDBRANCH  13  14
ENDBRANCH   4  12
BRANCH   9  23
ATOM     23  C   UNL     1      -6.782   3.288 122.440  0.00  0.00    +0.000 C 
BRANCH  23  24
ATOM     24  C   UNL     1      -5.636   4.038 121.797  0.00  0.00    +0.000 C 
BRANCH  24  25
ATOM     25  C   UNL     1      -5.773   4.102 120.285  0.00  0.00    +0.000 C 
BRANCH  25  26
ATOM     26  C   UNL     1      -5.388   5.429 119.675  0.00  0.00    +0.000 C 
ATOM     27  O   UNL     1      -5.748   5.750 118.545  0.00  0.00    +0.000 OA
BRANCH  26  28
ATOM     28  O   UNL     1      -4.630   6.256 120.419  0.00  0.00    +0.000 OA
ATOM     29  H   UNL     1      -4.549   7.182 120.130  0.00  0.00    +0.000 HD
ENDBRANCH  26  28
ENDBRANCH  25  26
ENDBRANCH  24  25
ENDBRANCH  23  24
ENDBRANCH   9  23
TORSDOF 12
ENDMDL
MODEL 2
REMARK VINA RESULT:      -7.2      6.842      8.401
REMARK  Name = Iloprost
REMARK  14 active torsions:
REMARK  status: ('A' for Active; 'I' for Inactive)
REMARK    1  A    between atoms: C_4  and  O_5
REMARK    2  A    between atoms: C_6  and  C_7
REMARK    3  A    between atoms: C_8  and  C_9
REMARK    4  A    between atoms: C_9  and  O_10
REMARK    5  A    between atoms: C_9  and  C_11
REMARK    6  A    between atoms: C_11  and  C_12
REMARK    7  A    between atoms: C_11  and  C_13
REMARK    8  A    between atoms: C_13  and  C_14
REMARK    9  A    between atoms: C_15  and  C_16
REMARK   10  A    between atoms: C_22  and  C_23
REMARK   11  A    between atoms: C_23  and  C_24
REMARK   12  A    between atoms: C_24  and  C_25
REMARK   13  A    between atoms: C_25  and  C_26
REMARK   14  A    between atoms: C_26  and  O_27
REMARK                            x       y       z     vdW  Elec       q    Type
REMARK                         _______ _______ _______ _____ _____    ______ ____
ROOT
ATOM      1  C   UNL     1      -8.847   5.809 130.660  0.00  0.00    +0.000 C 
ATOM      2  C   UNL     1      -7.868   6.062 131.792  0.00  0.00    +0.000 C 
ATOM      3  C   UNL     1      -8.472   5.348 133.000  0.00  0.00    +0.000 C 
ATOM      4  C   UNL     1      -9.419   4.245 132.438  0.00  0.00    +0.000 C 
ATOM      5  C   UNL     1      -9.439   4.419 130.900  0.00  0.00    +0.000 C 
ATOM      6  C   UNL     1     -10.856   4.471 130.303  0.00  0.00    +0.000 C 
ATOM      7  C   UNL     1     -11.158   5.943 130.226  0.00  0.00    +0.000 C 
ATOM      8  C   UNL     1     -10.022   6.754 130.744  0.00  0.00    +0.000 C 
ATOM      9  C   UNL     1     -12.280   6.521 129.781  0.00  0.00    +0.000 C 
ENDROOT
BRANCH   3  10
ATOM     10  O   UNL     1      -9.147   6.246 133.878  0.00  0.00    +0.000 OA
ATOM     11  H   UNL     1      -8.877   7.157 133.701  0.00  0.00    +0.000 HD
ENDBRANCH   3  10
BRANCH   4  12
ATOM     12  C   UNL     1      -9.015   2.837 132.795  0.00  0.00    +0.000 C 
ATOM     13  C   UNL     1      -8.764   1.894 131.878  0.00  0.00    +0.000 C 
BRANCH  13  14
ATOM     14  C   UNL     1      -8.228   0.535 132.157  0.00  0.00    +0.000 C 
BRANCH  14  15
ATOM     15  O   UNL     1      -9.323  -0.288 132.532  0.00  0.00    +0.000 OA
ATOM     16  H   UNL     1      -8.954  -1.066 132.985  0.00  0.00    +0.000 HD
ENDBRANCH  14  15
BRANCH  14  17
ATOM     17  C   UNL     1      -7.530  -0.030 130.910  0.00  0.00    +0.000 C 
ATOM     18  C   UNL     1      -6.256   0.761 130.554  0.00  0.00    +0.000 C 
BRANCH  17  19
ATOM     19  C   UNL     1      -7.194  -1.493 131.160  0.00  0.00    +0.000 C 
BRANCH  19  20
ATOM     20  C   UNL     1      -7.786  -2.348 130.052  0.00  0.00    +0.000 C 
ATOM     21  C   UNL     1      -8.294  -3.082 129.101  0.00  0.00    +0.000 C 
ATOM     22  C   UNL     1      -8.885  -3.937 127.992  0.00  0.00    +0.000 C 
ENDBRANCH  19  20
ENDBRANCH  17  19
ENDBRANCH  14  17
ENDBRANCH  13  14
ENDBRANCH   4  12
BRANCH   9  23
ATOM     23  C   UNL     1     -12.437   8.020 129.808  0.00  0.00    +0.000 C 
BRANCH  23  24
ATOM     24  C   UNL     1     -12.485   8.571 128.400  0.00  0.00    +0.000 C 
BRANCH  24  25
ATOM     25  C   UNL     1     -11.164   8.390 127.671  0.00  0.00    +0.000 C 
BRANCH  25  26
ATOM     26  C   UNL     1     -11.270   7.663 126.351  0.00  0.00    +0.000 C 
ATOM     27  O   UNL     1     -10.697   8.068 125.342  0.00  0.00    +0.000 OA
BRANCH  26  28
ATOM     28  O   UNL     1     -12.022   6.547 126.317  0.00  0.00    +0.000 OA
ATOM     29  H   UNL     1     -11.932   5.961 125.544  0.00  0.00    +0.000 HD
ENDBRANCH  26  28
ENDBRANCH  25  26
ENDBRANCH  24  25
ENDBRANCH  23  24
ENDBRANCH   9  23
TORSDOF 12
ENDMDL
MODEL 3
REMARK VINA RESULT:      -7.1      8.265      9.924
REMARK  Name = Iloprost
REMARK  14 active torsions:
REMARK  status: ('A' for Active; 'I' for Inactive)
REMARK    1  A    between atoms: C_4  and  O_5
REMARK    2  A    between atoms: C_6  and  C_7
REMARK    3  A    between atoms: C_8  and  C_9
REMARK    4  A    between atoms: C_9  and  O_10
REMARK    5  A    between atoms: C_9  and  C_11
REMARK    6  A    between atoms: C_11  and  C_12
REMARK    7  A    between atoms: C_11  and  C_13
REMARK    8  A    between atoms: C_13  and  C_14
REMARK    9  A    between atoms: C_15  and  C_16
REMARK   10  A    between atoms: C_22  and  C_23
REMARK   11  A    between atoms: C_23  and  C_24
REMARK   12  A    between atoms: C_24  and  C_25
REMARK   13  A    between atoms: C_25  and  C_26
REMARK   14  A    between atoms: C_26  and  O_27
REMARK                            x       y       z     vdW  Elec       q    Type
REMARK                         _______ _______ _______ _____ _____    ______ ____
ROOT
ATOM      1  C   UNL     1     -10.904   4.523 130.812  0.00  0.00    +0.000 C 
ATOM      2  C   UNL     1      -9.647   3.833 130.314  0.00  0.00    +0.000 C 
ATOM      3  C   UNL     1      -8.571   4.917 130.332  0.00  0.00    +0.000 C 
ATOM      4  C   UNL     1      -9.039   5.994 131.357  0.00  0.00    +0.000 C 
ATOM      5  C   UNL     1     -10.450   5.568 131.833  0.00  0.00    +0.000 C 
ATOM      6  C   UNL     1     -11.493   6.696 131.753  0.00  0.00    +0.000 C 
ATOM      7  C   UNL     1     -12.149   6.483 130.415  0.00  0.00    +0.000 C 
ATOM      8  C   UNL     1     -11.557   5.316 129.705  0.00  0.00    +0.000 C 
ATOM      9  C   UNL     1     -13.127   7.210 129.863  0.00  0.00    +0.000 C 
ENDROOT
BRANCH   3  10
ATOM     10  O   UNL     1      -8.336   5.468 129.037  0.00  0.00    +0.000 OA
ATOM     11  H   UNL     1      -8.706   4.893 128.354  0.00  0.00    +0.000 HD
ENDBRANCH   3  10
BRANCH   4  12
ATOM     12  C   UNL     1      -8.122   6.164 132.541  0.00  0.00    +0.000 C 
ATOM     13  C   UNL     1      -8.391   5.660 133.752  0.00  0.00    +0.000 C 
BRANCH  13  14
ATOM     14  C   UNL     1      -7.470   5.670 134.920  0.00  0.00    +0.000 C 
BRANCH  14  15
ATOM     15  O   UNL     1      -8.236   6.010 136.067  0.00  0.00    +0.000 OA
ATOM     16  H   UNL     1      -7.609   6.172 136.792  0.00  0.00    +0.000 HD
ENDBRANCH  14  15
BRANCH  14  17
ATOM     17  C   UNL     1      -6.815   4.291 135.096  0.00  0.00    +0.000 C 
ATOM     18  C   UNL     1      -7.181   3.329 133.950  0.00  0.00    +0.000 C 
BRANCH  17  19
ATOM     19  C   UNL     1      -5.307   4.474 135.176  0.00  0.00    +0.000 C 
BRANCH  19  20
ATOM     20  C   UNL     1      -4.839   5.352 134.028  0.00  0.00    +0.000 C 
ATOM     21  C   UNL     1      -4.438   6.106 133.042  0.00  0.00    +0.000 C 
ATOM     22  C   UNL     1      -3.971   6.984 131.893  0.00  0.00    +0.000 C 
ENDBRANCH  19  20
ENDBRANCH  17  19
ENDBRANCH  14  17
ENDBRANCH  13  14
ENDBRANCH   4  12
BRANCH   9  23
ATOM     23  C   UNL     1     -13.649   6.881 128.488  0.00  0.00    +0.000 C 
BRANCH  23  24
ATOM     24  C   UNL     1     -13.111   7.862 127.471  0.00  0.00    +0.000 C 
BRANCH  24  25
ATOM     25  C   UNL     1     -12.115   7.214 126.523  0.00  0.00    +0.000 C 
BRANCH  25  26
ATOM     26  C   UNL     1     -10.673   7.321 126.959  0.00  0.00    +0.000 C 
ATOM     27  O   UNL     1     -10.293   8.202 127.727  0.00  0.00    +0.000 OA
BRANCH  26  28
ATOM     28  O   UNL     1      -9.810   6.411 126.471  0.00  0.00    +0.000 OA
ATOM     29  H   UNL     1      -8.863   6.637 126.468  0.00  0.00    +0.000 HD
ENDBRANCH  26  28
ENDBRANCH  25  26
ENDBRANCH  24  25
ENDBRANCH  23  24
ENDBRANCH   9  23
TORSDOF 12
ENDMDL
MODEL 4
REMARK VINA RESULT:      -7.0      4.595      7.457
REMARK  Name = Iloprost
REMARK  14 active torsions:
REMARK  status: ('A' for Active; 'I' for Inactive)
REMARK    1  A    between atoms: C_4  and  O_5
REMARK    2  A    between atoms: C_6  and  C_7
REMARK    3  A    between atoms: C_8  and  C_9
REMARK    4  A    between atoms: C_9  and  O_10
REMARK    5  A    between atoms: C_9  and  C_11
REMARK    6  A    between atoms: C_11  and  C_12
REMARK    7  A    between atoms: C_11  and  C_13
REMARK    8  A    between atoms: C_13  and  C_14
REMARK    9  A    between atoms: C_15  and  C_16
REMARK   10  A    between atoms: C_22  and  C_23
REMARK   11  A    between atoms: C_23  and  C_24
REMARK   12  A    between atoms: C_24  and  C_25
REMARK   13  A    between atoms: C_25  and  C_26
REMARK   14  A    between atoms: C_26  and  O_27
REMARK                            x       y       z     vdW  Elec       q    Type
REMARK                         _______ _______ _______ _____ _____    ______ ____
ROOT
ATOM      1  C   UNL     1      -6.445  -0.309 128.558  0.00  0.00    +0.000 C 
ATOM      2  C   UNL     1      -6.069  -1.686 129.073  0.00  0.00    +0.000 C 
ATOM      3  C   UNL     1      -7.276  -2.567 128.754  0.00  0.00    +0.000 C 
ATOM      4  C   UNL     1      -8.036  -1.874 127.582  0.00  0.00    +0.000 C 
ATOM      5  C   UNL     1      -7.315  -0.530 127.320  0.00  0.00    +0.000 C 
ATOM      6  C   UNL     1      -8.265   0.679 127.267  0.00  0.00    +0.000 C 
ATOM      7  C   UNL     1      -8.234   1.219 128.671  0.00  0.00    +0.000 C 
ATOM      8  C   UNL     1      -7.340   0.407 129.542  0.00  0.00    +0.000 C 
ATOM      9  C   UNL     1      -8.903   2.273 129.153  0.00  0.00    +0.000 C 
ENDROOT
BRANCH   3  10
ATOM     10  O   UNL     1      -8.110  -2.777 129.892  0.00  0.00    +0.000 OA
ATOM     11  H   UNL     1      -8.814  -2.114 129.920  0.00  0.00    +0.000 HD
ENDBRANCH   3  10
BRANCH   4  12
ATOM     12  C   UNL     1      -8.096  -2.687 126.314  0.00  0.00    +0.000 C 
ATOM     13  C   UNL     1      -8.769  -2.293 125.225  0.00  0.00    +0.000 C 
BRANCH  13  14
ATOM     14  C   UNL     1      -8.754  -2.975 123.903  0.00  0.00    +0.000 C 
BRANCH  14  15
ATOM     15  O   UNL     1     -10.058  -3.486 123.670  0.00  0.00    +0.000 OA
ATOM     16  H   UNL     1     -10.594  -3.271 124.452  0.00  0.00    +0.000 HD
ENDBRANCH  14  15
BRANCH  14  17
ATOM     17  C   UNL     1      -8.355  -1.985 122.796  0.00  0.00    +0.000 C 
ATOM     18  C   UNL     1      -9.413  -0.882 122.603  0.00  0.00    +0.000 C 
BRANCH  17  19
ATOM     19  C   UNL     1      -7.008  -1.374 123.151  0.00  0.00    +0.000 C 
BRANCH  19  20
ATOM     20  C   UNL     1      -5.971  -2.475 123.294  0.00  0.00    +0.000 C 
ATOM     21  C   UNL     1      -5.081  -3.420 123.416  0.00  0.00    +0.000 C 
ATOM     22  C   UNL     1      -4.043  -4.521 123.558  0.00  0.00    +0.000 C 
ENDBRANCH  19  20
ENDBRANCH  17  19
ENDBRANCH  14  17
ENDBRANCH  13  14
ENDBRANCH   4  12
BRANCH   9  23
ATOM     23  C   UNL     1      -8.788   2.661 130.605  0.00  0.00    +0.000 C 
BRANCH  23  24
ATOM     24  C   UNL     1     -10.038   3.382 131.059  0.00  0.00    +0.000 C 
BRANCH  24  25
ATOM     25  C   UNL     1     -10.048   4.837 130.623  0.00  0.00    +0.000 C 
BRANCH  25  26
ATOM     26  C   UNL     1     -11.423   5.454 130.526  0.00  0.00    +0.000 C 
ATOM     27  O   UNL     1     -12.007   5.567 129.450  0.00  0.00    +0.000 OA
BRANCH  26  28
ATOM     28  O   UNL     1     -11.993   5.881 131.669  0.00  0.00    +0.000 OA
ATOM     29  H   UNL     1     -12.766   5.393 132.002  0.00  0.00    +0.000 HD
ENDBRANCH  26  28
ENDBRANCH  25  26
ENDBRANCH  24  25
ENDBRANCH  23  24
ENDBRANCH   9  23
TORSDOF 12
ENDMDL
MODEL 5
REMARK VINA RESULT:      -7.0      2.654      8.670
REMARK  Name = Iloprost
REMARK  14 active torsions:
REMARK  status: ('A' for Active; 'I' for Inactive)
REMARK    1  A    between atoms: C_4  and  O_5
REMARK    2  A    between atoms: C_6  and  C_7
REMARK    3  A    between atoms: C_8  and  C_9
REMARK    4  A    between atoms: C_9  and  O_10
REMARK    5  A    between atoms: C_9  and  C_11
REMARK    6  A    between atoms: C_11  and  C_12
REMARK    7  A    between atoms: C_11  and  C_13
REMARK    8  A    between atoms: C_13  and  C_14
REMARK    9  A    between atoms: C_15  and  C_16
REMARK   10  A    between atoms: C_22  and  C_23
REMARK   11  A    between atoms: C_23  and  C_24
REMARK   12  A    between atoms: C_24  and  C_25
REMARK   13  A    between atoms: C_25  and  C_26
REMARK   14  A    between atoms: C_26  and  O_27
REMARK                            x       y       z     vdW  Elec       q    Type
REMARK                         _______ _______ _______ _____ _____    ______ ____
ROOT
ATOM      1  C   UNL     1      -7.000  -1.848 126.490  0.00  0.00    +0.000 C 
ATOM      2  C   UNL     1      -7.620  -2.399 125.218  0.00  0.00    +0.000 C 
ATOM      3  C   UNL     1      -9.014  -1.777 125.160  0.00  0.00    +0.000 C 
ATOM      4  C   UNL     1      -8.959  -0.478 126.020  0.00  0.00    +0.000 C 
ATOM      5  C   UNL     1      -7.552  -0.432 126.664  0.00  0.00    +0.000 C 
ATOM      6  C   UNL     1      -7.577  -0.189 128.183  0.00  0.00    +0.000 C 
ATOM      7  C   UNL     1      -7.530  -1.575 128.768  0.00  0.00    +0.000 C 
ATOM      8  C   UNL     1      -7.488  -2.610 127.699  0.00  0.00    +0.000 C 
ATOM      9  C   UNL     1      -7.538  -1.912 130.063  0.00  0.00    +0.000 C 
ENDROOT
BRANCH   3  10
ATOM     10  O   UNL     1     -10.027  -2.677 125.603  0.00  0.00    +0.000 OA
ATOM     11  H   UNL     1     -10.723  -2.756 124.936  0.00  0.00    +0.000 HD
ENDBRANCH   3  10
BRANCH   4  12
ATOM     12  C   UNL     1      -9.217   0.790 125.247  0.00  0.00    +0.000 C 
ATOM     13  C   UNL     1      -8.301   1.757 125.102  0.00  0.00    +0.000 C 
BRANCH  13  14
ATOM     14  C   UNL     1      -8.440   2.961 124.240  0.00  0.00    +0.000 C 
BRANCH  14  15
ATOM     15  O   UNL     1      -9.037   3.983 125.026  0.00  0.00    +0.000 OA
ATOM     16  H   UNL     1      -9.968   3.736 125.157  0.00  0.00    +0.000 HD
ENDBRANCH  14  15
BRANCH  14  17
ATOM     17  C   UNL     1      -7.064   3.411 123.724  0.00  0.00    +0.000 C 
ATOM     18  C   UNL     1      -5.956   3.193 124.772  0.00  0.00    +0.000 C 
BRANCH  17  19
ATOM     19  C   UNL     1      -6.748   2.644 122.449  0.00  0.00    +0.000 C 
BRANCH  19  20
ATOM     20  C   UNL     1      -6.296   3.614 121.370  0.00  0.00    +0.000 C 
ATOM     21  C   UNL     1      -5.908   4.446 120.444  0.00  0.00    +0.000 C 
ATOM     22  C   UNL     1      -5.456   5.417 119.365  0.00  0.00    +0.000 C 
ENDBRANCH  19  20
ENDBRANCH  17  19
ENDBRANCH  14  17
ENDBRANCH  13  14
ENDBRANCH   4  12
BRANCH   9  23
ATOM     23  C   UNL     1      -7.525  -3.360 130.482  0.00  0.00    +0.000 C 
BRANCH  23  24
ATOM     24  C   UNL     1      -6.213  -3.703 131.153  0.00  0.00    +0.000 C 
BRANCH  24  25
ATOM     25  C   UNL     1      -5.155  -4.135 130.151  0.00  0.00    +0.000 C 
BRANCH  25  26
ATOM     26  C   UNL     1      -4.000  -3.173 130.003  0.00  0.00    +0.000 C 
ATOM     27  O   UNL     1      -3.056  -3.170 130.790  0.00  0.00    +0.000 OA
BRANCH  26  28
ATOM     28  O   UNL     1      -4.041  -2.311 128.970  0.00  0.00    +0.000 OA
ATOM     29  H   UNL     1      -4.802  -2.362 128.364  0.00  0.00    +0.000 HD
ENDBRANCH  26  28
ENDBRANCH  25  26
ENDBRANCH  24  25
ENDBRANCH  23  24
ENDBRANCH   9  23
TORSDOF 12
ENDMDL
MODEL 6
REMARK VINA RESULT:      -6.9      7.710      9.363
REMARK  Name = Iloprost
REMARK  14 active torsions:
REMARK  status: ('A' for Active; 'I' for Inactive)
REMARK    1  A    between atoms: C_4  and  O_5
REMARK    2  A    between atoms: C_6  and  C_7
REMARK    3  A    between atoms: C_8  and  C_9
REMARK    4  A    between atoms: C_9  and  O_10
REMARK    5  A    between atoms: C_9  and  C_11
REMARK    6  A    between atoms: C_11  and  C_12
REMARK    7  A    between atoms: C_11  and  C_13
REMARK    8  A    between atoms: C_13  and  C_14
REMARK    9  A    between atoms: C_15  and  C_16
REMARK   10  A    between atoms: C_22  and  C_23
REMARK   11  A    between atoms: C_23  and  C_24
REMARK   12  A    between atoms: C_24  and  C_25
REMARK   13  A    between atoms: C_25  and  C_26
REMARK   14  A    between atoms: C_26  and  O_27
REMARK                            x       y       z     vdW  Elec       q    Type
REMARK                         _______ _______ _______ _____ _____    ______ ____
ROOT
ATOM      1  C   UNL     1     -10.305   4.506 130.799  0.00  0.00    +0.000 C 
ATOM      2  C   UNL     1      -9.417   3.598 129.967  0.00  0.00    +0.000 C 
ATOM      3  C   UNL     1      -8.295   4.502 129.460  0.00  0.00    +0.000 C 
ATOM      4  C   UNL     1      -8.215   5.707 130.446  0.00  0.00    +0.000 C 
ATOM      5  C   UNL     1      -9.382   5.538 131.449  0.00  0.00    +0.000 C 
ATOM      6  C   UNL     1     -10.239   6.804 131.616  0.00  0.00    +0.000 C 
ATOM      7  C   UNL     1     -11.371   6.601 130.644  0.00  0.00    +0.000 C 
ATOM      8  C   UNL     1     -11.230   5.310 129.916  0.00  0.00    +0.000 C 
ATOM      9  C   UNL     1     -12.393   7.429 130.400  0.00  0.00    +0.000 C 
ENDROOT
BRANCH   3  10
ATOM     10  O   UNL     1      -8.502   4.919 128.112  0.00  0.00    +0.000 OA
ATOM     11  H   UNL     1      -7.663   4.931 127.631  0.00  0.00    +0.000 HD
ENDBRANCH   3  10
BRANCH   4  12
ATOM     12  C   UNL     1      -6.906   5.818 131.186  0.00  0.00    +0.000 C 
ATOM     13  C   UNL     1      -5.812   6.379 130.656  0.00  0.00    +0.000 C 
BRANCH  13  14
ATOM     14  C   UNL     1      -4.538   6.645 131.376  0.00  0.00    +0.000 C 
BRANCH  14  15
ATOM     15  O   UNL     1      -4.551   5.872 132.568  0.00  0.00    +0.000 OA
ATOM     16  H   UNL     1      -4.692   6.488 133.307  0.00  0.00    +0.000 HD
ENDBRANCH  14  15
BRANCH  14  17
ATOM     17  C   UNL     1      -3.337   6.261 130.497  0.00  0.00    +0.000 C 
ATOM     18  C   UNL     1      -2.792   4.863 130.845  0.00  0.00    +0.000 C 
BRANCH  17  19
ATOM     19  C   UNL     1      -3.764   6.318 129.038  0.00  0.00    +0.000 C 
BRANCH  19  20
ATOM     20  C   UNL     1      -3.079   5.205 128.263  0.00  0.00    +0.000 C 
ATOM     21  C   UNL     1      -2.491   4.249 127.599  0.00  0.00    +0.000 C 
ATOM     22  C   UNL     1      -1.805   3.136 126.824  0.00  0.00    +0.000 C 
ENDBRANCH  19  20
ENDBRANCH  17  19
ENDBRANCH  14  17
ENDBRANCH  13  14
ENDBRANCH   4  12
BRANCH   9  23
ATOM     23  C   UNL     1     -13.429   7.088 129.360  0.00  0.00    +0.000 C 
BRANCH  23  24
ATOM     24  C   UNL     1     -13.238   7.942 128.126  0.00  0.00    +0.000 C 
BRANCH  24  25
ATOM     25  C   UNL     1     -12.572   7.175 126.997  0.00  0.00    +0.000 C 
BRANCH  25  26
ATOM     26  C   UNL     1     -11.080   7.382 126.891  0.00  0.00    +0.000 C 
ATOM     27  O   UNL     1     -10.517   8.325 127.443  0.00  0.00    +0.000 OA
BRANCH  26  28
ATOM     28  O   UNL     1     -10.380   6.490 126.165  0.00  0.00    +0.000 OA
ATOM     29  H   UNL     1     -10.210   6.699 125.229  0.00  0.00    +0.000 HD
ENDBRANCH  26  28
ENDBRANCH  25  26
ENDBRANCH  24  25
ENDBRANCH  23  24
ENDBRANCH   9  23
TORSDOF 12
ENDMDL
MODEL 7
REMARK VINA RESULT:      -6.9      1.126      2.129
REMARK  Name = Iloprost
REMARK  14 active torsions:
REMARK  status: ('A' for Active; 'I' for Inactive)
REMARK    1  A    between atoms: C_4  and  O_5
REMARK    2  A    between atoms: C_6  and  C_7
REMARK    3  A    between atoms: C_8  and  C_9
REMARK    4  A    between atoms: C_9  and  O_10
REMARK    5  A    between atoms: C_9  and  C_11
REMARK    6  A    between atoms: C_11  and  C_12
REMARK    7  A    between atoms: C_11  and  C_13
REMARK    8  A    between atoms: C_13  and  C_14
REMARK    9  A    between atoms: C_15  and  C_16
REMARK   10  A    between atoms: C_22  and  C_23
REMARK   11  A    between atoms: C_23  and  C_24
REMARK   12  A    between atoms: C_24  and  C_25
REMARK   13  A    between atoms: C_25  and  C_26
REMARK   14  A    between atoms: C_26  and  O_27
REMARK                            x       y       z     vdW  Elec       q    Type
REMARK                         _______ _______ _______ _____ _____    ______ ____
ROOT
ATOM      1  C   UNL     1      -7.975  -0.483 124.113  0.00  0.00    +0.000 C 
ATOM      2  C   UNL     1      -7.937  -1.860 123.477  0.00  0.00    +0.000 C 
ATOM      3  C   UNL     1      -6.487  -2.318 123.619  0.00  0.00    +0.000 C 
ATOM      4  C   UNL     1      -5.879  -1.512 124.807  0.00  0.00    +0.000 C 
ATOM      5  C   UNL     1      -6.964  -0.506 125.261  0.00  0.00    +0.000 C 
ATOM      6  C   UNL     1      -6.452   0.939 125.383  0.00  0.00    +0.000 C 
ATOM      7  C   UNL     1      -6.791   1.552 124.051  0.00  0.00    +0.000 C 
ATOM      8  C   UNL     1      -7.457   0.565 123.157  0.00  0.00    +0.000 C 
ATOM      9  C   UNL     1      -6.546   2.804 123.645  0.00  0.00    +0.000 C 
ENDROOT
BRANCH   3  10
ATOM     10  O   UNL     1      -5.745  -2.148 122.413  0.00  0.00    +0.000 OA
ATOM     11  H   UNL     1      -4.960  -1.606 122.574  0.00  0.00    +0.000 HD
ENDBRANCH   3  10
BRANCH   4  12
ATOM     12  C   UNL     1      -5.438  -2.361 125.972  0.00  0.00    +0.000 C 
ATOM     13  C   UNL     1      -5.355  -1.895 127.225  0.00  0.00    +0.000 C 
BRANCH  13  14
ATOM     14  C   UNL     1      -5.064  -2.710 128.435  0.00  0.00    +0.000 C 
BRANCH  14  15
ATOM     15  O   UNL     1      -3.928  -2.142 129.071  0.00  0.00    +0.000 OA
ATOM     16  H   UNL     1      -4.017  -1.176 129.004  0.00  0.00    +0.000 HD
ENDBRANCH  14  15
BRANCH  14  17
ATOM     17  C   UNL     1      -6.274  -2.706 129.384  0.00  0.00    +0.000 C 
ATOM     18  C   UNL     1      -7.605  -2.837 128.621  0.00  0.00    +0.000 C 
BRANCH  17  19
ATOM     19  C   UNL     1      -6.116  -3.847 130.378  0.00  0.00    +0.000 C 
BRANCH  19  20
ATOM     20  C   UNL     1      -6.825  -3.495 131.675  0.00  0.00    +0.000 C 
ATOM     21  C   UNL     1      -7.434  -3.193 132.788  0.00  0.00    +0.000 C 
ATOM     22  C   UNL     1      -8.143  -2.841 134.085  0.00  0.00    +0.000 C 
ENDBRANCH  19  20
ENDBRANCH  17  19
ENDBRANCH  14  17
ENDBRANCH  13  14
ENDBRANCH   4  12
BRANCH   9  23
ATOM     23  C   UNL     1      -6.920   3.249 122.254  0.00  0.00    +0.000 C 
BRANCH  23  24
ATOM     24  C   UNL     1      -5.784   4.024 121.625  0.00  0.00    +0.000 C 
BRANCH  24  25
ATOM     25  C   UNL     1      -5.981   4.214 120.130  0.00  0.00    +0.000 C 
BRANCH  25  26
ATOM     26  C   UNL     1      -5.416   5.502 119.580  0.00  0.00    +0.000 C 
ATOM     27  O   UNL     1      -4.721   6.248 120.267  0.00  0.00    +0.000 OA
BRANCH  26  28
ATOM     28  O   UNL     1      -5.703   5.808 118.301  0.00  0.00    +0.000 OA
ATOM     29  H   UNL     1      -4.967   5.841 117.665  0.00  0.00    +0.000 HD
ENDBRANCH  26  28
ENDBRANCH  25  26
ENDBRANCH  24  25
ENDBRANCH  23  24
ENDBRANCH   9  23
TORSDOF 12
ENDMDL
MODEL 8
REMARK VINA RESULT:      -6.9      8.704     10.424
REMARK  Name = Iloprost
REMARK  14 active torsions:
REMARK  status: ('A' for Active; 'I' for Inactive)
REMARK    1  A    between atoms: C_4  and  O_5
REMARK    2  A    between atoms: C_6  and  C_7
REMARK    3  A    between atoms: C_8  and  C_9
REMARK    4  A    between atoms: C_9  and  O_10
REMARK    5  A    between atoms: C_9  and  C_11
REMARK    6  A    between atoms: C_11  and  C_12
REMARK    7  A    between atoms: C_11  and  C_13
REMARK    8  A    between atoms: C_13  and  C_14
REMARK    9  A    between atoms: C_15  and  C_16
REMARK   10  A    between atoms: C_22  and  C_23
REMARK   11  A    between atoms: C_23  and  C_24
REMARK   12  A    between atoms: C_24  and  C_25
REMARK   13  A    between atoms: C_25  and  C_26
REMARK   14  A    between atoms: C_26  and  O_27
REMARK                            x       y       z     vdW  Elec       q    Type
REMARK                         _______ _______ _______ _____ _____    ______ ____
ROOT
ATOM      1  C   UNL     1     -10.304   4.371 130.745  0.00  0.00    +0.000 C 
ATOM      2  C   UNL     1      -9.486   3.513 129.797  0.00  0.00    +0.000 C 
ATOM      3  C   UNL     1      -8.364   4.428 129.309  0.00  0.00    +0.000 C 
ATOM      4  C   UNL     1      -8.201   5.545 130.384  0.00  0.00    +0.000 C 
ATOM      5  C   UNL     1      -9.321   5.322 131.429  0.00  0.00    +0.000 C 
ATOM      6  C   UNL     1     -10.133   6.591 131.742  0.00  0.00    +0.000 C 
ATOM      7  C   UNL     1     -11.316   6.496 130.817  0.00  0.00    +0.000 C 
ATOM      8  C   UNL     1     -11.248   5.267 129.980  0.00  0.00    +0.000 C 
ATOM      9  C   UNL     1     -12.325   7.367 130.694  0.00  0.00    +0.000 C 
ENDROOT
BRANCH   3  10
ATOM     10  O   UNL     1      -8.625   4.960 128.011  0.00  0.00    +0.000 OA
ATOM     11  H   UNL     1      -7.814   5.317 127.624  0.00  0.00    +0.000 HD
ENDBRANCH   3  10
BRANCH   4  12
ATOM     12  C   UNL     1      -6.855   5.561 131.063  0.00  0.00    +0.000 C 
ATOM     13  C   UNL     1      -6.059   6.639 131.081  0.00  0.00    +0.000 C 
BRANCH  13  14
ATOM     14  C   UNL     1      -4.790   6.765 131.847  0.00  0.00    +0.000 C 
BRANCH  14  15
ATOM     15  O   UNL     1      -4.584   5.543 132.540  0.00  0.00    +0.000 OA
ATOM     16  H   UNL     1      -5.461   5.163 132.716  0.00  0.00    +0.000 HD
ENDBRANCH  14  15
BRANCH  14  17
ATOM     17  C   UNL     1      -3.618   7.051 130.894  0.00  0.00    +0.000 C 
ATOM     18  C   UNL     1      -3.843   8.334 130.072  0.00  0.00    +0.000 C 
BRANCH  17  19
ATOM     19  C   UNL     1      -2.340   7.162 131.714  0.00  0.00    +0.000 C 
BRANCH  19  20
ATOM     20  C   UNL     1      -2.353   8.461 132.502  0.00  0.00    +0.000 C 
ATOM     21  C   UNL     1      -2.364   9.576 133.179  0.00  0.00    +0.000 C 
ATOM     22  C   UNL     1      -2.376  10.874 133.969  0.00  0.00    +0.000 C 
ENDBRANCH  19  20
ENDBRANCH  17  19
ENDBRANCH  14  17
ENDBRANCH  13  14
ENDBRANCH   4  12
BRANCH   9  23
ATOM     23  C   UNL     1     -13.420   7.139 129.684  0.00  0.00    +0.000 C 
BRANCH  23  24
ATOM     24  C   UNL     1     -13.240   8.057 128.495  0.00  0.00    +0.000 C 
BRANCH  24  25
ATOM     25  C   UNL     1     -12.720   7.316 127.275  0.00  0.00    +0.000 C 
BRANCH  25  26
ATOM     26  C   UNL     1     -11.230   7.433 127.057  0.00  0.00    +0.000 C 
ATOM     27  O   UNL     1     -10.576   8.356 127.538  0.00  0.00    +0.000 OA
BRANCH  26  28
ATOM     28  O   UNL     1     -10.637   6.482 126.310  0.00  0.00    +0.000 OA
ATOM     29  H   UNL     1     -10.518   6.658 125.360  0.00  0.00    +0.000 HD
ENDBRANCH  26  28
ENDBRANCH  25  26
ENDBRANCH  24  25
ENDBRANCH  23  24
ENDBRANCH   9  23
TORSDOF 12
ENDMDL
MODEL 9
REMARK VINA RESULT:      -6.8      9.610     12.961
REMARK  Name = Iloprost
REMARK  14 active torsions:
REMARK  status: ('A' for Active; 'I' for Inactive)
REMARK    1  A    between atoms: C_4  and  O_5
REMARK    2  A    between atoms: C_6  and  C_7
REMARK    3  A    between atoms: C_8  and  C_9
REMARK    4  A    between atoms: C_9  and  O_10
REMARK    5  A    between atoms: C_9  and  C_11
REMARK    6  A    between atoms: C_11  and  C_12
REMARK    7  A    between atoms: C_11  and  C_13
REMARK    8  A    between atoms: C_13  and  C_14
REMARK    9  A    between atoms: C_15  and  C_16
REMARK   10  A    between atoms: C_22  and  C_23
REMARK   11  A    between atoms: C_23  and  C_24
REMARK   12  A    between atoms: C_24  and  C_25
REMARK   13  A    between atoms: C_25  and  C_26
REMARK   14  A    between atoms: C_26  and  O_27
REMARK                            x       y       z     vdW  Elec       q    Type
REMARK                         _______ _______ _______ _____ _____    ______ ____
ROOT
ATOM      1  C   UNL     1      -7.509   4.344 134.413  0.00  0.00    +0.000 C 
ATOM      2  C   UNL     1      -8.673   4.149 133.459  0.00  0.00    +0.000 C 
ATOM      3  C   UNL     1      -8.696   5.415 132.604  0.00  0.00    +0.000 C 
ATOM      4  C   UNL     1      -7.259   6.016 132.659  0.00  0.00    +0.000 C 
ATOM      5  C   UNL     1      -6.451   5.144 133.651  0.00  0.00    +0.000 C 
ATOM      6  C   UNL     1      -5.706   5.959 134.722  0.00  0.00    +0.000 C 
ATOM      7  C   UNL     1      -6.656   5.970 135.889  0.00  0.00    +0.000 C 
ATOM      8  C   UNL     1      -7.907   5.227 135.572  0.00  0.00    +0.000 C 
ATOM      9  C   UNL     1      -6.478   6.559 137.077  0.00  0.00    +0.000 C 
ENDROOT
BRANCH   3  10
ATOM     10  O   UNL     1      -9.689   6.342 133.037  0.00  0.00    +0.000 OA
ATOM     11  H   UNL     1     -10.362   6.459 132.353  0.00  0.00    +0.000 HD
ENDBRANCH   3  10
BRANCH   4  12
ATOM     12  C   UNL     1      -6.557   6.072 131.326  0.00  0.00    +0.000 C 
ATOM     13  C   UNL     1      -5.605   6.969 131.039  0.00  0.00    +0.000 C 
BRANCH  13  14
ATOM     14  C   UNL     1      -4.780   6.990 129.802  0.00  0.00    +0.000 C 
BRANCH  14  15
ATOM     15  O   UNL     1      -4.422   8.341 129.549  0.00  0.00    +0.000 OA
ATOM     16  H   UNL     1      -4.190   8.740 130.404  0.00  0.00    +0.000 HD
ENDBRANCH  14  15
BRANCH  14  17
ATOM     17  C   UNL     1      -3.523   6.123 129.984  0.00  0.00    +0.000 C 
ATOM     18  C   UNL     1      -2.400   6.524 129.009  0.00  0.00    +0.000 C 
BRANCH  17  19
ATOM     19  C   UNL     1      -3.048   6.250 131.424  0.00  0.00    +0.000 C 
BRANCH  19  20
ATOM     20  C   UNL     1      -2.972   4.872 132.059  0.00  0.00    +0.000 C 
ATOM     21  C   UNL     1      -2.907   3.689 132.604  0.00  0.00    +0.000 C 
ATOM     22  C   UNL     1      -2.831   2.310 133.239  0.00  0.00    +0.000 C 
ENDBRANCH  19  20
ENDBRANCH  17  19
ENDBRANCH  14  17
ENDBRANCH  13  14
ENDBRANCH   4  12
BRANCH   9  23
ATOM     23  C   UNL     1      -7.554   6.506 138.131  0.00  0.00    +0.000 C 
BRANCH  23  24
ATOM     24  C   UNL     1      -7.765   7.874 138.740  0.00  0.00    +0.000 C 
BRANCH  24  25
ATOM     25  C   UNL     1      -8.226   8.892 137.711  0.00  0.00    +0.000 C 
BRANCH  25  26
ATOM     26  C   UNL     1      -9.715   8.901 137.459  0.00  0.00    +0.000 C 
ATOM     27  O   UNL     1     -10.519   9.183 138.345  0.00  0.00    +0.000 OA
BRANCH  26  28
ATOM     28  O   UNL     1     -10.136   8.585 136.220  0.00  0.00    +0.000 OA
ATOM     29  H   UNL     1     -10.297   7.645 136.020  0.00  0.00    +0.000 HD
ENDBRANCH  26  28
ENDBRANCH  25  26
ENDBRANCH  24  25
ENDBRANCH  23  24
ENDBRANCH   9  23
TORSDOF 12
ENDMDL
