MODEL 1
REMARK VINA RESULT:      -8.4      0.000      0.000
REMARK  Name = Iloperidone
REMARK  10 active torsions:
REMARK  status: ('A' for Active; 'I' for Inactive)
REMARK    1  A    between atoms: C_1  and  O_2
REMARK    2  A    between atoms: O_2  and  C_3
REMARK    3  A    between atoms: C_4  and  O_5
REMARK    4  A    between atoms: O_5  and  C_6
REMARK    5  A    between atoms: C_6  and  C_7
REMARK    6  A    between atoms: C_7  and  C_8
REMARK    7  A    between atoms: C_8  and  N_9
REMARK    8  A    between atoms: C_12  and  C_15
REMARK    9  A    between atoms: C_27  and  C_29
REMARK   10  A    between atoms: C_29  and  C_30
REMARK                            x       y       z     vdW  Elec       q    Type
REMARK                         _______ _______ _______ _____ _____    ______ ____
ROOT
ATOM      1  N   UNL     1      -7.791   3.093 129.943  0.00  0.00    +0.000 NA
ATOM      2  C   UNL     1      -7.405   4.357 130.576  0.00  0.00    +0.000 C 
ATOM      3  C   UNL     1      -8.061   4.586 131.986  0.00  0.00    +0.000 C 
ATOM      4  C   UNL     1      -9.640   4.780 132.005  0.00  0.00    +0.000 C 
ATOM      5  C   UNL     1     -10.047   3.457 131.160  0.00  0.00    +0.000 C 
ATOM      6  C   UNL     1      -9.272   3.083 129.828  0.00  0.00    +0.000 C 
ENDROOT
BRANCH   4   7
ATOM      7  C   UNL     1     -10.137   6.358 131.444  0.00  0.00    +0.000 A 
ATOM      8  N   UNL     1     -11.156   6.525 132.305  0.00  0.00    +0.000 NA
ATOM      9  O   UNL     1     -12.177   7.128 131.699  0.00  0.00    +0.000 OA
ATOM     10  C   UNL     1     -11.985   7.112 130.392  0.00  0.00    +0.000 A 
ATOM     11  C   UNL     1     -10.638   7.129 130.074  0.00  0.00    +0.000 A 
ATOM     12  C   UNL     1     -10.563   8.157 128.988  0.00  0.00    +0.000 A 
ATOM     13  C   UNL     1     -11.729   8.317 128.092  0.00  0.00    +0.000 A 
ATOM     14  C   UNL     1     -12.846   7.508 128.284  0.00  0.00    +0.000 A 
ATOM     15  F   UNL     1     -13.887   7.468 127.447  0.00  0.00    +0.000 F 
ATOM     16  C   UNL     1     -12.960   6.869 129.481  0.00  0.00    +0.000 A 
ENDBRANCH   4   7
BRANCH   1  17
ATOM     17  C   UNL     1      -7.118   2.879 128.610  0.00  0.00    +0.000 C 
BRANCH  17  18
ATOM     18  C   UNL     1      -8.032   2.647 127.368  0.00  0.00    +0.000 C 
BRANCH  18  19
ATOM     19  C   UNL     1      -7.654   1.378 126.586  0.00  0.00    +0.000 C 
BRANCH  19  20
ATOM     20  O   UNL     1      -6.325   1.501 126.050  0.00  0.00    +0.000 OA
BRANCH  20  22
ATOM     21  C   UNL     1      -5.503   3.454 124.731  0.00  0.00    +0.000 A 
ATOM     22  C   UNL     1      -6.179   2.233 124.894  0.00  0.00    +0.000 A 
ATOM     23  C   UNL     1      -6.786   1.649 123.774  0.00  0.00    +0.000 A 
ATOM     24  C   UNL     1      -6.779   2.285 122.525  0.00  0.00    +0.000 A 
ATOM     25  C   UNL     1      -6.170   3.538 122.380  0.00  0.00    +0.000 A 
ATOM     26  C   UNL     1      -5.532   4.110 123.494  0.00  0.00    +0.000 A 
BRANCH  25  27
ATOM     27  C   UNL     1      -6.117   4.264 121.083  0.00  0.00    +0.000 C 
ATOM     28  C   UNL     1      -7.137   4.078 120.005  0.00  0.00    +0.000 C 
ATOM     29  O   UNL     1      -5.153   5.069 120.882  0.00  0.00    +0.000 OA
ENDBRANCH  25  27
BRANCH  21  31
ATOM     30  C   UNL     1      -5.092   4.992 126.488  0.00  0.00    +0.000 C 
ATOM     31  O   UNL     1      -4.657   3.879 125.721  0.00  0.00    +0.000 OA
ENDBRANCH  21  31
ENDBRANCH  20  22
ENDBRANCH  19  20
ENDBRANCH  18  19
ENDBRANCH  17  18
ENDBRANCH   1  17
TORSDOF 8
ENDMDL
MODEL 2
REMARK VINA RESULT:      -8.2      2.021      3.283
REMARK  Name = Iloperidone
REMARK  10 active torsions:
REMARK  status: ('A' for Active; 'I' for Inactive)
REMARK    1  A    between atoms: C_1  and  O_2
REMARK    2  A    between atoms: O_2  and  C_3
REMARK    3  A    between atoms: C_4  and  O_5
REMARK    4  A    between atoms: O_5  and  C_6
REMARK    5  A    between atoms: C_6  and  C_7
REMARK    6  A    between atoms: C_7  and  C_8
REMARK    7  A    between atoms: C_8  and  N_9
REMARK    8  A    between atoms: C_12  and  C_15
REMARK    9  A    between atoms: C_27  and  C_29
REMARK   10  A    between atoms: C_29  and  C_30
REMARK                            x       y       z     vdW  Elec       q    Type
REMARK                         _______ _______ _______ _____ _____    ______ ____
ROOT
ATOM      1  N   UNL     1      -7.312   3.590 130.344  0.00  0.00    +0.000 NA
ATOM      2  C   UNL     1      -7.214   4.902 130.991  0.00  0.00    +0.000 C 
ATOM      3  C   UNL     1      -8.131   5.054 132.258  0.00  0.00    +0.000 C 
ATOM      4  C   UNL     1      -9.701   5.031 131.998  0.00  0.00    +0.000 C 
ATOM      5  C   UNL     1      -9.774   3.656 131.143  0.00  0.00    +0.000 C 
ATOM      6  C   UNL     1      -8.736   3.376 129.977  0.00  0.00    +0.000 C 
ENDROOT
BRANCH   4   7
ATOM      7  C   UNL     1     -10.297   6.520 131.306  0.00  0.00    +0.000 A 
ATOM      8  N   UNL     1     -11.497   6.515 131.913  0.00  0.00    +0.000 NA
ATOM      9  O   UNL     1     -12.436   6.960 131.082  0.00  0.00    +0.000 OA
ATOM     10  C   UNL     1     -11.955   6.992 129.852  0.00  0.00    +0.000 A 
ATOM     11  C   UNL     1     -10.591   7.222 129.843  0.00  0.00    +0.000 A 
ATOM     12  C   UNL     1     -10.434   8.263 128.778  0.00  0.00    +0.000 A 
ATOM     13  C   UNL     1     -11.380   8.253 127.641  0.00  0.00    +0.000 A 
ATOM     14  C   UNL     1     -12.372   7.277 127.596  0.00  0.00    +0.000 A 
ATOM     15  F   UNL     1     -13.180   7.087 126.548  0.00  0.00    +0.000 F 
ATOM     16  C   UNL     1     -12.652   6.612 128.751  0.00  0.00    +0.000 A 
ENDBRANCH   4   7
BRANCH   1  17
ATOM     17  C   UNL     1      -6.394   3.455 129.156  0.00  0.00    +0.000 C 
BRANCH  17  18
ATOM     18  C   UNL     1      -6.875   2.566 127.968  0.00  0.00    +0.000 C 
BRANCH  18  19
ATOM     19  C   UNL     1      -7.312   3.396 126.749  0.00  0.00    +0.000 C 
BRANCH  19  20
ATOM     20  O   UNL     1      -8.539   2.877 126.208  0.00  0.00    +0.000 OA
BRANCH  20  22
ATOM     21  C   UNL     1      -7.802   1.575 124.210  0.00  0.00    +0.000 A 
ATOM     22  C   UNL     1      -8.456   1.736 125.443  0.00  0.00    +0.000 A 
ATOM     23  C   UNL     1      -9.110   0.631 126.004  0.00  0.00    +0.000 A 
ATOM     24  C   UNL     1      -9.170  -0.599 125.334  0.00  0.00    +0.000 A 
ATOM     25  C   UNL     1      -8.583  -0.738 124.070  0.00  0.00    +0.000 A 
ATOM     26  C   UNL     1      -7.897   0.360 123.521  0.00  0.00    +0.000 A 
BRANCH  25  27
ATOM     27  C   UNL     1      -8.599  -2.016 123.308  0.00  0.00    +0.000 C 
ATOM     28  C   UNL     1      -9.333  -3.231 123.778  0.00  0.00    +0.000 C 
ATOM     29  O   UNL     1      -7.951  -2.074 122.217  0.00  0.00    +0.000 OA
ENDBRANCH  25  27
BRANCH  21  31
ATOM     30  C   UNL     1      -6.809   2.743 122.402  0.00  0.00    +0.000 C 
ATOM     31  O   UNL     1      -6.914   2.535 123.803  0.00  0.00    +0.000 OA
ENDBRANCH  21  31
ENDBRANCH  20  22
ENDBRANCH  19  20
ENDBRANCH  18  19
ENDBRANCH  17  18
ENDBRANCH   1  17
TORSDOF 8
ENDMDL
MODEL 3
REMARK VINA RESULT:      -8.2      1.862      2.801
REMARK  Name = Iloperidone
REMARK  10 active torsions:
REMARK  status: ('A' for Active; 'I' for Inactive)
REMARK    1  A    between atoms: C_1  and  O_2
REMARK    2  A    between atoms: O_2  and  C_3
REMARK    3  A    between atoms: C_4  and  O_5
REMARK    4  A    between atoms: O_5  and  C_6
REMARK    5  A    between atoms: C_6  and  C_7
REMARK    6  A    between atoms: C_7  and  C_8
REMARK    7  A    between atoms: C_8  and  N_9
REMARK    8  A    between atoms: C_12  and  C_15
REMARK    9  A    between atoms: C_27  and  C_29
REMARK   10  A    between atoms: C_29  and  C_30
REMARK                            x       y       z     vdW  Elec       q    Type
REMARK                         _______ _______ _______ _____ _____    ______ ____
ROOT
ATOM      1  N   UNL     1      -7.483   3.779 130.781  0.00  0.00    +0.000 NA
ATOM      2  C   UNL     1      -7.545   5.073 131.467  0.00  0.00    +0.000 C 
ATOM      3  C   UNL     1      -8.627   5.136 132.605  0.00  0.00    +0.000 C 
ATOM      4  C   UNL     1     -10.145   5.039 132.139  0.00  0.00    +0.000 C 
ATOM      5  C   UNL     1     -10.029   3.690 131.247  0.00  0.00    +0.000 C 
ATOM      6  C   UNL     1      -8.833   3.503 130.223  0.00  0.00    +0.000 C 
ENDROOT
BRANCH   4   7
ATOM      7  C   UNL     1     -10.729   6.516 131.410  0.00  0.00    +0.000 A 
ATOM      8  N   UNL     1     -11.986   6.446 131.880  0.00  0.00    +0.000 NA
ATOM      9  O   UNL     1     -12.847   6.868 130.957  0.00  0.00    +0.000 OA
ATOM     10  C   UNL     1     -12.236   6.949 129.789  0.00  0.00    +0.000 A 
ATOM     11  C   UNL     1     -10.890   7.237 129.936  0.00  0.00    +0.000 A 
ATOM     12  C   UNL     1     -10.664   8.308 128.914  0.00  0.00    +0.000 A 
ATOM     13  C   UNL     1     -11.477   8.282 127.678  0.00  0.00    +0.000 A 
ATOM     14  C   UNL     1     -12.414   7.266 127.506  0.00  0.00    +0.000 A 
ATOM     15  F   UNL     1     -13.092   7.065 126.372  0.00  0.00    +0.000 F 
ATOM     16  C   UNL     1     -12.788   6.563 128.611  0.00  0.00    +0.000 A 
ENDBRANCH   4   7
BRANCH   1  17
ATOM     17  C   UNL     1      -6.411   3.731 129.722  0.00  0.00    +0.000 C 
BRANCH  17  18
ATOM     18  C   UNL     1      -5.730   2.354 129.445  0.00  0.00    +0.000 C 
BRANCH  18  19
ATOM     19  C   UNL     1      -5.624   2.040 127.944  0.00  0.00    +0.000 C 
BRANCH  19  20
ATOM     20  O   UNL     1      -6.257   3.075 127.173  0.00  0.00    +0.000 OA
BRANCH  20  22
ATOM     21  C   UNL     1      -7.603   3.353 125.089  0.00  0.00    +0.000 A 
ATOM     22  C   UNL     1      -7.214   2.686 126.263  0.00  0.00    +0.000 A 
ATOM     23  C   UNL     1      -7.840   1.475 126.586  0.00  0.00    +0.000 A 
ATOM     24  C   UNL     1      -8.876   0.957 125.796  0.00  0.00    +0.000 A 
ATOM     25  C   UNL     1      -9.316   1.659 124.667  0.00  0.00    +0.000 A 
ATOM     26  C   UNL     1      -8.666   2.857 124.324  0.00  0.00    +0.000 A 
BRANCH  25  27
ATOM     27  C   UNL     1     -10.401   1.163 123.779  0.00  0.00    +0.000 C 
ATOM     28  C   UNL     1     -10.140   0.566 122.433  0.00  0.00    +0.000 C 
ATOM     29  O   UNL     1     -11.602   1.262 124.183  0.00  0.00    +0.000 OA
ENDBRANCH  25  27
BRANCH  21  31
ATOM     30  C   UNL     1      -5.840   3.978 123.633  0.00  0.00    +0.000 C 
ATOM     31  O   UNL     1      -6.806   4.355 124.603  0.00  0.00    +0.000 OA
ENDBRANCH  21  31
ENDBRANCH  20  22
ENDBRANCH  19  20
ENDBRANCH  18  19
ENDBRANCH  17  18
ENDBRANCH   1  17
TORSDOF 8
ENDMDL
MODEL 4
REMARK VINA RESULT:      -8.1      5.308      8.605
REMARK  Name = Iloperidone
REMARK  10 active torsions:
REMARK  status: ('A' for Active; 'I' for Inactive)
REMARK    1  A    between atoms: C_1  and  O_2
REMARK    2  A    between atoms: O_2  and  C_3
REMARK    3  A    between atoms: C_4  and  O_5
REMARK    4  A    between atoms: O_5  and  C_6
REMARK    5  A    between atoms: C_6  and  C_7
REMARK    6  A    between atoms: C_7  and  C_8
REMARK    7  A    between atoms: C_8  and  N_9
REMARK    8  A    between atoms: C_12  and  C_15
REMARK    9  A    between atoms: C_27  and  C_29
REMARK   10  A    between atoms: C_29  and  C_30
REMARK                            x       y       z     vdW  Elec       q    Type
REMARK                         _______ _______ _______ _____ _____    ______ ____
ROOT
ATOM      1  N   UNL     1      -8.224   0.057 123.228  0.00  0.00    +0.000 NA
ATOM      2  C   UNL     1      -8.907   0.519 124.440  0.00  0.00    +0.000 C 
ATOM      3  C   UNL     1      -9.455   1.989 124.338  0.00  0.00    +0.000 C 
ATOM      4  C   UNL     1      -8.362   3.140 124.225  0.00  0.00    +0.000 C 
ATOM      5  C   UNL     1      -7.515   2.535 122.982  0.00  0.00    +0.000 C 
ATOM      6  C   UNL     1      -7.110   1.002 122.954  0.00  0.00    +0.000 C 
ENDROOT
BRANCH   4   7
ATOM      7  C   UNL     1      -7.565   3.472 125.744  0.00  0.00    +0.000 A 
ATOM      8  N   UNL     1      -7.368   4.787 125.543  0.00  0.00    +0.000 NA
ATOM      9  O   UNL     1      -6.183   5.154 126.024  0.00  0.00    +0.000 OA
ATOM     10  C   UNL     1      -5.460   4.079 126.283  0.00  0.00    +0.000 A 
ATOM     11  C   UNL     1      -6.256   3.001 126.629  0.00  0.00    +0.000 A 
ATOM     12  C   UNL     1      -5.556   2.441 127.829  0.00  0.00    +0.000 A 
ATOM     13  C   UNL     1      -4.084   2.570 127.907  0.00  0.00    +0.000 A 
ATOM     14  C   UNL     1      -3.405   3.199 126.867  0.00  0.00    +0.000 A 
ATOM     15  F   UNL     1      -2.072   3.238 126.768  0.00  0.00    +0.000 F 
ATOM     16  C   UNL     1      -4.135   3.968 126.014  0.00  0.00    +0.000 A 
ENDBRANCH   4   7
BRANCH   1  17
ATOM     17  C   UNL     1      -7.744  -1.368 123.337  0.00  0.00    +0.000 C 
BRANCH  17  18
ATOM     18  C   UNL     1      -8.819  -2.498 123.292  0.00  0.00    +0.000 C 
BRANCH  18  19
ATOM     19  C   UNL     1      -8.865  -3.320 124.591  0.00  0.00    +0.000 C 
BRANCH  19  20
ATOM     20  O   UNL     1      -9.174  -2.470 125.707  0.00  0.00    +0.000 OA
BRANCH  20  22
ATOM     21  C   UNL     1      -7.266  -2.046 127.259  0.00  0.00    +0.000 A 
ATOM     22  C   UNL     1      -8.462  -2.671 126.868  0.00  0.00    +0.000 A 
ATOM     23  C   UNL     1      -9.040  -3.612 127.730  0.00  0.00    +0.000 A 
ATOM     24  C   UNL     1      -8.420  -3.977 128.933  0.00  0.00    +0.000 A 
ATOM     25  C   UNL     1      -7.189  -3.411 129.287  0.00  0.00    +0.000 A 
ATOM     26  C   UNL     1      -6.624  -2.442 128.440  0.00  0.00    +0.000 A 
BRANCH  25  27
ATOM     27  C   UNL     1      -6.482  -3.744 130.553  0.00  0.00    +0.000 C 
ATOM     28  C   UNL     1      -5.446  -4.819 130.645  0.00  0.00    +0.000 C 
ATOM     29  O   UNL     1      -6.782  -3.090 131.601  0.00  0.00    +0.000 OA
ENDBRANCH  25  27
BRANCH  21  31
ATOM     30  C   UNL     1      -5.487  -0.874 126.219  0.00  0.00    +0.000 C 
ATOM     31  O   UNL     1      -6.857  -0.923 126.591  0.00  0.00    +0.000 OA
ENDBRANCH  21  31
ENDBRANCH  20  22
ENDBRANCH  19  20
ENDBRANCH  18  19
ENDBRANCH  17  18
ENDBRANCH   1  17
TORSDOF 8
ENDMDL
MODEL 5
REMARK VINA RESULT:      -8.1      5.968      7.807
REMARK  Name = Iloperidone
REMARK  10 active torsions:
REMARK  status: ('A' for Active; 'I' for Inactive)
REMARK    1  A    between atoms: C_1  and  O_2
REMARK    2  A    between atoms: O_2  and  C_3
REMARK    3  A    between atoms: C_4  and  O_5
REMARK    4  A    between atoms: O_5  and  C_6
REMARK    5  A    between atoms: C_6  and  C_7
REMARK    6  A    between atoms: C_7  and  C_8
REMARK    7  A    between atoms: C_8  and  N_9
REMARK    8  A    between atoms: C_12  and  C_15
REMARK    9  A    between atoms: C_27  and  C_29
REMARK   10  A    between atoms: C_29  and  C_30
REMARK                            x       y       z     vdW  Elec       q    Type
REMARK                         _______ _______ _______ _____ _____    ______ ____
ROOT
ATOM      1  N   UNL     1      -5.238  -1.088 130.281  0.00  0.00    +0.000 NA
ATOM      2  C   UNL     1      -6.592  -0.617 129.977  0.00  0.00    +0.000 C 
ATOM      3  C   UNL     1      -7.682  -1.748 130.025  0.00  0.00    +0.000 C 
ATOM      4  C   UNL     1      -7.568  -2.883 128.916  0.00  0.00    +0.000 C 
ATOM      5  C   UNL     1      -6.015  -3.285 129.154  0.00  0.00    +0.000 C 
ATOM      6  C   UNL     1      -4.908  -2.162 129.308  0.00  0.00    +0.000 C 
ENDROOT
BRANCH   4   7
ATOM      7  C   UNL     1      -8.096  -2.348 127.338  0.00  0.00    +0.000 A 
ATOM      8  N   UNL     1      -8.677  -3.500 126.960  0.00  0.00    +0.000 NA
ATOM      9  O   UNL     1      -8.453  -3.727 125.668  0.00  0.00    +0.000 OA
ATOM     10  C   UNL     1      -7.504  -2.914 125.237  0.00  0.00    +0.000 A 
ATOM     11  C   UNL     1      -7.499  -1.720 125.936  0.00  0.00    +0.000 A 
ATOM     12  C   UNL     1      -7.374  -0.697 124.849  0.00  0.00    +0.000 A 
ATOM     13  C   UNL     1      -6.623  -1.059 123.627  0.00  0.00    +0.000 A 
ATOM     14  C   UNL     1      -6.056  -2.328 123.533  0.00  0.00    +0.000 A 
ATOM     15  F   UNL     1      -5.239  -2.705 122.545  0.00  0.00    +0.000 F 
ATOM     16  C   UNL     1      -6.510  -3.283 124.391  0.00  0.00    +0.000 A 
ENDBRANCH   4   7
BRANCH   1  17
ATOM     17  C   UNL     1      -4.218   0.023 130.269  0.00  0.00    +0.000 C 
BRANCH  17  18
ATOM     18  C   UNL     1      -4.617   1.378 130.930  0.00  0.00    +0.000 C 
BRANCH  18  19
ATOM     19  C   UNL     1      -4.588   2.551 129.937  0.00  0.00    +0.000 C 
BRANCH  19  20
ATOM     20  O   UNL     1      -3.758   2.227 128.809  0.00  0.00    +0.000 OA
BRANCH  20  22
ATOM     21  C   UNL     1      -3.698   3.765 126.844  0.00  0.00    +0.000 A 
ATOM     22  C   UNL     1      -4.178   2.664 127.573  0.00  0.00    +0.000 A 
ATOM     23  C   UNL     1      -5.199   1.884 127.015  0.00  0.00    +0.000 A 
ATOM     24  C   UNL     1      -5.781   2.217 125.784  0.00  0.00    +0.000 A 
ATOM     25  C   UNL     1      -5.355   3.357 125.092  0.00  0.00    +0.000 A 
ATOM     26  C   UNL     1      -4.307   4.121 125.634  0.00  0.00    +0.000 A 
BRANCH  25  27
ATOM     27  C   UNL     1      -5.921   3.762 123.777  0.00  0.00    +0.000 C 
ATOM     28  C   UNL     1      -7.035   3.021 123.110  0.00  0.00    +0.000 C 
ATOM     29  O   UNL     1      -5.425   4.777 123.195  0.00  0.00    +0.000 OA
ENDBRANCH  25  27
BRANCH  21  31
ATOM     30  C   UNL     1      -2.611   5.516 128.015  0.00  0.00    +0.000 C 
ATOM     31  O   UNL     1      -2.515   4.343 127.220  0.00  0.00    +0.000 OA
ENDBRANCH  21  31
ENDBRANCH  20  22
ENDBRANCH  19  20
ENDBRANCH  18  19
ENDBRANCH  17  18
ENDBRANCH   1  17
TORSDOF 8
ENDMDL
MODEL 6
REMARK VINA RESULT:      -8.1      5.138      7.890
REMARK  Name = Iloperidone
REMARK  10 active torsions:
REMARK  status: ('A' for Active; 'I' for Inactive)
REMARK    1  A    between atoms: C_1  and  O_2
REMARK    2  A    between atoms: O_2  and  C_3
REMARK    3  A    between atoms: C_4  and  O_5
REMARK    4  A    between atoms: O_5  and  C_6
REMARK    5  A    between atoms: C_6  and  C_7
REMARK    6  A    between atoms: C_7  and  C_8
REMARK    7  A    between atoms: C_8  and  N_9
REMARK    8  A    between atoms: C_12  and  C_15
REMARK    9  A    between atoms: C_27  and  C_29
REMARK   10  A    between atoms: C_29  and  C_30
REMARK                            x       y       z     vdW  Elec       q    Type
REMARK                         _______ _______ _______ _____ _____    ______ ____
ROOT
ATOM      1  N   UNL     1      -7.523  -1.418 125.839  0.00  0.00    +0.000 NA
ATOM      2  C   UNL     1      -8.463  -0.293 125.883  0.00  0.00    +0.000 C 
ATOM      3  C   UNL     1      -9.268  -0.087 124.548  0.00  0.00    +0.000 C 
ATOM      4  C   UNL     1      -8.420   0.357 123.277  0.00  0.00    +0.000 C 
ATOM      5  C   UNL     1      -7.289  -0.803 123.335  0.00  0.00    +0.000 C 
ATOM      6  C   UNL     1      -6.590  -1.178 124.707  0.00  0.00    +0.000 C 
ENDROOT
BRANCH   4   7
ATOM      7  C   UNL     1      -7.947   2.038 123.329  0.00  0.00    +0.000 A 
ATOM      8  N   UNL     1      -9.017   2.531 122.681  0.00  0.00    +0.000 NA
ATOM      9  O   UNL     1      -8.650   3.522 121.872  0.00  0.00    +0.000 OA
ATOM     10  C   UNL     1      -7.335   3.520 121.743  0.00  0.00    +0.000 A 
ATOM     11  C   UNL     1      -6.711   3.033 122.877  0.00  0.00    +0.000 A 
ATOM     12  C   UNL     1      -5.609   4.021 123.103  0.00  0.00    +0.000 A 
ATOM     13  C   UNL     1      -5.006   4.682 121.925  0.00  0.00    +0.000 A 
ATOM     14  C   UNL     1      -5.477   4.360 120.655  0.00  0.00    +0.000 A 
ATOM     15  F   UNL     1      -4.908   4.785 119.522  0.00  0.00    +0.000 F 
ATOM     16  C   UNL     1      -6.685   3.737 120.572  0.00  0.00    +0.000 A 
ENDBRANCH   4   7
BRANCH   1  17
ATOM     17  C   UNL     1      -6.793  -1.619 127.143  0.00  0.00    +0.000 C 
BRANCH  17  18
ATOM     18  C   UNL     1      -7.277  -0.795 128.376  0.00  0.00    +0.000 C 
BRANCH  18  19
ATOM     19  C   UNL     1      -6.161   0.074 128.980  0.00  0.00    +0.000 C 
BRANCH  19  20
ATOM     20  O   UNL     1      -5.262   0.516 127.949  0.00  0.00    +0.000 OA
BRANCH  20  22
ATOM     21  C   UNL     1      -5.455   2.861 127.117  0.00  0.00    +0.000 A 
ATOM     22  C   UNL     1      -4.926   1.851 127.938  0.00  0.00    +0.000 A 
ATOM     23  C   UNL     1      -3.944   2.194 128.876  0.00  0.00    +0.000 A 
ATOM     24  C   UNL     1      -3.446   3.502 128.965  0.00  0.00    +0.000 A 
ATOM     25  C   UNL     1      -3.919   4.492 128.096  0.00  0.00    +0.000 A 
ATOM     26  C   UNL     1      -4.928   4.157 127.177  0.00  0.00    +0.000 A 
BRANCH  25  27
ATOM     27  C   UNL     1      -3.443   5.901 128.142  0.00  0.00    +0.000 C 
ATOM     28  C   UNL     1      -2.158   6.303 128.794  0.00  0.00    +0.000 C 
ATOM     29  O   UNL     1      -4.169   6.800 127.612  0.00  0.00    +0.000 OA
ENDBRANCH  25  27
BRANCH  21  31
ATOM     30  C   UNL     1      -7.774   3.293 126.875  0.00  0.00    +0.000 C 
ATOM     31  O   UNL     1      -6.610   2.614 126.425  0.00  0.00    +0.000 OA
ENDBRANCH  21  31
ENDBRANCH  20  22
ENDBRANCH  19  20
ENDBRANCH  18  19
ENDBRANCH  17  18
ENDBRANCH   1  17
TORSDOF 8
ENDMDL
MODEL 7
REMARK VINA RESULT:      -8.0      5.746     11.236
REMARK  Name = Iloperidone
REMARK  10 active torsions:
REMARK  status: ('A' for Active; 'I' for Inactive)
REMARK    1  A    between atoms: C_1  and  O_2
REMARK    2  A    between atoms: O_2  and  C_3
REMARK    3  A    between atoms: C_4  and  O_5
REMARK    4  A    between atoms: O_5  and  C_6
REMARK    5  A    between atoms: C_6  and  C_7
REMARK    6  A    between atoms: C_7  and  C_8
REMARK    7  A    between atoms: C_8  and  N_9
REMARK    8  A    between atoms: C_12  and  C_15
REMARK    9  A    between atoms: C_27  and  C_29
REMARK   10  A    between atoms: C_29  and  C_30
REMARK                            x       y       z     vdW  Elec       q    Type
REMARK                         _______ _______ _______ _____ _____    ______ ____
ROOT
ATOM      1  N   UNL     1      -7.254   4.765 133.447  0.00  0.00    +0.000 NA
ATOM      2  C   UNL     1      -7.830   3.766 132.541  0.00  0.00    +0.000 C 
ATOM      3  C   UNL     1      -7.231   3.808 131.088  0.00  0.00    +0.000 C 
ATOM      4  C   UNL     1      -7.545   5.114 130.236  0.00  0.00    +0.000 C 
ATOM      5  C   UNL     1      -7.052   6.220 131.314  0.00  0.00    +0.000 C 
ATOM      6  C   UNL     1      -7.475   6.102 132.838  0.00  0.00    +0.000 C 
ENDROOT
BRANCH   4   7
ATOM      7  C   UNL     1      -9.184   5.156 129.633  0.00  0.00    +0.000 A 
ATOM      8  N   UNL     1      -8.880   5.375 128.342  0.00  0.00    +0.000 NA
ATOM      9  O   UNL     1      -9.756   6.217 127.799  0.00  0.00    +0.000 OA
ATOM     10  C   UNL     1     -10.466   6.790 128.754  0.00  0.00    +0.000 A 
ATOM     11  C   UNL     1     -10.607   5.961 129.853  0.00  0.00    +0.000 A 
ATOM     12  C   UNL     1     -12.062   6.085 130.181  0.00  0.00    +0.000 A 
ATOM     13  C   UNL     1     -12.740   7.369 129.896  0.00  0.00    +0.000 A 
ATOM     14  C   UNL     1     -12.004   8.413 129.342  0.00  0.00    +0.000 A 
ATOM     15  F   UNL     1     -12.478   9.653 129.182  0.00  0.00    +0.000 F 
ATOM     16  C   UNL     1     -10.810   8.103 128.766  0.00  0.00    +0.000 A 
ENDBRANCH   4   7
BRANCH   1  17
ATOM     17  C   UNL     1      -7.815   4.677 134.844  0.00  0.00    +0.000 C 
BRANCH  17  18
ATOM     18  C   UNL     1      -7.022   5.386 135.986  0.00  0.00    +0.000 C 
BRANCH  18  19
ATOM     19  C   UNL     1      -7.930   6.221 136.903  0.00  0.00    +0.000 C 
BRANCH  19  20
ATOM     20  O   UNL     1      -7.997   7.578 136.435  0.00  0.00    +0.000 OA
BRANCH  20  22
ATOM     21  C   UNL     1      -7.394   9.473 137.944  0.00  0.00    +0.000 A 
ATOM     22  C   UNL     1      -8.283   8.552 137.365  0.00  0.00    +0.000 A 
ATOM     23  C   UNL     1      -9.632   8.595 137.742  0.00  0.00    +0.000 A 
ATOM     24  C   UNL     1     -10.089   9.491 138.718  0.00  0.00    +0.000 A 
ATOM     25  C   UNL     1      -9.188  10.357 139.350  0.00  0.00    +0.000 A 
ATOM     26  C   UNL     1      -7.842  10.339 138.949  0.00  0.00    +0.000 A 
BRANCH  25  27
ATOM     27  C   UNL     1      -9.606  11.341 140.386  0.00  0.00    +0.000 C 
ATOM     28  C   UNL     1     -10.149  10.935 141.719  0.00  0.00    +0.000 C 
ATOM     29  O   UNL     1      -9.504  12.578 140.116  0.00  0.00    +0.000 OA
ENDBRANCH  25  27
BRANCH  21  31
ATOM     30  C   UNL     1      -5.042   9.513 138.236  0.00  0.00    +0.000 C 
ATOM     31  O   UNL     1      -6.162   9.650 137.374  0.00  0.00    +0.000 OA
ENDBRANCH  21  31
ENDBRANCH  20  22
ENDBRANCH  19  20
ENDBRANCH  18  19
ENDBRANCH  17  18
ENDBRANCH   1  17
TORSDOF 8
ENDMDL
MODEL 8
REMARK VINA RESULT:      -8.0      3.949      8.282
REMARK  Name = Iloperidone
REMARK  10 active torsions:
REMARK  status: ('A' for Active; 'I' for Inactive)
REMARK    1  A    between atoms: C_1  and  O_2
REMARK    2  A    between atoms: O_2  and  C_3
REMARK    3  A    between atoms: C_4  and  O_5
REMARK    4  A    between atoms: O_5  and  C_6
REMARK    5  A    between atoms: C_6  and  C_7
REMARK    6  A    between atoms: C_7  and  C_8
REMARK    7  A    between atoms: C_8  and  N_9
REMARK    8  A    between atoms: C_12  and  C_15
REMARK    9  A    between atoms: C_27  and  C_29
REMARK   10  A    between atoms: C_29  and  C_30
REMARK                            x       y       z     vdW  Elec       q    Type
REMARK                         _______ _______ _______ _____ _____    ______ ____
ROOT
ATOM      1  N   UNL     1      -8.721   1.783 131.419  0.00  0.00    +0.000 NA
ATOM      2  C   UNL     1      -9.017   2.826 130.432  0.00  0.00    +0.000 C 
ATOM      3  C   UNL     1      -8.981   2.320 128.945  0.00  0.00    +0.000 C 
ATOM      4  C   UNL     1      -7.562   1.860 128.391  0.00  0.00    +0.000 C 
ATOM      5  C   UNL     1      -7.174   0.825 129.577  0.00  0.00    +0.000 C 
ATOM      6  C   UNL     1      -7.381   1.228 131.096  0.00  0.00    +0.000 C 
ENDROOT
BRANCH   4   7
ATOM      7  C   UNL     1      -6.506   3.205 128.029  0.00  0.00    +0.000 A 
ATOM      8  N   UNL     1      -6.705   3.216 126.699  0.00  0.00    +0.000 NA
ATOM      9  O   UNL     1      -5.567   3.489 126.066  0.00  0.00    +0.000 OA
ATOM     10  C   UNL     1      -4.556   3.379 126.910  0.00  0.00    +0.000 A 
ATOM     11  C   UNL     1      -4.937   3.681 128.205  0.00  0.00    +0.000 A 
ATOM     12  C   UNL     1      -3.832   4.574 128.679  0.00  0.00    +0.000 A 
ATOM     13  C   UNL     1      -2.472   4.354 128.141  0.00  0.00    +0.000 A 
ATOM     14  C   UNL     1      -2.266   3.328 127.222  0.00  0.00    +0.000 A 
ATOM     15  F   UNL     1      -1.060   2.951 126.788  0.00  0.00    +0.000 F 
ATOM     16  C   UNL     1      -3.362   2.813 126.600  0.00  0.00    +0.000 A 
ENDBRANCH   4   7
BRANCH   1  17
ATOM     17  C   UNL     1      -8.801   2.284 132.839  0.00  0.00    +0.000 C 
BRANCH  17  18
ATOM     18  C   UNL     1      -7.696   3.276 133.318  0.00  0.00    +0.000 C 
BRANCH  18  19
ATOM     19  C   UNL     1      -8.278   4.505 134.037  0.00  0.00    +0.000 C 
BRANCH  19  20
ATOM     20  O   UNL     1      -7.958   5.703 133.311  0.00  0.00    +0.000 OA
BRANCH  20  22
ATOM     21  C   UNL     1      -8.457   6.442 130.980  0.00  0.00    +0.000 A 
ATOM     22  C   UNL     1      -8.805   6.063 132.287  0.00  0.00    +0.000 A 
ATOM     23  C   UNL     1     -10.161   6.025 132.636  0.00  0.00    +0.000 A 
ATOM     24  C   UNL     1     -11.158   6.412 131.730  0.00  0.00    +0.000 A 
ATOM     25  C   UNL     1     -10.807   6.862 130.452  0.00  0.00    +0.000 A 
ATOM     26  C   UNL     1      -9.450   6.869 130.089  0.00  0.00    +0.000 A 
BRANCH  25  27
ATOM     27  C   UNL     1     -11.814   7.277 129.438  0.00  0.00    +0.000 C 
ATOM     28  C   UNL     1     -12.513   8.599 129.481  0.00  0.00    +0.000 C 
ATOM     29  O   UNL     1     -12.095   6.465 128.501  0.00  0.00    +0.000 OA
ENDBRANCH  25  27
BRANCH  21  31
ATOM     30  C   UNL     1      -6.187   7.125 130.921  0.00  0.00    +0.000 C 
ATOM     31  O   UNL     1      -7.187   6.192 130.534  0.00  0.00    +0.000 OA
ENDBRANCH  21  31
ENDBRANCH  20  22
ENDBRANCH  19  20
ENDBRANCH  18  19
ENDBRANCH  17  18
ENDBRANCH   1  17
TORSDOF 8
ENDMDL
MODEL 9
REMARK VINA RESULT:      -8.0      4.904      6.811
REMARK  Name = Iloperidone
REMARK  10 active torsions:
REMARK  status: ('A' for Active; 'I' for Inactive)
REMARK    1  A    between atoms: C_1  and  O_2
REMARK    2  A    between atoms: O_2  and  C_3
REMARK    3  A    between atoms: C_4  and  O_5
REMARK    4  A    between atoms: O_5  and  C_6
REMARK    5  A    between atoms: C_6  and  C_7
REMARK    6  A    between atoms: C_7  and  C_8
REMARK    7  A    between atoms: C_8  and  N_9
REMARK    8  A    between atoms: C_12  and  C_15
REMARK    9  A    between atoms: C_27  and  C_29
REMARK   10  A    between atoms: C_29  and  C_30
REMARK                            x       y       z     vdW  Elec       q    Type
REMARK                         _______ _______ _______ _____ _____    ______ ____
ROOT
ATOM      1  N   UNL     1      -6.797   4.654 133.006  0.00  0.00    +0.000 NA
ATOM      2  C   UNL     1      -7.377   3.747 132.011  0.00  0.00    +0.000 C 
ATOM      3  C   UNL     1      -6.949   4.071 130.533  0.00  0.00    +0.000 C 
ATOM      4  C   UNL     1      -7.471   5.450 129.935  0.00  0.00    +0.000 C 
ATOM      5  C   UNL     1      -6.965   6.427 131.126  0.00  0.00    +0.000 C 
ATOM      6  C   UNL     1      -7.205   6.037 132.644  0.00  0.00    +0.000 C 
ENDROOT
BRANCH   4   7
ATOM      7  C   UNL     1      -9.165   5.406 129.506  0.00  0.00    +0.000 A 
ATOM      8  N   UNL     1      -9.002   5.568 128.181  0.00  0.00    +0.000 NA
ATOM      9  O   UNL     1      -9.961   6.352 127.692  0.00  0.00    +0.000 OA
ATOM     10  C   UNL     1     -10.590   6.951 128.688  0.00  0.00    +0.000 A 
ATOM     11  C   UNL     1     -10.586   6.175 129.834  0.00  0.00    +0.000 A 
ATOM     12  C   UNL     1     -12.004   6.268 130.305  0.00  0.00    +0.000 A 
ATOM     13  C   UNL     1     -12.756   7.513 130.031  0.00  0.00    +0.000 A 
ATOM     14  C   UNL     1     -12.120   8.550 129.353  0.00  0.00    +0.000 A 
ATOM     15  F   UNL     1     -12.655   9.764 129.184  0.00  0.00    +0.000 F 
ATOM     16  C   UNL     1     -10.981   8.250 128.671  0.00  0.00    +0.000 A 
ENDBRANCH   4   7
BRANCH   1  17
ATOM     17  C   UNL     1      -7.190   4.299 134.418  0.00  0.00    +0.000 C 
BRANCH  17  18
ATOM     18  C   UNL     1      -6.044   4.041 135.444  0.00  0.00    +0.000 C 
BRANCH  18  19
ATOM     19  C   UNL     1      -5.117   5.257 135.611  0.00  0.00    +0.000 C 
BRANCH  19  20
ATOM     20  O   UNL     1      -3.797   4.945 135.138  0.00  0.00    +0.000 OA
BRANCH  20  22
ATOM     21  C   UNL     1      -3.037   4.341 132.838  0.00  0.00    +0.000 A 
ATOM     22  C   UNL     1      -3.519   5.224 133.819  0.00  0.00    +0.000 A 
ATOM     23  C   UNL     1      -3.770   6.555 133.458  0.00  0.00    +0.000 A 
ATOM     24  C   UNL     1      -3.494   7.025 132.167  0.00  0.00    +0.000 A 
ATOM     25  C   UNL     1      -2.941   6.164 131.211  0.00  0.00    +0.000 A 
ATOM     26  C   UNL     1      -2.721   4.821 131.560  0.00  0.00    +0.000 A 
BRANCH  25  27
ATOM     27  C   UNL     1      -2.634   6.593 129.820  0.00  0.00    +0.000 C 
ATOM     28  C   UNL     1      -3.686   7.049 128.859  0.00  0.00    +0.000 C 
ATOM     29  O   UNL     1      -1.424   6.560 129.433  0.00  0.00    +0.000 OA
ENDBRANCH  25  27
BRANCH  21  31
ATOM     30  C   UNL     1      -3.995   2.240 132.302  0.00  0.00    +0.000 C 
ATOM     31  O   UNL     1      -3.079   2.995 133.082  0.00  0.00    +0.000 OA
ENDBRANCH  21  31
ENDBRANCH  20  22
ENDBRANCH  19  20
ENDBRANCH  18  19
ENDBRANCH  17  18
ENDBRANCH   1  17
TORSDOF 8
ENDMDL
