MODEL 1
REMARK VINA RESULT:      -9.6      0.000      0.000
REMARK  Name = Imatinib
REMARK  8 active torsions:
REMARK  status: ('A' for Active; 'I' for Inactive)
REMARK    1  A    between atoms: C_1  and  N_2
REMARK    2  A    between atoms: N_5  and  C_6
REMARK    3  A    between atoms: C_6  and  C_7
REMARK    4  A    between atoms: C_10  and  C_13
REMARK    5  A    between atoms: N_15  and  C_16
REMARK    6  A    between atoms: C_18  and  N_19
REMARK    7  A    between atoms: C_24  and  C_26
REMARK    8  A    between atoms: C_32  and  C_33
REMARK                            x       y       z     vdW  Elec       q    Type
REMARK                         _______ _______ _______ _____ _____    ______ ____
ROOT
ATOM      1  C   UNL     1      -5.886   4.455 125.235  0.00  0.00    +0.000 A 
ATOM      2  C   UNL     1      -7.143   3.849 125.444  0.00  0.00    +0.000 A 
ATOM      3  C   UNL     1      -7.871   3.282 124.364  0.00  0.00    +0.000 A 
ATOM      4  C   UNL     1      -7.346   3.462 123.063  0.00  0.00    +0.000 A 
ATOM      5  C   UNL     1      -8.081   3.176 121.785  0.00  0.00    +0.000 C 
ATOM      6  C   UNL     1      -6.061   3.986 122.887  0.00  0.00    +0.000 A 
ATOM      7  C   UNL     1      -5.340   4.475 123.959  0.00  0.00    +0.000 A 
ENDROOT
BRANCH   3   8
ATOM      8  N   UNL     1      -9.007   2.474 124.627  0.00  0.00    +0.000 N 
ATOM      9  C   UNL     1      -9.284   1.186 124.141  0.00  0.00    +0.000 A 
ATOM     10  N   UNL     1     -10.339   1.045 123.318  0.00  0.00    +0.000 NA
ATOM     11  C   UNL     1     -10.378  -0.071 122.556  0.00  0.00    +0.000 A 
ATOM     12  C   UNL     1      -9.443  -1.075 122.620  0.00  0.00    +0.000 A 
ATOM     13  C   UNL     1      -8.437  -0.897 123.541  0.00  0.00    +0.000 A 
ATOM     14  N   UNL     1      -8.364   0.209 124.319  0.00  0.00    +0.000 NA
ATOM     15  H   UNL     1      -9.807   2.906 125.061  0.00  0.00    +0.000 HD
BRANCH  13  16
ATOM     16  C   UNL     1      -7.376  -1.898 123.700  0.00  0.00    +0.000 A 
ATOM     17  C   UNL     1      -7.619  -3.080 124.392  0.00  0.00    +0.000 A 
ATOM     18  N   UNL     1      -6.744  -4.113 124.494  0.00  0.00    +0.000 NA
ATOM     19  C   UNL     1      -5.545  -3.955 123.896  0.00  0.00    +0.000 A 
ATOM     20  C   UNL     1      -5.179  -2.814 123.204  0.00  0.00    +0.000 A 
ATOM     21  C   UNL     1      -6.105  -1.773 123.111  0.00  0.00    +0.000 A 
ENDBRANCH  13  16
ENDBRANCH   3   8
BRANCH   1  24
ATOM     22  C   UNL     1      -4.081   4.248 126.906  0.00  0.00    +0.000 C 
ATOM     23  O   UNL     1      -3.618   3.189 126.461  0.00  0.00    +0.000 OA
ATOM     24  N   UNL     1      -5.119   4.963 126.310  0.00  0.00    +0.000 N 
ATOM     25  H   UNL     1      -5.373   5.886 126.630  0.00  0.00    +0.000 HD
BRANCH  22  29
ATOM     26  C   UNL     1      -2.128   5.837 130.400  0.00  0.00    +0.000 A 
ATOM     27  C   UNL     1      -2.034   6.498 129.178  0.00  0.00    +0.000 A 
ATOM     28  C   UNL     1      -2.752   6.015 128.077  0.00  0.00    +0.000 A 
ATOM     29  C   UNL     1      -3.449   4.790 128.135  0.00  0.00    +0.000 A 
ATOM     30  C   UNL     1      -3.526   4.125 129.346  0.00  0.00    +0.000 A 
ATOM     31  C   UNL     1      -2.958   4.705 130.466  0.00  0.00    +0.000 A 
BRANCH  26  32
ATOM     32  C   UNL     1      -1.426   6.349 131.643  0.00  0.00    +0.000 C 
BRANCH  32  37
ATOM     33  C   UNL     1       0.363   9.424 134.905  0.00  0.00    +0.000 C 
ATOM     34  N   UNL     1      -0.789   8.645 134.487  0.00  0.00    +0.000 NA
ATOM     35  C   UNL     1      -0.504   7.196 134.501  0.00  0.00    +0.000 C 
ATOM     36  C   UNL     1      -1.734   6.359 134.051  0.00  0.00    +0.000 C 
ATOM     37  N   UNL     1      -2.319   6.771 132.747  0.00  0.00    +0.000 NA
ATOM     38  C   UNL     1      -2.533   8.236 132.825  0.00  0.00    +0.000 C 
ATOM     39  C   UNL     1      -1.235   9.020 133.140  0.00  0.00    +0.000 C 
ENDBRANCH  32  37
ENDBRANCH  26  32
ENDBRANCH  22  29
ENDBRANCH   1  24
TORSDOF 6
ENDMDL
MODEL 2
REMARK VINA RESULT:      -9.3      5.412      7.967
REMARK  Name = Imatinib
REMARK  8 active torsions:
REMARK  status: ('A' for Active; 'I' for Inactive)
REMARK    1  A    between atoms: C_1  and  N_2
REMARK    2  A    between atoms: N_5  and  C_6
REMARK    3  A    between atoms: C_6  and  C_7
REMARK    4  A    between atoms: C_10  and  C_13
REMARK    5  A    between atoms: N_15  and  C_16
REMARK    6  A    between atoms: C_18  and  N_19
REMARK    7  A    between atoms: C_24  and  C_26
REMARK    8  A    between atoms: C_32  and  C_33
REMARK                            x       y       z     vdW  Elec       q    Type
REMARK                         _______ _______ _______ _____ _____    ______ ____
ROOT
ATOM      1  C   UNL     1      -7.279  -2.124 126.251  0.00  0.00    +0.000 A 
ATOM      2  C   UNL     1      -7.743  -0.793 126.249  0.00  0.00    +0.000 A 
ATOM      3  C   UNL     1      -8.597  -0.315 125.219  0.00  0.00    +0.000 A 
ATOM      4  C   UNL     1      -8.855  -1.187 124.136  0.00  0.00    +0.000 A 
ATOM      5  C   UNL     1      -9.503  -0.792 122.840  0.00  0.00    +0.000 C 
ATOM      6  C   UNL     1      -8.458  -2.528 124.199  0.00  0.00    +0.000 A 
ATOM      7  C   UNL     1      -7.681  -2.990 125.243  0.00  0.00    +0.000 A 
ENDROOT
BRANCH   3   8
ATOM      8  N   UNL     1      -9.239   0.941 125.361  0.00  0.00    +0.000 N 
ATOM      9  C   UNL     1      -8.682   2.220 125.202  0.00  0.00    +0.000 A 
ATOM     10  N   UNL     1      -8.608   3.007 126.291  0.00  0.00    +0.000 NA
ATOM     11  C   UNL     1      -7.745   4.047 126.239  0.00  0.00    +0.000 A 
ATOM     12  C   UNL     1      -6.998   4.367 125.133  0.00  0.00    +0.000 A 
ATOM     13  C   UNL     1      -7.186   3.565 124.032  0.00  0.00    +0.000 A 
ATOM     14  N   UNL     1      -8.039   2.514 124.048  0.00  0.00    +0.000 NA
ATOM     15  H   UNL     1     -10.147   0.964 125.798  0.00  0.00    +0.000 HD
BRANCH  13  16
ATOM     16  C   UNL     1      -6.441   3.805 122.790  0.00  0.00    +0.000 A 
ATOM     17  C   UNL     1      -7.003   3.487 121.558  0.00  0.00    +0.000 A 
ATOM     18  N   UNL     1      -6.445   3.774 120.354  0.00  0.00    +0.000 NA
ATOM     19  C   UNL     1      -5.245   4.391 120.372  0.00  0.00    +0.000 A 
ATOM     20  C   UNL     1      -4.576   4.731 121.535  0.00  0.00    +0.000 A 
ATOM     21  C   UNL     1      -5.182   4.429 122.756  0.00  0.00    +0.000 A 
ENDBRANCH  13  16
ENDBRANCH   3   8
BRANCH   1  24
ATOM     22  C   UNL     1      -7.004  -2.961 128.557  0.00  0.00    +0.000 C 
ATOM     23  O   UNL     1      -8.214  -3.005 128.820  0.00  0.00    +0.000 OA
ATOM     24  N   UNL     1      -6.484  -2.632 127.305  0.00  0.00    +0.000 N 
ATOM     25  H   UNL     1      -5.502  -2.740 127.101  0.00  0.00    +0.000 HD
BRANCH  22  29
ATOM     26  C   UNL     1      -4.369  -3.935 131.821  0.00  0.00    +0.000 A 
ATOM     27  C   UNL     1      -5.747  -4.075 131.962  0.00  0.00    +0.000 A 
ATOM     28  C   UNL     1      -6.579  -3.842 130.860  0.00  0.00    +0.000 A 
ATOM     29  C   UNL     1      -6.069  -3.322 129.652  0.00  0.00    +0.000 A 
ATOM     30  C   UNL     1      -4.701  -3.166 129.520  0.00  0.00    +0.000 A 
ATOM     31  C   UNL     1      -3.878  -3.568 130.557  0.00  0.00    +0.000 A 
BRANCH  26  32
ATOM     32  C   UNL     1      -3.413  -4.236 132.959  0.00  0.00    +0.000 C 
BRANCH  32  37
ATOM     33  C   UNL     1       0.252  -1.441 134.394  0.00  0.00    +0.000 C 
ATOM     34  N   UNL     1      -1.103  -1.886 134.666  0.00  0.00    +0.000 NA
ATOM     35  C   UNL     1      -1.161  -3.339 134.925  0.00  0.00    +0.000 C 
ATOM     36  C   UNL     1      -2.611  -3.819 135.212  0.00  0.00    +0.000 C 
ATOM     37  N   UNL     1      -3.610  -3.424 134.183  0.00  0.00    +0.000 NA
ATOM     38  C   UNL     1      -3.445  -1.966 133.974  0.00  0.00    +0.000 C 
ATOM     39  C   UNL     1      -2.008  -1.574 133.553  0.00  0.00    +0.000 C 
ENDBRANCH  32  37
ENDBRANCH  26  32
ENDBRANCH  22  29
ENDBRANCH   1  24
TORSDOF 6
ENDMDL
MODEL 3
REMARK VINA RESULT:      -9.3      4.246      7.319
REMARK  Name = Imatinib
REMARK  8 active torsions:
REMARK  status: ('A' for Active; 'I' for Inactive)
REMARK    1  A    between atoms: C_1  and  N_2
REMARK    2  A    between atoms: N_5  and  C_6
REMARK    3  A    between atoms: C_6  and  C_7
REMARK    4  A    between atoms: C_10  and  C_13
REMARK    5  A    between atoms: N_15  and  C_16
REMARK    6  A    between atoms: C_18  and  N_19
REMARK    7  A    between atoms: C_24  and  C_26
REMARK    8  A    between atoms: C_32  and  C_33
REMARK                            x       y       z     vdW  Elec       q    Type
REMARK                         _______ _______ _______ _____ _____    ______ ____
ROOT
ATOM      1  C   UNL     1      -4.497   5.434 128.668  0.00  0.00    +0.000 A 
ATOM      2  C   UNL     1      -5.712   4.892 129.133  0.00  0.00    +0.000 A 
ATOM      3  C   UNL     1      -6.502   4.048 128.307  0.00  0.00    +0.000 A 
ATOM      4  C   UNL     1      -6.086   3.881 126.966  0.00  0.00    +0.000 A 
ATOM      5  C   UNL     1      -6.907   3.256 125.875  0.00  0.00    +0.000 C 
ATOM      6  C   UNL     1      -4.836   4.354 126.551  0.00  0.00    +0.000 A 
ATOM      7  C   UNL     1      -4.052   5.120 127.391  0.00  0.00    +0.000 A 
ENDROOT
BRANCH   3   8
ATOM      8  N   UNL     1      -7.587   3.326 128.869  0.00  0.00    +0.000 N 
ATOM      9  C   UNL     1      -8.626   3.818 129.676  0.00  0.00    +0.000 A 
ATOM     10  N   UNL     1      -8.686   3.379 130.947  0.00  0.00    +0.000 NA
ATOM     11  C   UNL     1      -9.413   4.117 131.816  0.00  0.00    +0.000 A 
ATOM     12  C   UNL     1     -10.124   5.237 131.462  0.00  0.00    +0.000 A 
ATOM     13  C   UNL     1     -10.079   5.578 130.130  0.00  0.00    +0.000 A 
ATOM     14  N   UNL     1      -9.359   4.864 129.232  0.00  0.00    +0.000 NA
ATOM     15  H   UNL     1      -7.544   2.320 128.859  0.00  0.00    +0.000 HD
BRANCH  13  16
ATOM     16  C   UNL     1     -10.794   6.757 129.630  0.00  0.00    +0.000 A 
ATOM     17  C   UNL     1     -10.467   7.310 128.397  0.00  0.00    +0.000 A 
ATOM     18  N   UNL     1     -11.143   8.324 127.798  0.00  0.00    +0.000 NA
ATOM     19  C   UNL     1     -12.191   8.839 128.474  0.00  0.00    +0.000 A 
ATOM     20  C   UNL     1     -12.593   8.391 129.720  0.00  0.00    +0.000 A 
ATOM     21  C   UNL     1     -11.882   7.341 130.304  0.00  0.00    +0.000 A 
ENDBRANCH  13  16
ENDBRANCH   3   8
BRANCH   1  24
ATOM     22  C   UNL     1      -2.904   5.682 130.538  0.00  0.00    +0.000 C 
ATOM     23  O   UNL     1      -2.742   4.469 130.727  0.00  0.00    +0.000 OA
ATOM     24  N   UNL     1      -3.667   6.220 129.501  0.00  0.00    +0.000 N 
ATOM     25  H   UNL     1      -3.661   7.210 129.306  0.00  0.00    +0.000 HD
BRANCH  22  29
ATOM     26  C   UNL     1      -0.902   8.460 133.150  0.00  0.00    +0.000 A 
ATOM     27  C   UNL     1      -2.214   8.694 132.743  0.00  0.00    +0.000 A 
ATOM     28  C   UNL     1      -2.877   7.732 131.971  0.00  0.00    +0.000 A 
ATOM     29  C   UNL     1      -2.200   6.602 131.466  0.00  0.00    +0.000 A 
ATOM     30  C   UNL     1      -0.891   6.381 131.855  0.00  0.00    +0.000 A 
ATOM     31  C   UNL     1      -0.307   7.248 132.761  0.00  0.00    +0.000 A 
BRANCH  26  32
ATOM     32  C   UNL     1      -0.155   9.433 134.041  0.00  0.00    +0.000 C 
BRANCH  32  37
ATOM     33  C   UNL     1       3.418  12.666 134.324  0.00  0.00    +0.000 C 
ATOM     34  N   UNL     1       1.996  12.455 134.118  0.00  0.00    +0.000 NA
ATOM     35  C   UNL     1       1.355  11.854 135.305  0.00  0.00    +0.000 C 
ATOM     36  C   UNL     1      -0.167  11.623 135.087  0.00  0.00    +0.000 C 
ATOM     37  N   UNL     1      -0.508  10.860 133.857  0.00  0.00    +0.000 NA
ATOM     38  C   UNL     1       0.208  11.520 132.740  0.00  0.00    +0.000 C 
ATOM     39  C   UNL     1       1.739  11.591 132.960  0.00  0.00    +0.000 C 
ENDBRANCH  32  37
ENDBRANCH  26  32
ENDBRANCH  22  29
ENDBRANCH   1  24
TORSDOF 6
ENDMDL
MODEL 4
REMARK VINA RESULT:      -9.2      4.253      7.445
REMARK  Name = Imatinib
REMARK  8 active torsions:
REMARK  status: ('A' for Active; 'I' for Inactive)
REMARK    1  A    between atoms: C_1  and  N_2
REMARK    2  A    between atoms: N_5  and  C_6
REMARK    3  A    between atoms: C_6  and  C_7
REMARK    4  A    between atoms: C_10  and  C_13
REMARK    5  A    between atoms: N_15  and  C_16
REMARK    6  A    between atoms: C_18  and  N_19
REMARK    7  A    between atoms: C_24  and  C_26
REMARK    8  A    between atoms: C_32  and  C_33
REMARK                            x       y       z     vdW  Elec       q    Type
REMARK                         _______ _______ _______ _____ _____    ______ ____
ROOT
ATOM      1  C   UNL     1      -4.336   5.594 128.830  0.00  0.00    +0.000 A 
ATOM      2  C   UNL     1      -5.545   5.029 129.285  0.00  0.00    +0.000 A 
ATOM      3  C   UNL     1      -6.304   4.157 128.458  0.00  0.00    +0.000 A 
ATOM      4  C   UNL     1      -5.864   3.983 127.125  0.00  0.00    +0.000 A 
ATOM      5  C   UNL     1      -6.655   3.326 126.031  0.00  0.00    +0.000 C 
ATOM      6  C   UNL     1      -4.620   4.481 126.722  0.00  0.00    +0.000 A 
ATOM      7  C   UNL     1      -3.866   5.275 127.564  0.00  0.00    +0.000 A 
ENDROOT
BRANCH   3   8
ATOM      8  N   UNL     1      -7.379   3.417 129.013  0.00  0.00    +0.000 N 
ATOM      9  C   UNL     1      -8.458   3.899 129.773  0.00  0.00    +0.000 A 
ATOM     10  N   UNL     1      -8.541   3.501 131.056  0.00  0.00    +0.000 NA
ATOM     11  C   UNL     1      -9.318   4.241 131.879  0.00  0.00    +0.000 A 
ATOM     12  C   UNL     1     -10.055   5.323 131.467  0.00  0.00    +0.000 A 
ATOM     13  C   UNL     1      -9.982   5.621 130.126  0.00  0.00    +0.000 A 
ATOM     14  N   UNL     1      -9.212   4.904 129.273  0.00  0.00    +0.000 NA
ATOM     15  H   UNL     1      -7.302   2.414 129.039  0.00  0.00    +0.000 HD
BRANCH  13  16
ATOM     16  C   UNL     1     -10.722   6.758 129.566  0.00  0.00    +0.000 A 
ATOM     17  C   UNL     1     -10.458   7.205 128.275  0.00  0.00    +0.000 A 
ATOM     18  N   UNL     1     -11.163   8.168 127.629  0.00  0.00    +0.000 NA
ATOM     19  C   UNL     1     -12.176   8.742 128.312  0.00  0.00    +0.000 A 
ATOM     20  C   UNL     1     -12.513   8.402 129.610  0.00  0.00    +0.000 A 
ATOM     21  C   UNL     1     -11.773   7.401 130.243  0.00  0.00    +0.000 A 
ENDBRANCH  13  16
ENDBRANCH   3   8
BRANCH   1  24
ATOM     22  C   UNL     1      -2.757   5.898 130.704  0.00  0.00    +0.000 C 
ATOM     23  O   UNL     1      -2.553   4.692 130.893  0.00  0.00    +0.000 OA
ATOM     24  N   UNL     1      -3.537   6.409 129.666  0.00  0.00    +0.000 N 
ATOM     25  H   UNL     1      -3.567   7.399 129.470  0.00  0.00    +0.000 HD
BRANCH  22  29
ATOM     26  C   UNL     1      -0.868   8.746 133.324  0.00  0.00    +0.000 A 
ATOM     27  C   UNL     1      -2.203   8.903 132.958  0.00  0.00    +0.000 A 
ATOM     28  C   UNL     1      -2.823   7.916 132.181  0.00  0.00    +0.000 A 
ATOM     29  C   UNL     1      -2.089   6.843 131.633  0.00  0.00    +0.000 A 
ATOM     30  C   UNL     1      -0.759   6.700 131.984  0.00  0.00    +0.000 A 
ATOM     31  C   UNL     1      -0.207   7.584 132.893  0.00  0.00    +0.000 A 
BRANCH  26  32
ATOM     32  C   UNL     1      -0.162   9.747 134.217  0.00  0.00    +0.000 C 
BRANCH  32  37
ATOM     33  C   UNL     1      -0.584  14.417 135.363  0.00  0.00    +0.000 C 
ATOM     34  N   UNL     1       0.102  13.434 134.544  0.00  0.00    +0.000 NA
ATOM     35  C   UNL     1      -0.827  12.739 133.630  0.00  0.00    +0.000 C 
ATOM     36  C   UNL     1      -0.097  11.683 132.754  0.00  0.00    +0.000 C 
ATOM     37  N   UNL     1       0.725  10.706 133.517  0.00  0.00    +0.000 NA
ATOM     38  C   UNL     1       1.590  11.500 134.422  0.00  0.00    +0.000 C 
ATOM     39  C   UNL     1       0.788  12.429 135.365  0.00  0.00    +0.000 C 
ENDBRANCH  32  37
ENDBRANCH  26  32
ENDBRANCH  22  29
ENDBRANCH   1  24
TORSDOF 6
ENDMDL
MODEL 5
REMARK VINA RESULT:      -9.2      1.606      2.221
REMARK  Name = Imatinib
REMARK  8 active torsions:
REMARK  status: ('A' for Active; 'I' for Inactive)
REMARK    1  A    between atoms: C_1  and  N_2
REMARK    2  A    between atoms: N_5  and  C_6
REMARK    3  A    between atoms: C_6  and  C_7
REMARK    4  A    between atoms: C_10  and  C_13
REMARK    5  A    between atoms: N_15  and  C_16
REMARK    6  A    between atoms: C_18  and  N_19
REMARK    7  A    between atoms: C_24  and  C_26
REMARK    8  A    between atoms: C_32  and  C_33
REMARK                            x       y       z     vdW  Elec       q    Type
REMARK                         _______ _______ _______ _____ _____    ______ ____
ROOT
ATOM      1  C   UNL     1      -6.074   4.160 124.512  0.00  0.00    +0.000 A 
ATOM      2  C   UNL     1      -7.364   3.603 124.623  0.00  0.00    +0.000 A 
ATOM      3  C   UNL     1      -8.091   3.201 123.470  0.00  0.00    +0.000 A 
ATOM      4  C   UNL     1      -7.523   3.499 122.210  0.00  0.00    +0.000 A 
ATOM      5  C   UNL     1      -8.236   3.400 120.892  0.00  0.00    +0.000 C 
ATOM      6  C   UNL     1      -6.208   3.971 122.122  0.00  0.00    +0.000 A 
ATOM      7  C   UNL     1      -5.493   4.297 123.258  0.00  0.00    +0.000 A 
ENDROOT
BRANCH   3   8
ATOM      8  N   UNL     1      -9.273   2.431 123.615  0.00  0.00    +0.000 N 
ATOM      9  C   UNL     1      -9.383   1.044 123.807  0.00  0.00    +0.000 A 
ATOM     10  N   UNL     1      -9.962   0.325 122.827  0.00  0.00    +0.000 NA
ATOM     11  C   UNL     1      -9.725  -1.006 122.822  0.00  0.00    +0.000 A 
ATOM     12  C   UNL     1      -8.985  -1.656 123.779  0.00  0.00    +0.000 A 
ATOM     13  C   UNL     1      -8.492  -0.867 124.792  0.00  0.00    +0.000 A 
ATOM     14  N   UNL     1      -8.707   0.470 124.828  0.00  0.00    +0.000 NA
ATOM     15  H   UNL     1     -10.153   2.862 123.382  0.00  0.00    +0.000 HD
BRANCH  13  16
ATOM     16  C   UNL     1      -7.683  -1.445 125.871  0.00  0.00    +0.000 A 
ATOM     17  C   UNL     1      -6.325  -1.158 125.965  0.00  0.00    +0.000 A 
ATOM     18  N   UNL     1      -5.519  -1.547 126.986  0.00  0.00    +0.000 NA
ATOM     19  C   UNL     1      -6.087  -2.289 127.960  0.00  0.00    +0.000 A 
ATOM     20  C   UNL     1      -7.420  -2.662 127.959  0.00  0.00    +0.000 A 
ATOM     21  C   UNL     1      -8.223  -2.237 126.899  0.00  0.00    +0.000 A 
ENDBRANCH  13  16
ENDBRANCH   3   8
BRANCH   1  24
ATOM     22  C   UNL     1      -4.613   3.561 126.410  0.00  0.00    +0.000 C 
ATOM     23  O   UNL     1      -4.449   2.380 126.074  0.00  0.00    +0.000 OA
ATOM     24  N   UNL     1      -5.311   4.502 125.653  0.00  0.00    +0.000 N 
ATOM     25  H   UNL     1      -5.305   5.481 125.899  0.00  0.00    +0.000 HD
BRANCH  22  29
ATOM     26  C   UNL     1      -2.916   4.787 130.173  0.00  0.00    +0.000 A 
ATOM     27  C   UNL     1      -3.745   3.670 130.104  0.00  0.00    +0.000 A 
ATOM     28  C   UNL     1      -4.211   3.234 128.857  0.00  0.00    +0.000 A 
ATOM     29  C   UNL     1      -3.985   3.986 127.686  0.00  0.00    +0.000 A 
ATOM     30  C   UNL     1      -3.177   5.106 127.759  0.00  0.00    +0.000 A 
ATOM     31  C   UNL     1      -2.580   5.423 128.966  0.00  0.00    +0.000 A 
BRANCH  26  32
ATOM     32  C   UNL     1      -2.328   5.267 131.485  0.00  0.00    +0.000 C 
BRANCH  32  37
ATOM     33  C   UNL     1      -1.885   7.461 135.762  0.00  0.00    +0.000 C 
ATOM     34  N   UNL     1      -1.741   7.585 134.323  0.00  0.00    +0.000 NA
ATOM     35  C   UNL     1      -3.033   7.425 133.627  0.00  0.00    +0.000 C 
ATOM     36  C   UNL     1      -2.881   7.554 132.085  0.00  0.00    +0.000 C 
ATOM     37  N   UNL     1      -1.845   6.668 131.489  0.00  0.00    +0.000 NA
ATOM     38  C   UNL     1      -0.607   6.878 132.277  0.00  0.00    +0.000 C 
ATOM     39  C   UNL     1      -0.797   6.597 133.788  0.00  0.00    +0.000 C 
ENDBRANCH  32  37
ENDBRANCH  26  32
ENDBRANCH  22  29
ENDBRANCH   1  24
TORSDOF 6
ENDMDL
MODEL 6
REMARK VINA RESULT:      -8.9      3.943      6.634
REMARK  Name = Imatinib
REMARK  8 active torsions:
REMARK  status: ('A' for Active; 'I' for Inactive)
REMARK    1  A    between atoms: C_1  and  N_2
REMARK    2  A    between atoms: N_5  and  C_6
REMARK    3  A    between atoms: C_6  and  C_7
REMARK    4  A    between atoms: C_10  and  C_13
REMARK    5  A    between atoms: N_15  and  C_16
REMARK    6  A    between atoms: C_18  and  N_19
REMARK    7  A    between atoms: C_24  and  C_26
REMARK    8  A    between atoms: C_32  and  C_33
REMARK                            x       y       z     vdW  Elec       q    Type
REMARK                         _______ _______ _______ _____ _____    ______ ____
ROOT
ATOM      1  C   UNL     1      -4.240   3.672 128.813  0.00  0.00    +0.000 A 
ATOM      2  C   UNL     1      -5.535   3.145 128.995  0.00  0.00    +0.000 A 
ATOM      3  C   UNL     1      -6.136   2.320 128.006  0.00  0.00    +0.000 A 
ATOM      4  C   UNL     1      -5.438   2.157 126.787  0.00  0.00    +0.000 A 
ATOM      5  C   UNL     1      -6.009   1.554 125.536  0.00  0.00    +0.000 C 
ATOM      6  C   UNL     1      -4.121   2.614 126.661  0.00  0.00    +0.000 A 
ATOM      7  C   UNL     1      -3.530   3.361 127.661  0.00  0.00    +0.000 A 
ENDROOT
BRANCH   3   8
ATOM      8  N   UNL     1      -7.327   1.612 128.308  0.00  0.00    +0.000 N 
ATOM      9  C   UNL     1      -8.327   1.957 129.232  0.00  0.00    +0.000 A 
ATOM     10  N   UNL     1      -8.498   1.150 130.295  0.00  0.00    +0.000 NA
ATOM     11  C   UNL     1      -9.159   1.664 131.356  0.00  0.00    +0.000 A 
ATOM     12  C   UNL     1      -9.704   2.924 131.381  0.00  0.00    +0.000 A 
ATOM     13  C   UNL     1      -9.559   3.661 130.229  0.00  0.00    +0.000 A 
ATOM     14  N   UNL     1      -8.900   3.180 129.148  0.00  0.00    +0.000 NA
ATOM     15  H   UNL     1      -7.414   0.665 127.977  0.00  0.00    +0.000 HD
BRANCH  13  16
ATOM     16  C   UNL     1     -10.095   5.024 130.135  0.00  0.00    +0.000 A 
ATOM     17  C   UNL     1      -9.280   6.076 129.730  0.00  0.00    +0.000 A 
ATOM     18  N   UNL     1      -9.707   7.344 129.502  0.00  0.00    +0.000 NA
ATOM     19  C   UNL     1     -11.017   7.592 129.711  0.00  0.00    +0.000 A 
ATOM     20  C   UNL     1     -11.918   6.634 130.142  0.00  0.00    +0.000 A 
ATOM     21  C   UNL     1     -11.447   5.337 130.359  0.00  0.00    +0.000 A 
ENDBRANCH  13  16
ENDBRANCH   3   8
BRANCH   1  24
ATOM     22  C   UNL     1      -3.710   5.827 129.896  0.00  0.00    +0.000 C 
ATOM     23  O   UNL     1      -4.493   6.505 129.217  0.00  0.00    +0.000 OA
ATOM     24  N   UNL     1      -3.602   4.438 129.817  0.00  0.00    +0.000 N 
ATOM     25  H   UNL     1      -3.049   3.917 130.481  0.00  0.00    +0.000 HD
BRANCH  22  29
ATOM     26  C   UNL     1      -1.304   8.069 132.675  0.00  0.00    +0.000 A 
ATOM     27  C   UNL     1      -2.609   8.465 132.394  0.00  0.00    +0.000 A 
ATOM     28  C   UNL     1      -3.405   7.670 131.560  0.00  0.00    +0.000 A 
ATOM     29  C   UNL     1      -2.869   6.559 130.876  0.00  0.00    +0.000 A 
ATOM     30  C   UNL     1      -1.566   6.179 131.142  0.00  0.00    +0.000 A 
ATOM     31  C   UNL     1      -0.849   6.870 132.102  0.00  0.00    +0.000 A 
BRANCH  26  32
ATOM     32  C   UNL     1      -0.417   8.854 133.622  0.00  0.00    +0.000 C 
BRANCH  32  37
ATOM     33  C   UNL     1       2.979  12.162 134.533  0.00  0.00    +0.000 C 
ATOM     34  N   UNL     1       1.556  11.896 134.410  0.00  0.00    +0.000 NA
ATOM     35  C   UNL     1       1.095  10.915 135.413  0.00  0.00    +0.000 C 
ATOM     36  C   UNL     1      -0.427  10.625 135.282  0.00  0.00    +0.000 C 
ATOM     37  N   UNL     1      -0.868  10.234 133.916  0.00  0.00    +0.000 NA
ATOM     38  C   UNL     1      -0.327  11.257 132.990  0.00  0.00    +0.000 C 
ATOM     39  C   UNL     1       1.214  11.395 133.074  0.00  0.00    +0.000 C 
ENDBRANCH  32  37
ENDBRANCH  26  32
ENDBRANCH  22  29
ENDBRANCH   1  24
TORSDOF 6
ENDMDL
MODEL 7
REMARK VINA RESULT:      -8.7      2.054      2.677
REMARK  Name = Imatinib
REMARK  8 active torsions:
REMARK  status: ('A' for Active; 'I' for Inactive)
REMARK    1  A    between atoms: C_1  and  N_2
REMARK    2  A    between atoms: N_5  and  C_6
REMARK    3  A    between atoms: C_6  and  C_7
REMARK    4  A    between atoms: C_10  and  C_13
REMARK    5  A    between atoms: N_15  and  C_16
REMARK    6  A    between atoms: C_18  and  N_19
REMARK    7  A    between atoms: C_24  and  C_26
REMARK    8  A    between atoms: C_32  and  C_33
REMARK                            x       y       z     vdW  Elec       q    Type
REMARK                         _______ _______ _______ _____ _____    ______ ____
ROOT
ATOM      1  C   UNL     1      -5.110   4.461 126.999  0.00  0.00    +0.000 A 
ATOM      2  C   UNL     1      -6.469   4.426 126.622  0.00  0.00    +0.000 A 
ATOM      3  C   UNL     1      -6.856   4.047 125.309  0.00  0.00    +0.000 A 
ATOM      4  C   UNL     1      -5.823   3.830 124.367  0.00  0.00    +0.000 A 
ATOM      5  C   UNL     1      -6.020   3.684 122.885  0.00  0.00    +0.000 C 
ATOM      6  C   UNL     1      -4.488   3.784 124.781  0.00  0.00    +0.000 A 
ATOM      7  C   UNL     1      -4.136   4.094 126.080  0.00  0.00    +0.000 A 
ENDROOT
BRANCH   3   8
ATOM      8  N   UNL     1      -8.221   3.790 125.023  0.00  0.00    +0.000 N 
ATOM      9  C   UNL     1      -8.828   2.554 124.743  0.00  0.00    +0.000 A 
ATOM     10  N   UNL     1      -9.339   2.378 123.511  0.00  0.00    +0.000 NA
ATOM     11  C   UNL     1      -9.562   1.104 123.116  0.00  0.00    +0.000 A 
ATOM     12  C   UNL     1      -9.350   0.007 123.913  0.00  0.00    +0.000 A 
ATOM     13  C   UNL     1      -8.902   0.271 125.187  0.00  0.00    +0.000 A 
ATOM     14  N   UNL     1      -8.665   1.534 125.616  0.00  0.00    +0.000 NA
ATOM     15  H   UNL     1      -8.818   4.573 124.813  0.00  0.00    +0.000 HD
BRANCH  13  16
ATOM     16  C   UNL     1      -8.634  -0.819 126.132  0.00  0.00    +0.000 A 
ATOM     17  C   UNL     1      -9.095  -2.105 125.874  0.00  0.00    +0.000 A 
ATOM     18  N   UNL     1      -8.803  -3.199 126.623  0.00  0.00    +0.000 NA
ATOM     19  C   UNL     1      -8.027  -3.002 127.710  0.00  0.00    +0.000 A 
ATOM     20  C   UNL     1      -7.534  -1.764 128.084  0.00  0.00    +0.000 A 
ATOM     21  C   UNL     1      -7.846  -0.661 127.286  0.00  0.00    +0.000 A 
ENDBRANCH  13  16
ENDBRANCH   3   8
BRANCH   1  24
ATOM     22  C   UNL     1      -4.108   5.979 128.669  0.00  0.00    +0.000 C 
ATOM     23  O   UNL     1      -4.009   6.952 127.910  0.00  0.00    +0.000 OA
ATOM     24  N   UNL     1      -4.714   4.771 128.321  0.00  0.00    +0.000 N 
ATOM     25  H   UNL     1      -4.891   4.055 129.011  0.00  0.00    +0.000 HD
BRANCH  22  29
ATOM     26  C   UNL     1      -2.510   6.588 132.621  0.00  0.00    +0.000 A 
ATOM     27  C   UNL     1      -3.327   7.551 132.035  0.00  0.00    +0.000 A 
ATOM     28  C   UNL     1      -3.911   7.292 130.789  0.00  0.00    +0.000 A 
ATOM     29  C   UNL     1      -3.571   6.144 130.043  0.00  0.00    +0.000 A 
ATOM     30  C   UNL     1      -2.744   5.197 130.619  0.00  0.00    +0.000 A 
ATOM     31  C   UNL     1      -2.317   5.385 131.921  0.00  0.00    +0.000 A 
BRANCH  26  32
ATOM     32  C   UNL     1      -1.902   6.784 133.996  0.00  0.00    +0.000 C 
BRANCH  32  37
ATOM     33  C   UNL     1       0.190  10.941 135.278  0.00  0.00    +0.000 C 
ATOM     34  N   UNL     1       0.396   9.563 134.867  0.00  0.00    +0.000 NA
ATOM     35  C   UNL     1      -0.135   9.310 133.513  0.00  0.00    +0.000 C 
ATOM     36  C   UNL     1       0.081   7.835 133.071  0.00  0.00    +0.000 C 
ATOM     37  N   UNL     1      -0.422   6.820 134.036  0.00  0.00    +0.000 NA
ATOM     38  C   UNL     1       0.138   7.184 135.359  0.00  0.00    +0.000 C 
ATOM     39  C   UNL     1      -0.233   8.621 135.800  0.00  0.00    +0.000 C 
ENDBRANCH  32  37
ENDBRANCH  26  32
ENDBRANCH  22  29
ENDBRANCH   1  24
TORSDOF 6
ENDMDL
MODEL 8
REMARK VINA RESULT:      -8.6      3.774     10.060
REMARK  Name = Imatinib
REMARK  8 active torsions:
REMARK  status: ('A' for Active; 'I' for Inactive)
REMARK    1  A    between atoms: C_1  and  N_2
REMARK    2  A    between atoms: N_5  and  C_6
REMARK    3  A    between atoms: C_6  and  C_7
REMARK    4  A    between atoms: C_10  and  C_13
REMARK    5  A    between atoms: N_15  and  C_16
REMARK    6  A    between atoms: C_18  and  N_19
REMARK    7  A    between atoms: C_24  and  C_26
REMARK    8  A    between atoms: C_32  and  C_33
REMARK                            x       y       z     vdW  Elec       q    Type
REMARK                         _______ _______ _______ _____ _____    ______ ____
ROOT
ATOM      1  C   UNL     1      -3.890   4.557 128.305  0.00  0.00    +0.000 A 
ATOM      2  C   UNL     1      -4.726   4.977 129.360  0.00  0.00    +0.000 A 
ATOM      3  C   UNL     1      -4.377   6.088 130.175  0.00  0.00    +0.000 A 
ATOM      4  C   UNL     1      -3.105   6.669 129.967  0.00  0.00    +0.000 A 
ATOM      5  C   UNL     1      -2.447   7.662 130.881  0.00  0.00    +0.000 C 
ATOM      6  C   UNL     1      -2.330   6.296 128.863  0.00  0.00    +0.000 A 
ATOM      7  C   UNL     1      -2.718   5.254 128.043  0.00  0.00    +0.000 A 
ENDROOT
BRANCH   3   8
ATOM      8  N   UNL     1      -5.335   6.637 131.066  0.00  0.00    +0.000 N 
ATOM      9  C   UNL     1      -6.700   6.324 131.167  0.00  0.00    +0.000 A 
ATOM     10  N   UNL     1      -7.584   7.289 130.852  0.00  0.00    +0.000 NA
ATOM     11  C   UNL     1      -8.847   6.896 130.572  0.00  0.00    +0.000 A 
ATOM     12  C   UNL     1      -9.278   5.595 130.647  0.00  0.00    +0.000 A 
ATOM     13  C   UNL     1      -8.339   4.676 131.052  0.00  0.00    +0.000 A 
ATOM     14  N   UNL     1      -7.064   5.032 131.338  0.00  0.00    +0.000 NA
ATOM     15  H   UNL     1      -5.088   7.471 131.574  0.00  0.00    +0.000 HD
BRANCH  13  16
ATOM     16  C   UNL     1      -8.678   3.252 131.166  0.00  0.00    +0.000 A 
ATOM     17  C   UNL     1      -7.966   2.298 130.447  0.00  0.00    +0.000 A 
ATOM     18  N   UNL     1      -8.126   0.956 130.571  0.00  0.00    +0.000 NA
ATOM     19  C   UNL     1      -9.066   0.533 131.442  0.00  0.00    +0.000 A 
ATOM     20  C   UNL     1      -9.855   1.388 132.191  0.00  0.00    +0.000 A 
ATOM     21  C   UNL     1      -9.659   2.763 132.046  0.00  0.00    +0.000 A 
ENDBRANCH  13  16
ENDBRANCH   3   8
BRANCH   1  24
ATOM     22  C   UNL     1      -5.181   3.645 126.410  0.00  0.00    +0.000 C 
ATOM     23  O   UNL     1      -5.641   4.732 126.036  0.00  0.00    +0.000 OA
ATOM     24  N   UNL     1      -4.256   3.497 127.444  0.00  0.00    +0.000 N 
ATOM     25  H   UNL     1      -3.809   2.611 127.625  0.00  0.00    +0.000 HD
BRANCH  22  29
ATOM     26  C   UNL     1      -6.613   0.199 124.260  0.00  0.00    +0.000 A 
ATOM     27  C   UNL     1      -6.922   1.483 123.819  0.00  0.00    +0.000 A 
ATOM     28  C   UNL     1      -6.370   2.588 124.478  0.00  0.00    +0.000 A 
ATOM     29  C   UNL     1      -5.630   2.439 125.670  0.00  0.00    +0.000 A 
ATOM     30  C   UNL     1      -5.340   1.162 126.117  0.00  0.00    +0.000 A 
ATOM     31  C   UNL     1      -5.744   0.078 125.357  0.00  0.00    +0.000 A 
BRANCH  26  32
ATOM     32  C   UNL     1      -7.128  -1.037 123.548  0.00  0.00    +0.000 C 
BRANCH  32  37
ATOM     33  C   UNL     1      -8.948  -3.765 127.091  0.00  0.00    +0.000 C 
ATOM     34  N   UNL     1      -9.239  -2.962 125.916  0.00  0.00    +0.000 NA
ATOM     35  C   UNL     1      -8.618  -3.526 124.701  0.00  0.00    +0.000 C 
ATOM     36  C   UNL     1      -8.925  -2.666 123.442  0.00  0.00    +0.000 C 
ATOM     37  N   UNL     1      -8.598  -1.222 123.583  0.00  0.00    +0.000 NA
ATOM     38  C   UNL     1      -9.234  -0.768 124.842  0.00  0.00    +0.000 C 
ATOM     39  C   UNL     1      -8.776  -1.579 126.079  0.00  0.00    +0.000 C 
ENDBRANCH  32  37
ENDBRANCH  26  32
ENDBRANCH  22  29
ENDBRANCH   1  24
TORSDOF 6
ENDMDL
MODEL 9
REMARK VINA RESULT:      -8.6      4.823      7.832
REMARK  Name = Imatinib
REMARK  8 active torsions:
REMARK  status: ('A' for Active; 'I' for Inactive)
REMARK    1  A    between atoms: C_1  and  N_2
REMARK    2  A    between atoms: N_5  and  C_6
REMARK    3  A    between atoms: C_6  and  C_7
REMARK    4  A    between atoms: C_10  and  C_13
REMARK    5  A    between atoms: N_15  and  C_16
REMARK    6  A    between atoms: C_18  and  N_19
REMARK    7  A    between atoms: C_24  and  C_26
REMARK    8  A    between atoms: C_32  and  C_33
REMARK                            x       y       z     vdW  Elec       q    Type
REMARK                         _______ _______ _______ _____ _____    ______ ____
ROOT
ATOM      1  C   UNL     1      -3.357   4.858 129.809  0.00  0.00    +0.000 A 
ATOM      2  C   UNL     1      -4.306   4.016 130.424  0.00  0.00    +0.000 A 
ATOM      3  C   UNL     1      -4.768   2.838 129.778  0.00  0.00    +0.000 A 
ATOM      4  C   UNL     1      -4.336   2.615 128.450  0.00  0.00    +0.000 A 
ATOM      5  C   UNL     1      -4.906   1.588 127.514  0.00  0.00    +0.000 C 
ATOM      6  C   UNL     1      -3.330   3.412 127.893  0.00  0.00    +0.000 A 
ATOM      7  C   UNL     1      -2.846   4.518 128.563  0.00  0.00    +0.000 A 
ENDROOT
BRANCH   3   8
ATOM      8  N   UNL     1      -5.533   1.889 130.505  0.00  0.00    +0.000 N 
ATOM      9  C   UNL     1      -6.556   2.134 131.435  0.00  0.00    +0.000 A 
ATOM     10  N   UNL     1      -6.333   1.778 132.714  0.00  0.00    +0.000 NA
ATOM     11  C   UNL     1      -7.118   2.348 133.655  0.00  0.00    +0.000 A 
ATOM     12  C   UNL     1      -8.148   3.210 133.373  0.00  0.00    +0.000 A 
ATOM     13  C   UNL     1      -8.367   3.464 132.039  0.00  0.00    +0.000 A 
ATOM     14  N   UNL     1      -7.599   2.914 131.069  0.00  0.00    +0.000 NA
ATOM     15  H   UNL     1      -5.216   0.933 130.517  0.00  0.00    +0.000 HD
BRANCH  13  16
ATOM     16  C   UNL     1      -9.437   4.373 131.611  0.00  0.00    +0.000 A 
ATOM     17  C   UNL     1     -10.206   4.080 130.490  0.00  0.00    +0.000 A 
ATOM     18  N   UNL     1     -11.287   4.793 130.083  0.00  0.00    +0.000 NA
ATOM     19  C   UNL     1     -11.610   5.879 130.816  0.00  0.00    +0.000 A 
ATOM     20  C   UNL     1     -10.903   6.287 131.933  0.00  0.00    +0.000 A 
ATOM     21  C   UNL     1      -9.801   5.526 132.330  0.00  0.00    +0.000 A 
ENDBRANCH  13  16
ENDBRANCH   3   8
BRANCH   1  24
ATOM     22  C   UNL     1      -2.028   5.915 131.602  0.00  0.00    +0.000 C 
ATOM     23  O   UNL     1      -1.550   4.861 132.043  0.00  0.00    +0.000 OA
ATOM     24  N   UNL     1      -2.837   5.997 130.468  0.00  0.00    +0.000 N 
ATOM     25  H   UNL     1      -3.093   6.888 130.069  0.00  0.00    +0.000 HD
BRANCH  22  29
ATOM     26  C   UNL     1      -0.934   9.459 133.790  0.00  0.00    +0.000 A 
ATOM     27  C   UNL     1       0.022   8.490 133.493  0.00  0.00    +0.000 A 
ATOM     28  C   UNL     1      -0.334   7.392 132.701  0.00  0.00    +0.000 A 
ATOM     29  C   UNL     1      -1.674   7.163 132.323  0.00  0.00    +0.000 A 
ATOM     30  C   UNL     1      -2.625   8.117 132.635  0.00  0.00    +0.000 A 
ATOM     31  C   UNL     1      -2.225   9.282 133.264  0.00  0.00    +0.000 A 
BRANCH  26  32
ATOM     32  C   UNL     1      -0.591  10.702 134.587  0.00  0.00    +0.000 C 
BRANCH  32  37
ATOM     33  C   UNL     1      -1.592  15.262 135.816  0.00  0.00    +0.000 C 
ATOM     34  N   UNL     1      -0.844  14.389 134.930  0.00  0.00    +0.000 NA
ATOM     35  C   UNL     1      -1.737  13.563 134.092  0.00  0.00    +0.000 C 
ATOM     36  C   UNL     1      -0.939  12.624 133.145  0.00  0.00    +0.000 C 
ATOM     37  N   UNL     1       0.080  11.780 133.823  0.00  0.00    +0.000 NA
ATOM     38  C   UNL     1       0.895  12.694 134.658  0.00  0.00    +0.000 C 
ATOM     39  C   UNL     1       0.051  13.498 135.678  0.00  0.00    +0.000 C 
ENDBRANCH  32  37
ENDBRANCH  26  32
ENDBRANCH  22  29
ENDBRANCH   1  24
TORSDOF 6
ENDMDL
