MODEL 1
REMARK VINA RESULT:      -7.3      0.000      0.000
REMARK  Name = Imidurea
REMARK  8 active torsions:
REMARK  status: ('A' for Active; 'I' for Inactive)
REMARK    1  A    between atoms: O_1  and  C_2
REMARK    2  A    between atoms: C_2  and  N_3
REMARK    3  A    between atoms: C_4  and  N_5
REMARK    4  A    between atoms: N_8  and  C_9
REMARK    5  A    between atoms: C_9  and  N_10
REMARK    6  A    between atoms: N_13  and  C_14
REMARK    7  A    between atoms: N_15  and  C_16
REMARK    8  A    between atoms: C_16  and  O_17
REMARK                            x       y       z     vdW  Elec       q    Type
REMARK                         _______ _______ _______ _____ _____    ______ ____
ROOT
ATOM      1  C   UNL     1      -8.134   2.770 130.103  0.00  0.00    +0.000 C 
ENDROOT
BRANCH   1   5
ATOM      2  N   UNL     1      -8.621   0.971 126.899  0.00  0.00    +0.000 N 
ATOM      3  C   UNL     1      -8.008   1.752 127.858  0.00  0.00    +0.000 C 
ATOM      4  O   UNL     1      -6.992   2.396 127.617  0.00  0.00    +0.000 OA
ATOM      5  N   UNL     1      -8.647   1.841 129.082  0.00  0.00    +0.000 N 
ATOM      6  H   UNL     1      -9.287   0.267 127.183  0.00  0.00    +0.000 HD
ATOM      7  H   UNL     1      -9.418   1.234 129.294  0.00  0.00    +0.000 HD
BRANCH   2   9
ATOM      8  N   UNL     1      -8.980   0.718 124.469  0.00  0.00    +0.000 N 
ATOM      9  C   UNL     1      -8.024   0.794 125.559  0.00  0.00    +0.000 C 
ATOM     10  C   UNL     1      -7.331  -0.588 125.337  0.00  0.00    +0.000 C 
ATOM     11  O   UNL     1      -6.398  -1.048 125.980  0.00  0.00    +0.000 OA
ATOM     12  N   UNL     1      -7.977  -1.256 124.345  0.00  0.00    +0.000 N 
ATOM     13  C   UNL     1      -8.981  -0.506 123.838  0.00  0.00    +0.000 C 
ATOM     14  O   UNL     1      -9.730  -0.922 122.961  0.00  0.00    +0.000 OA
ATOM     15  H   UNL     1      -7.770  -2.181 124.007  0.00  0.00    +0.000 HD
BRANCH   8  16
ATOM     16  C   UNL     1      -9.902   1.784 124.199  0.00  0.00    +0.000 C 
BRANCH  16  17
ATOM     17  O   UNL     1      -9.441   2.986 124.775  0.00  0.00    +0.000 OA
ATOM     18  H   UNL     1      -9.482   3.658 124.077  0.00  0.00    +0.000 HD
ENDBRANCH  16  17
ENDBRANCH   8  16
ENDBRANCH   2   9
ENDBRANCH   1   5
BRANCH   1  19
ATOM     19  N   UNL     1      -8.496   4.182 129.942  0.00  0.00    +0.000 N 
ATOM     20  C   UNL     1      -9.837   4.572 129.903  0.00  0.00    +0.000 C 
ATOM     21  O   UNL     1     -10.765   3.778 129.972  0.00  0.00    +0.000 OA
ATOM     22  N   UNL     1     -10.039   5.934 129.788  0.00  0.00    +0.000 N 
ATOM     23  H   UNL     1      -7.765   4.850 129.781  0.00  0.00    +0.000 HD
ATOM     24  H   UNL     1      -9.248   6.485 129.493  0.00  0.00    +0.000 HD
BRANCH  22  25
ATOM     25  C   UNL     1     -11.358   6.536 129.530  0.00  0.00    +0.000 C 
ATOM     26  N   UNL     1     -11.542   7.645 128.598  0.00  0.00    +0.000 N 
ATOM     27  C   UNL     1     -12.457   8.556 129.118  0.00  0.00    +0.000 C 
ATOM     28  O   UNL     1     -13.038   9.447 128.514  0.00  0.00    +0.000 OA
ATOM     29  N   UNL     1     -12.699   8.258 130.416  0.00  0.00    +0.000 N 
ATOM     30  C   UNL     1     -12.128   7.072 130.764  0.00  0.00    +0.000 C 
ATOM     31  O   UNL     1     -12.279   6.507 131.836  0.00  0.00    +0.000 OA
ATOM     32  H   UNL     1     -13.292   8.815 131.009  0.00  0.00    +0.000 HD
BRANCH  26  33
ATOM     33  C   UNL     1     -11.250   7.520 127.191  0.00  0.00    +0.000 C 
BRANCH  33  34
ATOM     34  O   UNL     1     -10.104   6.733 126.922  0.00  0.00    +0.000 OA
ATOM     35  H   UNL     1     -10.154   5.927 127.472  0.00  0.00    +0.000 HD
ENDBRANCH  33  34
ENDBRANCH  26  33
ENDBRANCH  22  25
ENDBRANCH   1  19
TORSDOF 8
ENDMDL
MODEL 2
REMARK VINA RESULT:      -7.1      2.398      7.904
REMARK  Name = Imidurea
REMARK  8 active torsions:
REMARK  status: ('A' for Active; 'I' for Inactive)
REMARK    1  A    between atoms: O_1  and  C_2
REMARK    2  A    between atoms: C_2  and  N_3
REMARK    3  A    between atoms: C_4  and  N_5
REMARK    4  A    between atoms: N_8  and  C_9
REMARK    5  A    between atoms: C_9  and  N_10
REMARK    6  A    between atoms: N_13  and  C_14
REMARK    7  A    between atoms: N_15  and  C_16
REMARK    8  A    between atoms: C_16  and  O_17
REMARK                            x       y       z     vdW  Elec       q    Type
REMARK                         _______ _______ _______ _____ _____    ______ ____
ROOT
ATOM      1  C   UNL     1      -7.230   4.365 130.704  0.00  0.00    +0.000 C 
ENDROOT
BRANCH   1   5
ATOM      2  N   UNL     1      -9.940   6.737 129.829  0.00  0.00    +0.000 N 
ATOM      3  C   UNL     1      -9.332   5.552 130.192  0.00  0.00    +0.000 C 
ATOM      4  O   UNL     1      -9.943   4.488 130.208  0.00  0.00    +0.000 OA
ATOM      5  N   UNL     1      -7.975   5.610 130.455  0.00  0.00    +0.000 N 
ATOM      6  H   UNL     1      -9.501   7.614 130.065  0.00  0.00    +0.000 HD
ATOM      7  H   UNL     1      -7.514   6.499 130.535  0.00  0.00    +0.000 HD
BRANCH   2   9
ATOM      8  N   UNL     1     -11.795   7.906 128.691  0.00  0.00    +0.000 N 
ATOM      9  C   UNL     1     -11.387   6.797 129.534  0.00  0.00    +0.000 C 
ATOM     10  C   UNL     1     -12.285   7.122 130.770  0.00  0.00    +0.000 C 
ATOM     11  O   UNL     1     -12.367   6.473 131.803  0.00  0.00    +0.000 OA
ATOM     12  N   UNL     1     -12.927   8.301 130.556  0.00  0.00    +0.000 N 
ATOM     13  C   UNL     1     -12.622   8.797 129.336  0.00  0.00    +0.000 C 
ATOM     14  O   UNL     1     -13.052   9.876 128.942  0.00  0.00    +0.000 OA
ATOM     15  H   UNL     1     -13.548   8.774 131.192  0.00  0.00    +0.000 HD
BRANCH   8  16
ATOM     16  C   UNL     1     -11.259   8.086 127.372  0.00  0.00    +0.000 C 
BRANCH  16  17
ATOM     17  O   UNL     1     -10.816   6.852 126.851  0.00  0.00    +0.000 OA
ATOM     18  H   UNL     1     -11.322   6.164 127.310  0.00  0.00    +0.000 HD
ENDBRANCH  16  17
ENDBRANCH   8  16
ENDBRANCH   2   9
ENDBRANCH   1   5
BRANCH   1  19
ATOM     19  N   UNL     1      -7.276   3.353 129.644  0.00  0.00    +0.000 N 
ATOM     20  C   UNL     1      -6.860   3.663 128.348  0.00  0.00    +0.000 C 
ATOM     21  O   UNL     1      -6.467   4.774 128.020  0.00  0.00    +0.000 OA
ATOM     22  N   UNL     1      -6.917   2.609 127.455  0.00  0.00    +0.000 N 
ATOM     23  H   UNL     1      -7.685   2.460 129.850  0.00  0.00    +0.000 HD
ATOM     24  H   UNL     1      -7.471   1.814 127.730  0.00  0.00    +0.000 HD
BRANCH  22  25
ATOM     25  C   UNL     1      -6.716   2.766 126.005  0.00  0.00    +0.000 C 
ATOM     26  N   UNL     1      -5.694   3.648 125.448  0.00  0.00    +0.000 N 
ATOM     27  C   UNL     1      -6.194   4.312 124.333  0.00  0.00    +0.000 C 
ATOM     28  O   UNL     1      -5.555   4.914 123.482  0.00  0.00    +0.000 OA
ATOM     29  N   UNL     1      -7.533   4.123 124.262  0.00  0.00    +0.000 N 
ATOM     30  C   UNL     1      -7.951   3.207 125.178  0.00  0.00    +0.000 C 
ATOM     31  O   UNL     1      -9.086   2.762 125.261  0.00  0.00    +0.000 OA
ATOM     32  H   UNL     1      -8.115   4.555 123.563  0.00  0.00    +0.000 HD
BRANCH  26  33
ATOM     33  C   UNL     1      -4.287   3.436 125.689  0.00  0.00    +0.000 C 
BRANCH  33  34
ATOM     34  O   UNL     1      -3.755   4.275 126.697  0.00  0.00    +0.000 OA
ATOM     35  H   UNL     1      -3.988   3.891 127.564  0.00  0.00    +0.000 HD
ENDBRANCH  33  34
ENDBRANCH  26  33
ENDBRANCH  22  25
ENDBRANCH   1  19
TORSDOF 8
ENDMDL
MODEL 3
REMARK VINA RESULT:      -7.1      0.829      8.457
REMARK  Name = Imidurea
REMARK  8 active torsions:
REMARK  status: ('A' for Active; 'I' for Inactive)
REMARK    1  A    between atoms: O_1  and  C_2
REMARK    2  A    between atoms: C_2  and  N_3
REMARK    3  A    between atoms: C_4  and  N_5
REMARK    4  A    between atoms: N_8  and  C_9
REMARK    5  A    between atoms: C_9  and  N_10
REMARK    6  A    between atoms: N_13  and  C_14
REMARK    7  A    between atoms: N_15  and  C_16
REMARK    8  A    between atoms: C_16  and  O_17
REMARK                            x       y       z     vdW  Elec       q    Type
REMARK                         _______ _______ _______ _____ _____    ______ ____
ROOT
ATOM      1  C   UNL     1      -8.093   3.447 129.704  0.00  0.00    +0.000 C 
ENDROOT
BRANCH   1   5
ATOM      2  N   UNL     1     -10.497   6.227 129.227  0.00  0.00    +0.000 N 
ATOM      3  C   UNL     1     -10.021   4.983 129.590  0.00  0.00    +0.000 C 
ATOM      4  O   UNL     1     -10.773   4.073 129.919  0.00  0.00    +0.000 OA
ATOM      5  N   UNL     1      -8.656   4.788 129.478  0.00  0.00    +0.000 N 
ATOM      6  H   UNL     1      -9.866   7.015 129.209  0.00  0.00    +0.000 HD
ATOM      7  H   UNL     1      -8.047   5.568 129.304  0.00  0.00    +0.000 HD
BRANCH   2   9
ATOM      8  N   UNL     1     -12.349   7.710 128.540  0.00  0.00    +0.000 N 
ATOM      9  C   UNL     1     -11.936   6.553 129.314  0.00  0.00    +0.000 C 
ATOM     10  C   UNL     1     -12.401   7.053 130.719  0.00  0.00    +0.000 C 
ATOM     11  O   UNL     1     -12.320   6.442 131.775  0.00  0.00    +0.000 OA
ATOM     12  N   UNL     1     -12.858   8.328 130.608  0.00  0.00    +0.000 N 
ATOM     13  C   UNL     1     -12.805   8.746 129.324  0.00  0.00    +0.000 C 
ATOM     14  O   UNL     1     -13.125   9.882 128.991  0.00  0.00    +0.000 OA
ATOM     15  H   UNL     1     -13.194   8.915 131.354  0.00  0.00    +0.000 HD
BRANCH   8  16
ATOM     16  C   UNL     1     -12.160   7.773 127.120  0.00  0.00    +0.000 C 
BRANCH  16  17
ATOM     17  O   UNL     1     -11.821   6.500 126.614  0.00  0.00    +0.000 OA
ATOM     18  H   UNL     1     -12.074   5.858 127.295  0.00  0.00    +0.000 HD
ENDBRANCH  16  17
ENDBRANCH   8  16
ENDBRANCH   2   9
ENDBRANCH   1   5
BRANCH   1  19
ATOM     19  N   UNL     1      -8.644   2.361 128.887  0.00  0.00    +0.000 N 
ATOM     20  C   UNL     1      -8.103   2.071 127.633  0.00  0.00    +0.000 C 
ATOM     21  O   UNL     1      -7.180   2.705 127.141  0.00  0.00    +0.000 OA
ATOM     22  N   UNL     1      -8.689   1.000 126.985  0.00  0.00    +0.000 N 
ATOM     23  H   UNL     1      -9.465   1.884 129.212  0.00  0.00    +0.000 HD
ATOM     24  H   UNL     1      -9.583   0.695 127.334  0.00  0.00    +0.000 HD
BRANCH  22  25
ATOM     25  C   UNL     1      -8.408   0.654 125.581  0.00  0.00    +0.000 C 
ATOM     26  N   UNL     1      -9.466   0.519 124.583  0.00  0.00    +0.000 N 
ATOM     27  C   UNL     1      -9.197  -0.561 123.748  0.00  0.00    +0.000 C 
ATOM     28  O   UNL     1      -9.714  -0.807 122.667  0.00  0.00    +0.000 OA
ATOM     29  N   UNL     1      -8.182  -1.290 124.270  0.00  0.00    +0.000 N 
ATOM     30  C   UNL     1      -7.618  -0.658 125.335  0.00  0.00    +0.000 C 
ATOM     31  O   UNL     1      -6.616  -1.031 125.925  0.00  0.00    +0.000 OA
ATOM     32  H   UNL     1      -7.851  -2.148 123.860  0.00  0.00    +0.000 HD
BRANCH  26  33
ATOM     33  C   UNL     1     -10.313   1.626 124.211  0.00  0.00    +0.000 C 
BRANCH  33  34
ATOM     34  O   UNL     1     -11.632   1.238 123.875  0.00  0.00    +0.000 OA
ATOM     35  H   UNL     1     -12.227   1.539 124.589  0.00  0.00    +0.000 HD
ENDBRANCH  33  34
ENDBRANCH  26  33
ENDBRANCH  22  25
ENDBRANCH   1  19
TORSDOF 8
ENDMDL
MODEL 4
REMARK VINA RESULT:      -7.0      3.929      4.867
REMARK  Name = Imidurea
REMARK  8 active torsions:
REMARK  status: ('A' for Active; 'I' for Inactive)
REMARK    1  A    between atoms: O_1  and  C_2
REMARK    2  A    between atoms: C_2  and  N_3
REMARK    3  A    between atoms: C_4  and  N_5
REMARK    4  A    between atoms: N_8  and  C_9
REMARK    5  A    between atoms: C_9  and  N_10
REMARK    6  A    between atoms: N_13  and  C_14
REMARK    7  A    between atoms: N_15  and  C_16
REMARK    8  A    between atoms: C_16  and  O_17
REMARK                            x       y       z     vdW  Elec       q    Type
REMARK                         _______ _______ _______ _____ _____    ______ ____
ROOT
ATOM      1  C   UNL     1      -6.124   4.168 127.450  0.00  0.00    +0.000 C 
ENDROOT
BRANCH   1   5
ATOM      2  N   UNL     1      -6.246   4.448 123.756  0.00  0.00    +0.000 N 
ATOM      3  C   UNL     1      -6.194   3.857 125.003  0.00  0.00    +0.000 C 
ATOM      4  O   UNL     1      -5.975   2.659 125.144  0.00  0.00    +0.000 OA
ATOM      5  N   UNL     1      -6.316   4.702 126.091  0.00  0.00    +0.000 N 
ATOM      6  H   UNL     1      -6.671   5.358 123.654  0.00  0.00    +0.000 HD
ATOM      7  H   UNL     1      -6.593   5.659 125.959  0.00  0.00    +0.000 HD
BRANCH   2   9
ATOM      8  N   UNL     1      -5.515   4.324 121.400  0.00  0.00    +0.000 N 
ATOM      9  C   UNL     1      -6.136   3.643 122.521  0.00  0.00    +0.000 C 
ATOM     10  C   UNL     1      -7.504   3.310 121.844  0.00  0.00    +0.000 C 
ATOM     11  O   UNL     1      -8.435   2.695 122.344  0.00  0.00    +0.000 OA
ATOM     12  N   UNL     1      -7.539   3.878 120.609  0.00  0.00    +0.000 N 
ATOM     13  C   UNL     1      -6.376   4.512 120.341  0.00  0.00    +0.000 C 
ATOM     14  O   UNL     1      -6.194   5.136 119.301  0.00  0.00    +0.000 OA
ATOM     15  H   UNL     1      -8.305   3.856 119.957  0.00  0.00    +0.000 HD
BRANCH   8  16
ATOM     16  C   UNL     1      -4.183   4.848 121.481  0.00  0.00    +0.000 C 
BRANCH  16  17
ATOM     17  O   UNL     1      -4.167   6.206 121.099  0.00  0.00    +0.000 OA
ATOM     18  H   UNL     1      -4.904   6.630 121.564  0.00  0.00    +0.000 HD
ENDBRANCH  16  17
ENDBRANCH   8  16
ENDBRANCH   2   9
ENDBRANCH   1   5
BRANCH   1  19
ATOM     19  N   UNL     1      -7.283   3.514 128.065  0.00  0.00    +0.000 N 
ATOM     20  C   UNL     1      -8.052   4.182 129.020  0.00  0.00    +0.000 C 
ATOM     21  O   UNL     1      -7.798   5.313 129.410  0.00  0.00    +0.000 OA
ATOM     22  N   UNL     1      -9.138   3.467 129.490  0.00  0.00    +0.000 N 
ATOM     23  H   UNL     1      -7.463   2.551 127.845  0.00  0.00    +0.000 HD
ATOM     24  H   UNL     1      -9.137   2.475 129.311  0.00  0.00    +0.000 HD
BRANCH  22  25
ATOM     25  C   UNL     1      -9.957   3.900 130.634  0.00  0.00    +0.000 C 
ATOM     26  N   UNL     1     -10.417   5.277 130.789  0.00  0.00    +0.000 N 
ATOM     27  C   UNL     1     -10.329   5.662 132.123  0.00  0.00    +0.000 C 
ATOM     28  O   UNL     1     -10.859   6.630 132.650  0.00  0.00    +0.000 OA
ATOM     29  N   UNL     1      -9.620   4.736 132.811  0.00  0.00    +0.000 N 
ATOM     30  C   UNL     1      -9.371   3.638 132.046  0.00  0.00    +0.000 C 
ATOM     31  O   UNL     1      -8.851   2.607 132.443  0.00  0.00    +0.000 OA
ATOM     32  H   UNL     1      -9.386   4.832 133.785  0.00  0.00    +0.000 HD
BRANCH  26  33
ATOM     33  C   UNL     1     -11.301   5.901 129.833  0.00  0.00    +0.000 C 
BRANCH  33  34
ATOM     34  O   UNL     1     -10.682   6.179 128.591  0.00  0.00    +0.000 OA
ATOM     35  H   UNL     1     -11.278   5.874 127.880  0.00  0.00    +0.000 HD
ENDBRANCH  33  34
ENDBRANCH  26  33
ENDBRANCH  22  25
ENDBRANCH   1  19
TORSDOF 8
ENDMDL
MODEL 5
REMARK VINA RESULT:      -7.0      1.452      2.351
REMARK  Name = Imidurea
REMARK  8 active torsions:
REMARK  status: ('A' for Active; 'I' for Inactive)
REMARK    1  A    between atoms: O_1  and  C_2
REMARK    2  A    between atoms: C_2  and  N_3
REMARK    3  A    between atoms: C_4  and  N_5
REMARK    4  A    between atoms: N_8  and  C_9
REMARK    5  A    between atoms: C_9  and  N_10
REMARK    6  A    between atoms: N_13  and  C_14
REMARK    7  A    between atoms: N_15  and  C_16
REMARK    8  A    between atoms: C_16  and  O_17
REMARK                            x       y       z     vdW  Elec       q    Type
REMARK                         _______ _______ _______ _____ _____    ______ ____
ROOT
ATOM      1  C   UNL     1      -8.410   3.136 130.130  0.00  0.00    +0.000 C 
ENDROOT
BRANCH   1   5
ATOM      2  N   UNL     1      -7.091   2.056 126.838  0.00  0.00    +0.000 N 
ATOM      3  C   UNL     1      -7.994   2.250 127.865  0.00  0.00    +0.000 C 
ATOM      4  O   UNL     1      -9.097   1.713 127.866  0.00  0.00    +0.000 OA
ATOM      5  N   UNL     1      -7.559   3.010 128.935  0.00  0.00    +0.000 N 
ATOM      6  H   UNL     1      -6.314   2.693 126.733  0.00  0.00    +0.000 HD
ATOM      7  H   UNL     1      -6.696   3.521 128.873  0.00  0.00    +0.000 HD
BRANCH   2   9
ATOM      8  N   UNL     1      -8.532   1.822 124.847  0.00  0.00    +0.000 N 
ATOM      9  C   UNL     1      -7.449   1.270 125.640  0.00  0.00    +0.000 C 
ATOM     10  C   UNL     1      -8.091  -0.120 125.947  0.00  0.00    +0.000 C 
ATOM     11  O   UNL     1      -7.583  -1.034 126.582  0.00  0.00    +0.000 OA
ATOM     12  N   UNL     1      -9.357  -0.145 125.454  0.00  0.00    +0.000 N 
ATOM     13  C   UNL     1      -9.648   1.015 124.824  0.00  0.00    +0.000 C 
ATOM     14  O   UNL     1     -10.751   1.238 124.338  0.00  0.00    +0.000 OA
ATOM     15  H   UNL     1     -10.019  -0.899 125.530  0.00  0.00    +0.000 HD
BRANCH   8  16
ATOM     16  C   UNL     1      -8.455   3.135 124.275  0.00  0.00    +0.000 C 
BRANCH  16  17
ATOM     17  O   UNL     1      -8.944   4.095 125.186  0.00  0.00    +0.000 OA
ATOM     18  H   UNL     1      -9.715   4.505 124.764  0.00  0.00    +0.000 HD
ENDBRANCH  16  17
ENDBRANCH   8  16
ENDBRANCH   2   9
ENDBRANCH   1   5
BRANCH   1  19
ATOM     19  N   UNL     1      -9.654   3.895 129.969  0.00  0.00    +0.000 N 
ATOM     20  C   UNL     1      -9.624   5.283 129.813  0.00  0.00    +0.000 C 
ATOM     21  O   UNL     1      -8.589   5.935 129.828  0.00  0.00    +0.000 OA
ATOM     22  N   UNL     1     -10.862   5.870 129.632  0.00  0.00    +0.000 N 
ATOM     23  H   UNL     1     -10.527   3.409 130.053  0.00  0.00    +0.000 HD
ATOM     24  H   UNL     1     -11.666   5.314 129.875  0.00  0.00    +0.000 HD
BRANCH  22  25
ATOM     25  C   UNL     1     -11.075   7.327 129.648  0.00  0.00    +0.000 C 
ATOM     26  N   UNL     1     -12.305   7.932 130.152  0.00  0.00    +0.000 N 
ATOM     27  C   UNL     1     -12.678   8.999 129.341  0.00  0.00    +0.000 C 
ATOM     28  O   UNL     1     -13.487   9.879 129.602  0.00  0.00    +0.000 OA
ATOM     29  N   UNL     1     -11.930   8.987 128.213  0.00  0.00    +0.000 N 
ATOM     30  C   UNL     1     -10.933   8.064 128.292  0.00  0.00    +0.000 C 
ATOM     31  O   UNL     1     -10.043   7.917 127.468  0.00  0.00    +0.000 OA
ATOM     32  H   UNL     1     -12.062   9.639 127.457  0.00  0.00    +0.000 HD
BRANCH  26  33
ATOM     33  C   UNL     1     -12.722   7.787 131.526  0.00  0.00    +0.000 C 
BRANCH  33  34
ATOM     34  O   UNL     1     -12.497   6.492 132.050  0.00  0.00    +0.000 OA
ATOM     35  H   UNL     1     -12.225   6.586 132.983  0.00  0.00    +0.000 HD
ENDBRANCH  33  34
ENDBRANCH  26  33
ENDBRANCH  22  25
ENDBRANCH   1  19
TORSDOF 8
ENDMDL
MODEL 6
REMARK VINA RESULT:      -6.9      3.452      4.566
REMARK  Name = Imidurea
REMARK  8 active torsions:
REMARK  status: ('A' for Active; 'I' for Inactive)
REMARK    1  A    between atoms: O_1  and  C_2
REMARK    2  A    between atoms: C_2  and  N_3
REMARK    3  A    between atoms: C_4  and  N_5
REMARK    4  A    between atoms: N_8  and  C_9
REMARK    5  A    between atoms: C_9  and  N_10
REMARK    6  A    between atoms: N_13  and  C_14
REMARK    7  A    between atoms: N_15  and  C_16
REMARK    8  A    between atoms: C_16  and  O_17
REMARK                            x       y       z     vdW  Elec       q    Type
REMARK                         _______ _______ _______ _____ _____    ______ ____
ROOT
ATOM      1  C   UNL     1      -7.924   3.423 130.839  0.00  0.00    +0.000 C 
ENDROOT
BRANCH   1   5
ATOM      2  N   UNL     1      -4.740   3.657 128.956  0.00  0.00    +0.000 N 
ATOM      3  C   UNL     1      -6.063   3.875 129.282  0.00  0.00    +0.000 C 
ATOM      4  O   UNL     1      -6.838   4.429 128.509  0.00  0.00    +0.000 OA
ATOM      5  N   UNL     1      -6.495   3.359 130.491  0.00  0.00    +0.000 N 
ATOM      6  H   UNL     1      -4.077   3.439 129.687  0.00  0.00    +0.000 HD
ATOM      7  H   UNL     1      -5.830   2.999 131.152  0.00  0.00    +0.000 HD
BRANCH   2   9
ATOM      8  N   UNL     1      -3.592   3.158 126.827  0.00  0.00    +0.000 N 
ATOM      9  C   UNL     1      -4.166   4.170 127.695  0.00  0.00    +0.000 C 
ATOM     10  C   UNL     1      -2.889   5.051 127.878  0.00  0.00    +0.000 C 
ATOM     11  O   UNL     1      -2.804   6.090 128.517  0.00  0.00    +0.000 OA
ATOM     12  N   UNL     1      -1.838   4.444 127.265  0.00  0.00    +0.000 N 
ATOM     13  C   UNL     1      -2.232   3.300 126.662  0.00  0.00    +0.000 C 
ATOM     14  O   UNL     1      -1.444   2.560 126.083  0.00  0.00    +0.000 OA
ATOM     15  H   UNL     1      -0.885   4.765 127.243  0.00  0.00    +0.000 HD
BRANCH   8  16
ATOM     16  C   UNL     1      -4.373   2.065 126.325  0.00  0.00    +0.000 C 
BRANCH  16  17
ATOM     17  O   UNL     1      -4.585   1.109 127.339  0.00  0.00    +0.000 OA
ATOM     18  H   UNL     1      -5.093   0.388 126.935  0.00  0.00    +0.000 HD
ENDBRANCH  16  17
ENDBRANCH   8  16
ENDBRANCH   2   9
ENDBRANCH   1   5
BRANCH   1  19
ATOM     19  N   UNL     1      -8.517   4.761 130.922  0.00  0.00    +0.000 N 
ATOM     20  C   UNL     1      -9.801   5.000 130.427  0.00  0.00    +0.000 C 
ATOM     21  O   UNL     1     -10.480   4.138 129.887  0.00  0.00    +0.000 OA
ATOM     22  N   UNL     1     -10.256   6.293 130.603  0.00  0.00    +0.000 N 
ATOM     23  H   UNL     1      -7.953   5.516 131.267  0.00  0.00    +0.000 HD
ATOM     24  H   UNL     1      -9.563   6.990 130.826  0.00  0.00    +0.000 HD
BRANCH  22  25
ATOM     25  C   UNL     1     -11.490   6.807 129.985  0.00  0.00    +0.000 C 
ATOM     26  N   UNL     1     -11.474   7.827 128.939  0.00  0.00    +0.000 N 
ATOM     27  C   UNL     1     -12.513   8.731 129.140  0.00  0.00    +0.000 C 
ATOM     28  O   UNL     1     -12.955   9.541 128.337  0.00  0.00    +0.000 OA
ATOM     29  N   UNL     1     -13.054   8.527 130.365  0.00  0.00    +0.000 N 
ATOM     30  C   UNL     1     -12.551   7.403 130.945  0.00  0.00    +0.000 C 
ATOM     31  O   UNL     1     -12.941   6.919 131.997  0.00  0.00    +0.000 OA
ATOM     32  H   UNL     1     -13.788   9.100 130.746  0.00  0.00    +0.000 HD
BRANCH  26  33
ATOM     33  C   UNL     1     -10.845   7.602 127.660  0.00  0.00    +0.000 C 
BRANCH  33  34
ATOM     34  O   UNL     1      -9.889   6.560 127.678  0.00  0.00    +0.000 OA
ATOM     35  H   UNL     1     -10.326   5.753 128.012  0.00  0.00    +0.000 HD
ENDBRANCH  33  34
ENDBRANCH  26  33
ENDBRANCH  22  25
ENDBRANCH   1  19
TORSDOF 8
ENDMDL
MODEL 7
REMARK VINA RESULT:      -6.9      2.944      3.576
REMARK  Name = Imidurea
REMARK  8 active torsions:
REMARK  status: ('A' for Active; 'I' for Inactive)
REMARK    1  A    between atoms: O_1  and  C_2
REMARK    2  A    between atoms: C_2  and  N_3
REMARK    3  A    between atoms: C_4  and  N_5
REMARK    4  A    between atoms: N_8  and  C_9
REMARK    5  A    between atoms: C_9  and  N_10
REMARK    6  A    between atoms: N_13  and  C_14
REMARK    7  A    between atoms: N_15  and  C_16
REMARK    8  A    between atoms: C_16  and  O_17
REMARK                            x       y       z     vdW  Elec       q    Type
REMARK                         _______ _______ _______ _____ _____    ______ ____
ROOT
ATOM      1  C   UNL     1      -8.447   4.584 130.783  0.00  0.00    +0.000 C 
ENDROOT
BRANCH   1   5
ATOM      2  N   UNL     1      -6.720   4.168 127.529  0.00  0.00    +0.000 N 
ATOM      3  C   UNL     1      -7.688   4.021 128.503  0.00  0.00    +0.000 C 
ATOM      4  O   UNL     1      -8.590   3.196 128.401  0.00  0.00    +0.000 OA
ATOM      5  N   UNL     1      -7.540   4.792 129.642  0.00  0.00    +0.000 N 
ATOM      6  H   UNL     1      -6.155   5.005 127.513  0.00  0.00    +0.000 HD
ATOM      7  H   UNL     1      -6.859   5.530 129.667  0.00  0.00    +0.000 HD
BRANCH   2   9
ATOM      8  N   UNL     1      -5.555   3.408 125.488  0.00  0.00    +0.000 N 
ATOM      9  C   UNL     1      -6.781   3.403 126.267  0.00  0.00    +0.000 C 
ATOM     10  C   UNL     1      -7.728   4.014 125.186  0.00  0.00    +0.000 C 
ATOM     11  O   UNL     1      -8.929   4.217 125.298  0.00  0.00    +0.000 OA
ATOM     12  N   UNL     1      -6.994   4.363 124.096  0.00  0.00    +0.000 N 
ATOM     13  C   UNL     1      -5.693   4.039 124.272  0.00  0.00    +0.000 C 
ATOM     14  O   UNL     1      -4.834   4.301 123.437  0.00  0.00    +0.000 OA
ATOM     15  H   UNL     1      -7.331   4.807 123.258  0.00  0.00    +0.000 HD
BRANCH   8  16
ATOM     16  C   UNL     1      -4.320   2.916 126.025  0.00  0.00    +0.000 C 
BRANCH  16  17
ATOM     17  O   UNL     1      -3.307   3.889 125.893  0.00  0.00    +0.000 OA
ATOM     18  H   UNL     1      -2.938   4.022 126.780  0.00  0.00    +0.000 HD
ENDBRANCH  16  17
ENDBRANCH   8  16
ENDBRANCH   2   9
ENDBRANCH   1   5
BRANCH   1  19
ATOM     19  N   UNL     1      -9.882   4.565 130.482  0.00  0.00    +0.000 N 
ATOM     20  C   UNL     1     -10.559   5.746 130.172  0.00  0.00    +0.000 C 
ATOM     21  O   UNL     1     -10.017   6.842 130.157  0.00  0.00    +0.000 OA
ATOM     22  N   UNL     1     -11.898   5.582 129.871  0.00  0.00    +0.000 N 
ATOM     23  H   UNL     1     -10.382   3.700 130.582  0.00  0.00    +0.000 HD
ATOM     24  H   UNL     1     -12.318   4.707 130.140  0.00  0.00    +0.000 HD
BRANCH  22  25
ATOM     25  C   UNL     1     -12.834   6.708 129.712  0.00  0.00    +0.000 C 
ATOM     26  N   UNL     1     -12.757   7.637 128.588  0.00  0.00    +0.000 N 
ATOM     27  C   UNL     1     -13.002   8.935 129.025  0.00  0.00    +0.000 C 
ATOM     28  O   UNL     1     -13.271   9.909 128.336  0.00  0.00    +0.000 OA
ATOM     29  N   UNL     1     -12.991   8.961 130.379  0.00  0.00    +0.000 N 
ATOM     30  C   UNL     1     -12.928   7.704 130.896  0.00  0.00    +0.000 C 
ATOM     31  O   UNL     1     -13.017   7.425 132.083  0.00  0.00    +0.000 OA
ATOM     32  H   UNL     1     -13.096   9.807 130.915  0.00  0.00    +0.000 HD
BRANCH  26  33
ATOM     33  C   UNL     1     -12.939   7.204 127.224  0.00  0.00    +0.000 C 
BRANCH  33  34
ATOM     34  O   UNL     1     -11.825   6.504 126.701  0.00  0.00    +0.000 OA
ATOM     35  H   UNL     1     -11.287   6.188 127.452  0.00  0.00    +0.000 HD
ENDBRANCH  33  34
ENDBRANCH  26  33
ENDBRANCH  22  25
ENDBRANCH   1  19
TORSDOF 8
ENDMDL
MODEL 8
REMARK VINA RESULT:      -6.8      1.777      8.368
REMARK  Name = Imidurea
REMARK  8 active torsions:
REMARK  status: ('A' for Active; 'I' for Inactive)
REMARK    1  A    between atoms: O_1  and  C_2
REMARK    2  A    between atoms: C_2  and  N_3
REMARK    3  A    between atoms: C_4  and  N_5
REMARK    4  A    between atoms: N_8  and  C_9
REMARK    5  A    between atoms: C_9  and  N_10
REMARK    6  A    between atoms: N_13  and  C_14
REMARK    7  A    between atoms: N_15  and  C_16
REMARK    8  A    between atoms: C_16  and  O_17
REMARK                            x       y       z     vdW  Elec       q    Type
REMARK                         _______ _______ _______ _____ _____    ______ ____
ROOT
ATOM      1  C   UNL     1      -6.423   2.179 128.478  0.00  0.00    +0.000 C 
ENDROOT
BRANCH   1   5
ATOM      2  N   UNL     1      -9.041   4.591 129.512  0.00  0.00    +0.000 N 
ATOM      3  C   UNL     1      -7.851   4.126 128.987  0.00  0.00    +0.000 C 
ATOM      4  O   UNL     1      -6.932   4.883 128.695  0.00  0.00    +0.000 OA
ATOM      5  N   UNL     1      -7.715   2.753 128.889  0.00  0.00    +0.000 N 
ATOM      6  H   UNL     1      -9.855   3.994 129.503  0.00  0.00    +0.000 HD
ATOM      7  H   UNL     1      -8.509   2.155 129.037  0.00  0.00    +0.000 HD
BRANCH   2   9
ATOM      8  N   UNL     1     -10.108   6.404 130.806  0.00  0.00    +0.000 N 
ATOM      9  C   UNL     1      -9.302   6.038 129.655  0.00  0.00    +0.000 C 
ATOM     10  C   UNL     1     -10.220   6.642 128.546  0.00  0.00    +0.000 C 
ATOM     11  O   UNL     1     -10.003   6.646 127.342  0.00  0.00    +0.000 OA
ATOM     12  N   UNL     1     -11.358   7.115 129.118  0.00  0.00    +0.000 N 
ATOM     13  C   UNL     1     -11.322   6.953 130.459  0.00  0.00    +0.000 C 
ATOM     14  O   UNL     1     -12.261   7.266 131.183  0.00  0.00    +0.000 OA
ATOM     15  H   UNL     1     -12.143   7.532 128.645  0.00  0.00    +0.000 HD
BRANCH   8  16
ATOM     16  C   UNL     1      -9.700   6.085 132.144  0.00  0.00    +0.000 C 
BRANCH  16  17
ATOM     17  O   UNL     1     -10.803   5.629 132.896  0.00  0.00    +0.000 OA
ATOM     18  H   UNL     1     -11.117   6.389 133.409  0.00  0.00    +0.000 HD
ENDBRANCH  16  17
ENDBRANCH   8  16
ENDBRANCH   2   9
ENDBRANCH   1   5
BRANCH   1  19
ATOM     19  N   UNL     1      -6.125   2.199 127.043  0.00  0.00    +0.000 N 
ATOM     20  C   UNL     1      -6.980   1.577 126.131  0.00  0.00    +0.000 C 
ATOM     21  O   UNL     1      -7.988   0.971 126.467  0.00  0.00    +0.000 OA
ATOM     22  N   UNL     1      -6.604   1.705 124.807  0.00  0.00    +0.000 N 
ATOM     23  H   UNL     1      -5.256   2.599 126.739  0.00  0.00    +0.000 HD
ATOM     24  H   UNL     1      -5.655   1.996 124.633  0.00  0.00    +0.000 HD
BRANCH  22  25
ATOM     25  C   UNL     1      -7.247   0.964 123.709  0.00  0.00    +0.000 C 
ATOM     26  N   UNL     1      -8.665   1.110 123.393  0.00  0.00    +0.000 N 
ATOM     27  C   UNL     1      -9.212  -0.129 123.073  0.00  0.00    +0.000 C 
ATOM     28  O   UNL     1     -10.280  -0.344 122.516  0.00  0.00    +0.000 OA
ATOM     29  N   UNL     1      -8.329  -1.104 123.391  0.00  0.00    +0.000 N 
ATOM     30  C   UNL     1      -7.125  -0.581 123.749  0.00  0.00    +0.000 C 
ATOM     31  O   UNL     1      -6.115  -1.230 123.977  0.00  0.00    +0.000 OA
ATOM     32  H   UNL     1      -8.532  -2.086 123.293  0.00  0.00    +0.000 HD
BRANCH  26  33
ATOM     33  C   UNL     1      -9.228   2.368 122.965  0.00  0.00    +0.000 C 
BRANCH  33  34
ATOM     34  O   UNL     1      -8.424   3.486 123.292  0.00  0.00    +0.000 OA
ATOM     35  H   UNL     1      -7.742   3.192 123.927  0.00  0.00    +0.000 HD
ENDBRANCH  33  34
ENDBRANCH  26  33
ENDBRANCH  22  25
ENDBRANCH   1  19
TORSDOF 8
ENDMDL
MODEL 9
REMARK VINA RESULT:      -6.7      2.047      2.340
REMARK  Name = Imidurea
REMARK  8 active torsions:
REMARK  status: ('A' for Active; 'I' for Inactive)
REMARK    1  A    between atoms: O_1  and  C_2
REMARK    2  A    between atoms: C_2  and  N_3
REMARK    3  A    between atoms: C_4  and  N_5
REMARK    4  A    between atoms: N_8  and  C_9
REMARK    5  A    between atoms: C_9  and  N_10
REMARK    6  A    between atoms: N_13  and  C_14
REMARK    7  A    between atoms: N_15  and  C_16
REMARK    8  A    between atoms: C_16  and  O_17
REMARK                            x       y       z     vdW  Elec       q    Type
REMARK                         _______ _______ _______ _____ _____    ______ ____
ROOT
ATOM      1  C   UNL     1      -7.959   4.987 129.416  0.00  0.00    +0.000 C 
ENDROOT
BRANCH   1   5
ATOM      2  N   UNL     1      -7.369   3.057 126.307  0.00  0.00    +0.000 N 
ATOM      3  C   UNL     1      -7.824   4.068 127.129  0.00  0.00    +0.000 C 
ATOM      4  O   UNL     1      -8.624   4.911 126.737  0.00  0.00    +0.000 OA
ATOM      5  N   UNL     1      -7.400   4.031 128.445  0.00  0.00    +0.000 N 
ATOM      6  H   UNL     1      -6.539   2.543 126.564  0.00  0.00    +0.000 HD
ATOM      7  H   UNL     1      -6.672   3.397 128.723  0.00  0.00    +0.000 HD
BRANCH   2   9
ATOM      8  N   UNL     1      -8.394   1.768 124.466  0.00  0.00    +0.000 N 
ATOM      9  C   UNL     1      -7.748   3.000 124.879  0.00  0.00    +0.000 C 
ATOM     10  C   UNL     1      -6.540   2.955 123.891  0.00  0.00    +0.000 C 
ATOM     11  O   UNL     1      -5.657   3.793 123.780  0.00  0.00    +0.000 OA
ATOM     12  N   UNL     1      -6.573   1.785 123.201  0.00  0.00    +0.000 N 
ATOM     13  C   UNL     1      -7.653   1.052 123.554  0.00  0.00    +0.000 C 
ATOM     14  O   UNL     1      -7.866  -0.064 123.093  0.00  0.00    +0.000 OA
ATOM     15  H   UNL     1      -5.905   1.468 122.517  0.00  0.00    +0.000 HD
BRANCH   8  16
ATOM     16  C   UNL     1      -9.614   1.316 125.072  0.00  0.00    +0.000 C 
BRANCH  16  17
ATOM     17  O   UNL     1      -9.603  -0.088 125.205  0.00  0.00    +0.000 OA
ATOM     18  H   UNL     1      -8.903  -0.298 125.842  0.00  0.00    +0.000 HD
ENDBRANCH  16  17
ENDBRANCH   8  16
ENDBRANCH   2   9
ENDBRANCH   1   5
BRANCH   1  19
ATOM     19  N   UNL     1      -9.393   4.868 129.698  0.00  0.00    +0.000 N 
ATOM     20  C   UNL     1     -10.262   5.924 129.418  0.00  0.00    +0.000 C 
ATOM     21  O   UNL     1      -9.887   6.994 128.958  0.00  0.00    +0.000 OA
ATOM     22  N   UNL     1     -11.592   5.667 129.695  0.00  0.00    +0.000 N 
ATOM     23  H   UNL     1      -9.723   4.045 130.169  0.00  0.00    +0.000 HD
ATOM     24  H   UNL     1     -11.785   4.877 130.290  0.00  0.00    +0.000 HD
BRANCH  22  25
ATOM     25  C   UNL     1     -12.639   6.702 129.663  0.00  0.00    +0.000 C 
ATOM     26  N   UNL     1     -12.739   7.680 128.583  0.00  0.00    +0.000 N 
ATOM     27  C   UNL     1     -13.069   8.929 129.100  0.00  0.00    +0.000 C 
ATOM     28  O   UNL     1     -13.482   9.900 128.481  0.00  0.00    +0.000 OA
ATOM     29  N   UNL     1     -12.951   8.901 130.448  0.00  0.00    +0.000 N 
ATOM     30  C   UNL     1     -12.730   7.636 130.898  0.00  0.00    +0.000 C 
ATOM     31  O   UNL     1     -12.697   7.302 132.073  0.00  0.00    +0.000 OA
ATOM     32  H   UNL     1     -13.091   9.710 131.031  0.00  0.00    +0.000 HD
BRANCH  26  33
ATOM     33  C   UNL     1     -12.989   7.288 127.217  0.00  0.00    +0.000 C 
BRANCH  33  34
ATOM     34  O   UNL     1     -11.966   6.480 126.666  0.00  0.00    +0.000 OA
ATOM     35  H   UNL     1     -12.050   6.506 125.693  0.00  0.00    +0.000 HD
ENDBRANCH  33  34
ENDBRANCH  26  33
ENDBRANCH  22  25
ENDBRANCH   1  19
TORSDOF 8
ENDMDL
