MODEL 1
REMARK VINA RESULT:      -7.1      0.000      0.000
REMARK  Name = Imipramine
REMARK  6 active torsions:
REMARK  status: ('A' for Active; 'I' for Inactive)
REMARK    1  A    between atoms: C_1  and  N_2
REMARK    2  A    between atoms: N_2  and  C_3
REMARK    3  A    between atoms: N_2  and  C_4
REMARK    4  A    between atoms: C_4  and  C_5
REMARK    5  A    between atoms: C_5  and  C_6
REMARK    6  A    between atoms: C_6  and  N_7
REMARK                            x       y       z     vdW  Elec       q    Type
REMARK                         _______ _______ _______ _____ _____    ______ ____
ROOT
ATOM      1  N   UNL     1      -7.442  -1.093 127.043  0.00  0.00    +0.000 N 
ATOM      2  C   UNL     1      -7.448  -1.575 128.361  0.00  0.00    +0.000 A 
ATOM      3  C   UNL     1      -6.820  -0.806 129.363  0.00  0.00    +0.000 A 
ATOM      4  C   UNL     1      -6.765  -1.238 130.685  0.00  0.00    +0.000 A 
ATOM      5  C   UNL     1      -7.313  -2.464 131.026  0.00  0.00    +0.000 A 
ATOM      6  C   UNL     1      -7.934  -3.245 130.051  0.00  0.00    +0.000 A 
ATOM      7  C   UNL     1      -8.025  -2.813 128.711  0.00  0.00    +0.000 A 
ATOM      8  C   UNL     1      -8.761  -3.739 127.755  0.00  0.00    +0.000 C 
ATOM      9  C   UNL     1      -9.061  -3.265 126.328  0.00  0.00    +0.000 C 
ATOM     10  C   UNL     1      -7.787  -2.989 125.576  0.00  0.00    +0.000 A 
ATOM     11  C   UNL     1      -7.319  -3.851 124.575  0.00  0.00    +0.000 A 
ATOM     12  C   UNL     1      -6.083  -3.611 123.975  0.00  0.00    +0.000 A 
ATOM     13  C   UNL     1      -5.317  -2.513 124.360  0.00  0.00    +0.000 A 
ATOM     14  C   UNL     1      -5.792  -1.640 125.340  0.00  0.00    +0.000 A 
ATOM     15  C   UNL     1      -7.025  -1.878 125.957  0.00  0.00    +0.000 A 
ENDROOT
BRANCH   1  16
ATOM     16  C   UNL     1      -7.929   0.265 126.738  0.00  0.00    +0.000 C 
BRANCH  16  17
ATOM     17  C   UNL     1      -9.193   0.225 125.870  0.00  0.00    +0.000 C 
BRANCH  17  18
ATOM     18  C   UNL     1      -8.957   0.684 124.436  0.00  0.00    +0.000 C 
BRANCH  18  20
ATOM     19  C   UNL     1     -10.341   0.826 122.470  0.00  0.00    +0.000 C 
ATOM     20  N   UNL     1      -9.796  -0.073 123.487  0.00  0.00    +0.000 NA
ATOM     21  C   UNL     1      -9.054  -1.158 122.838  0.00  0.00    +0.000 C 
ENDBRANCH  18  20
ENDBRANCH  17  18
ENDBRANCH  16  17
ENDBRANCH   1  16
TORSDOF 4
ENDMDL
MODEL 2
REMARK VINA RESULT:      -6.7      1.863      2.348
REMARK  Name = Imipramine
REMARK  6 active torsions:
REMARK  status: ('A' for Active; 'I' for Inactive)
REMARK    1  A    between atoms: C_1  and  N_2
REMARK    2  A    between atoms: N_2  and  C_3
REMARK    3  A    between atoms: N_2  and  C_4
REMARK    4  A    between atoms: C_4  and  C_5
REMARK    5  A    between atoms: C_5  and  C_6
REMARK    6  A    between atoms: C_6  and  N_7
REMARK                            x       y       z     vdW  Elec       q    Type
REMARK                         _______ _______ _______ _____ _____    ______ ____
ROOT
ATOM      1  N   UNL     1      -5.823  -1.806 127.565  0.00  0.00    +0.000 N 
ATOM      2  C   UNL     1      -5.512  -2.587 128.688  0.00  0.00    +0.000 A 
ATOM      3  C   UNL     1      -4.192  -2.559 129.185  0.00  0.00    +0.000 A 
ATOM      4  C   UNL     1      -3.808  -3.330 130.278  0.00  0.00    +0.000 A 
ATOM      5  C   UNL     1      -4.732  -4.168 130.880  0.00  0.00    +0.000 A 
ATOM      6  C   UNL     1      -6.042  -4.217 130.404  0.00  0.00    +0.000 A 
ATOM      7  C   UNL     1      -6.458  -3.423 129.315  0.00  0.00    +0.000 A 
ATOM      8  C   UNL     1      -7.923  -3.541 128.919  0.00  0.00    +0.000 C 
ATOM      9  C   UNL     1      -8.498  -2.585 127.867  0.00  0.00    +0.000 C 
ATOM     10  C   UNL     1      -7.802  -2.760 126.545  0.00  0.00    +0.000 A 
ATOM     11  C   UNL     1      -8.422  -3.402 125.464  0.00  0.00    +0.000 A 
ATOM     12  C   UNL     1      -7.704  -3.634 124.291  0.00  0.00    +0.000 A 
ATOM     13  C   UNL     1      -6.377  -3.221 124.186  0.00  0.00    +0.000 A 
ATOM     14  C   UNL     1      -5.766  -2.561 125.253  0.00  0.00    +0.000 A 
ATOM     15  C   UNL     1      -6.472  -2.334 126.438  0.00  0.00    +0.000 A 
ENDROOT
BRANCH   1  16
ATOM     16  C   UNL     1      -5.519  -0.364 127.546  0.00  0.00    +0.000 C 
BRANCH  16  17
ATOM     17  C   UNL     1      -6.770   0.469 127.239  0.00  0.00    +0.000 C 
BRANCH  17  18
ATOM     18  C   UNL     1      -6.715   1.168 125.886  0.00  0.00    +0.000 C 
BRANCH  18  20
ATOM     19  C   UNL     1      -7.981   0.235 124.062  0.00  0.00    +0.000 C 
ATOM     20  N   UNL     1      -8.029   1.136 125.214  0.00  0.00    +0.000 NA
ATOM     21  C   UNL     1      -9.104   0.720 126.120  0.00  0.00    +0.000 C 
ENDBRANCH  18  20
ENDBRANCH  17  18
ENDBRANCH  16  17
ENDBRANCH   1  16
TORSDOF 4
ENDMDL
MODEL 3
REMARK VINA RESULT:      -6.6      1.583      4.644
REMARK  Name = Imipramine
REMARK  6 active torsions:
REMARK  status: ('A' for Active; 'I' for Inactive)
REMARK    1  A    between atoms: C_1  and  N_2
REMARK    2  A    between atoms: N_2  and  C_3
REMARK    3  A    between atoms: N_2  and  C_4
REMARK    4  A    between atoms: C_4  and  C_5
REMARK    5  A    between atoms: C_5  and  C_6
REMARK    6  A    between atoms: C_6  and  N_7
REMARK                            x       y       z     vdW  Elec       q    Type
REMARK                         _______ _______ _______ _____ _____    ______ ____
ROOT
ATOM      1  N   UNL     1      -8.333  -1.415 125.848  0.00  0.00    +0.000 N 
ATOM      2  C   UNL     1      -7.590  -1.652 124.681  0.00  0.00    +0.000 A 
ATOM      3  C   UNL     1      -8.284  -1.932 123.485  0.00  0.00    +0.000 A 
ATOM      4  C   UNL     1      -7.610  -2.204 122.298  0.00  0.00    +0.000 A 
ATOM      5  C   UNL     1      -6.225  -2.228 122.290  0.00  0.00    +0.000 A 
ATOM      6  C   UNL     1      -5.517  -1.959 123.462  0.00  0.00    +0.000 A 
ATOM      7  C   UNL     1      -6.181  -1.655 124.668  0.00  0.00    +0.000 A 
ATOM      8  C   UNL     1      -5.292  -1.343 125.863  0.00  0.00    +0.000 C 
ATOM      9  C   UNL     1      -5.928  -0.829 127.161  0.00  0.00    +0.000 C 
ATOM     10  C   UNL     1      -6.876  -1.848 127.734  0.00  0.00    +0.000 A 
ATOM     11  C   UNL     1      -6.551  -2.601 128.870  0.00  0.00    +0.000 A 
ATOM     12  C   UNL     1      -7.415  -3.605 129.306  0.00  0.00    +0.000 A 
ATOM     13  C   UNL     1      -8.604  -3.854 128.624  0.00  0.00    +0.000 A 
ATOM     14  C   UNL     1      -8.940  -3.089 127.506  0.00  0.00    +0.000 A 
ATOM     15  C   UNL     1      -8.075  -2.088 127.053  0.00  0.00    +0.000 A 
ENDROOT
BRANCH   1  16
ATOM     16  C   UNL     1      -9.399  -0.397 125.866  0.00  0.00    +0.000 C 
BRANCH  16  17
ATOM     17  C   UNL     1      -8.820   1.021 125.788  0.00  0.00    +0.000 C 
BRANCH  17  18
ATOM     18  C   UNL     1      -9.324   1.815 124.588  0.00  0.00    +0.000 C 
BRANCH  18  20
ATOM     19  C   UNL     1      -8.684   2.783 122.478  0.00  0.00    +0.000 C 
ATOM     20  N   UNL     1      -8.368   1.751 123.465  0.00  0.00    +0.000 NA
ATOM     21  C   UNL     1      -6.980   1.905 123.911  0.00  0.00    +0.000 C 
ENDBRANCH  18  20
ENDBRANCH  17  18
ENDBRANCH  16  17
ENDBRANCH   1  16
TORSDOF 4
ENDMDL
MODEL 4
REMARK VINA RESULT:      -6.5      4.054      7.359
REMARK  Name = Imipramine
REMARK  6 active torsions:
REMARK  status: ('A' for Active; 'I' for Inactive)
REMARK    1  A    between atoms: C_1  and  N_2
REMARK    2  A    between atoms: N_2  and  C_3
REMARK    3  A    between atoms: N_2  and  C_4
REMARK    4  A    between atoms: C_4  and  C_5
REMARK    5  A    between atoms: C_5  and  C_6
REMARK    6  A    between atoms: C_6  and  N_7
REMARK                            x       y       z     vdW  Elec       q    Type
REMARK                         _______ _______ _______ _____ _____    ______ ____
ROOT
ATOM      1  N   UNL     1      -7.781   2.736 122.714  0.00  0.00    +0.000 N 
ATOM      2  C   UNL     1      -7.373   3.508 123.812  0.00  0.00    +0.000 A 
ATOM      3  C   UNL     1      -8.191   3.531 124.961  0.00  0.00    +0.000 A 
ATOM      4  C   UNL     1      -7.861   4.297 126.075  0.00  0.00    +0.000 A 
ATOM      5  C   UNL     1      -6.718   5.078 126.052  0.00  0.00    +0.000 A 
ATOM      6  C   UNL     1      -5.895   5.075 124.925  0.00  0.00    +0.000 A 
ATOM      7  C   UNL     1      -6.197   4.285 123.797  0.00  0.00    +0.000 A 
ATOM      8  C   UNL     1      -5.198   4.343 122.650  0.00  0.00    +0.000 C 
ATOM      9  C   UNL     1      -5.357   3.382 121.465  0.00  0.00    +0.000 C 
ATOM     10  C   UNL     1      -6.662   3.618 120.754  0.00  0.00    +0.000 A 
ATOM     11  C   UNL     1      -6.719   4.251 119.506  0.00  0.00    +0.000 A 
ATOM     12  C   UNL     1      -7.956   4.541 118.931  0.00  0.00    +0.000 A 
ATOM     13  C   UNL     1      -9.134   4.193 119.587  0.00  0.00    +0.000 A 
ATOM     14  C   UNL     1      -9.079   3.541 120.820  0.00  0.00    +0.000 A 
ATOM     15  C   UNL     1      -7.844   3.256 121.411  0.00  0.00    +0.000 A 
ENDROOT
BRANCH   1  16
ATOM     16  C   UNL     1      -8.116   1.310 122.880  0.00  0.00    +0.000 C 
BRANCH  16  17
ATOM     17  C   UNL     1      -6.975   0.542 123.559  0.00  0.00    +0.000 C 
BRANCH  17  18
ATOM     18  C   UNL     1      -6.809  -0.880 123.035  0.00  0.00    +0.000 C 
BRANCH  18  20
ATOM     19  C   UNL     1      -7.185  -1.191 125.393  0.00  0.00    +0.000 C 
ATOM     20  N   UNL     1      -6.890  -1.866 124.130  0.00  0.00    +0.000 NA
ATOM     21  C   UNL     1      -7.904  -2.894 123.873  0.00  0.00    +0.000 C 
ENDBRANCH  18  20
ENDBRANCH  17  18
ENDBRANCH  16  17
ENDBRANCH   1  16
TORSDOF 4
ENDMDL
MODEL 5
REMARK VINA RESULT:      -6.3      2.385      3.234
REMARK  Name = Imipramine
REMARK  6 active torsions:
REMARK  status: ('A' for Active; 'I' for Inactive)
REMARK    1  A    between atoms: C_1  and  N_2
REMARK    2  A    between atoms: N_2  and  C_3
REMARK    3  A    between atoms: N_2  and  C_4
REMARK    4  A    between atoms: C_4  and  C_5
REMARK    5  A    between atoms: C_5  and  C_6
REMARK    6  A    between atoms: C_6  and  N_7
REMARK                            x       y       z     vdW  Elec       q    Type
REMARK                         _______ _______ _______ _____ _____    ______ ____
ROOT
ATOM      1  N   UNL     1      -6.323  -1.477 127.605  0.00  0.00    +0.000 N 
ATOM      2  C   UNL     1      -5.984  -2.201 128.758  0.00  0.00    +0.000 A 
ATOM      3  C   UNL     1      -4.794  -1.869 129.439  0.00  0.00    +0.000 A 
ATOM      4  C   UNL     1      -4.383  -2.565 130.572  0.00  0.00    +0.000 A 
ATOM      5  C   UNL     1      -5.143  -3.628 131.031  0.00  0.00    +0.000 A 
ATOM      6  C   UNL     1      -6.321  -3.980 130.372  0.00  0.00    +0.000 A 
ATOM      7  C   UNL     1      -6.768  -3.270 129.238  0.00  0.00    +0.000 A 
ATOM      8  C   UNL     1      -8.088  -3.730 128.636  0.00  0.00    +0.000 C 
ATOM      9  C   UNL     1      -8.733  -2.903 127.517  0.00  0.00    +0.000 C 
ATOM     10  C   UNL     1      -7.840  -2.848 126.307  0.00  0.00    +0.000 A 
ATOM     11  C   UNL     1      -8.125  -3.578 125.146  0.00  0.00    +0.000 A 
ATOM     12  C   UNL     1      -7.217  -3.577 124.086  0.00  0.00    +0.000 A 
ATOM     13  C   UNL     1      -6.035  -2.847 124.175  0.00  0.00    +0.000 A 
ATOM     14  C   UNL     1      -5.761  -2.100 125.322  0.00  0.00    +0.000 A 
ATOM     15  C   UNL     1      -6.658  -2.103 126.395  0.00  0.00    +0.000 A 
ENDROOT
BRANCH   1  16
ATOM     16  C   UNL     1      -6.389  -0.004 127.637  0.00  0.00    +0.000 C 
BRANCH  16  17
ATOM     17  C   UNL     1      -7.643   0.485 128.374  0.00  0.00    +0.000 C 
BRANCH  17  18
ATOM     18  C   UNL     1      -8.277   1.715 127.737  0.00  0.00    +0.000 C 
BRANCH  18  20
ATOM     19  C   UNL     1      -8.714   2.013 130.086  0.00  0.00    +0.000 C 
ATOM     20  N   UNL     1      -8.841   2.617 128.760  0.00  0.00    +0.000 NA
ATOM     21  C   UNL     1      -8.193   3.932 128.755  0.00  0.00    +0.000 C 
ENDBRANCH  18  20
ENDBRANCH  17  18
ENDBRANCH  16  17
ENDBRANCH   1  16
TORSDOF 4
ENDMDL
MODEL 6
REMARK VINA RESULT:      -6.3      2.576      5.620
REMARK  Name = Imipramine
REMARK  6 active torsions:
REMARK  status: ('A' for Active; 'I' for Inactive)
REMARK    1  A    between atoms: C_1  and  N_2
REMARK    2  A    between atoms: N_2  and  C_3
REMARK    3  A    between atoms: N_2  and  C_4
REMARK    4  A    between atoms: C_4  and  C_5
REMARK    5  A    between atoms: C_5  and  C_6
REMARK    6  A    between atoms: C_6  and  N_7
REMARK                            x       y       z     vdW  Elec       q    Type
REMARK                         _______ _______ _______ _____ _____    ______ ____
ROOT
ATOM      1  N   UNL     1      -5.919   0.270 126.170  0.00  0.00    +0.000 N 
ATOM      2  C   UNL     1      -5.978  -0.634 125.099  0.00  0.00    +0.000 A 
ATOM      3  C   UNL     1      -5.262  -1.846 125.199  0.00  0.00    +0.000 A 
ATOM      4  C   UNL     1      -5.255  -2.774 124.162  0.00  0.00    +0.000 A 
ATOM      5  C   UNL     1      -5.943  -2.497 122.993  0.00  0.00    +0.000 A 
ATOM      6  C   UNL     1      -6.655  -1.304 122.869  0.00  0.00    +0.000 A 
ATOM      7  C   UNL     1      -6.697  -0.361 123.917  0.00  0.00    +0.000 A 
ATOM      8  C   UNL     1      -7.540   0.881 123.670  0.00  0.00    +0.000 C 
ATOM      9  C   UNL     1      -7.785   1.866 124.820  0.00  0.00    +0.000 C 
ATOM     10  C   UNL     1      -6.489   2.459 125.303  0.00  0.00    +0.000 A 
ATOM     11  C   UNL     1      -6.129   3.781 125.012  0.00  0.00    +0.000 A 
ATOM     12  C   UNL     1      -4.874   4.258 125.392  0.00  0.00    +0.000 A 
ATOM     13  C   UNL     1      -3.983   3.428 126.069  0.00  0.00    +0.000 A 
ATOM     14  C   UNL     1      -4.349   2.118 126.380  0.00  0.00    +0.000 A 
ATOM     15  C   UNL     1      -5.600   1.626 125.993  0.00  0.00    +0.000 A 
ENDROOT
BRANCH   1  16
ATOM     16  C   UNL     1      -6.243  -0.166 127.541  0.00  0.00    +0.000 C 
BRANCH  16  17
ATOM     17  C   UNL     1      -7.697  -0.641 127.648  0.00  0.00    +0.000 C 
BRANCH  17  18
ATOM     18  C   UNL     1      -7.834  -2.042 128.233  0.00  0.00    +0.000 C 
BRANCH  18  20
ATOM     19  C   UNL     1      -9.035  -4.086 127.806  0.00  0.00    +0.000 C 
ATOM     20  N   UNL     1      -8.244  -3.015 127.201  0.00  0.00    +0.000 NA
ATOM     21  C   UNL     1      -9.012  -2.385 126.122  0.00  0.00    +0.000 C 
ENDBRANCH  18  20
ENDBRANCH  17  18
ENDBRANCH  16  17
ENDBRANCH   1  16
TORSDOF 4
ENDMDL
MODEL 7
REMARK VINA RESULT:      -6.2      1.787      2.526
REMARK  Name = Imipramine
REMARK  6 active torsions:
REMARK  status: ('A' for Active; 'I' for Inactive)
REMARK    1  A    between atoms: C_1  and  N_2
REMARK    2  A    between atoms: N_2  and  C_3
REMARK    3  A    between atoms: N_2  and  C_4
REMARK    4  A    between atoms: C_4  and  C_5
REMARK    5  A    between atoms: C_5  and  C_6
REMARK    6  A    between atoms: C_6  and  N_7
REMARK                            x       y       z     vdW  Elec       q    Type
REMARK                         _______ _______ _______ _____ _____    ______ ____
ROOT
ATOM      1  N   UNL     1      -7.632  -0.962 126.925  0.00  0.00    +0.000 N 
ATOM      2  C   UNL     1      -7.634  -1.486 128.226  0.00  0.00    +0.000 A 
ATOM      3  C   UNL     1      -7.089  -0.706 129.268  0.00  0.00    +0.000 A 
ATOM      4  C   UNL     1      -7.034  -1.176 130.577  0.00  0.00    +0.000 A 
ATOM      5  C   UNL     1      -7.499  -2.449 130.865  0.00  0.00    +0.000 A 
ATOM      6  C   UNL     1      -8.037  -3.241 129.851  0.00  0.00    +0.000 A 
ATOM      7  C   UNL     1      -8.127  -2.773 128.523  0.00  0.00    +0.000 A 
ATOM      8  C   UNL     1      -8.770  -3.719 127.520  0.00  0.00    +0.000 C 
ATOM      9  C   UNL     1      -9.069  -3.221 126.100  0.00  0.00    +0.000 C 
ATOM     10  C   UNL     1      -7.801  -2.829 125.391  0.00  0.00    +0.000 A 
ATOM     11  C   UNL     1      -7.248  -3.622 124.377  0.00  0.00    +0.000 A 
ATOM     12  C   UNL     1      -6.018  -3.273 123.818  0.00  0.00    +0.000 A 
ATOM     13  C   UNL     1      -5.344  -2.136 124.257  0.00  0.00    +0.000 A 
ATOM     14  C   UNL     1      -5.906  -1.332 125.250  0.00  0.00    +0.000 A 
ATOM     15  C   UNL     1      -7.132  -1.679 125.826  0.00  0.00    +0.000 A 
ENDROOT
BRANCH   1  16
ATOM     16  C   UNL     1      -8.210   0.366 126.649  0.00  0.00    +0.000 C 
BRANCH  16  17
ATOM     17  C   UNL     1      -7.139   1.464 126.696  0.00  0.00    +0.000 C 
BRANCH  17  18
ATOM     18  C   UNL     1      -7.625   2.755 127.343  0.00  0.00    +0.000 C 
BRANCH  18  20
ATOM     19  C   UNL     1      -5.806   3.731 126.102  0.00  0.00    +0.000 C 
ATOM     20  N   UNL     1      -7.172   3.938 126.584  0.00  0.00    +0.000 NA
ATOM     21  C   UNL     1      -8.053   4.239 125.452  0.00  0.00    +0.000 C 
ENDBRANCH  18  20
ENDBRANCH  17  18
ENDBRANCH  16  17
ENDBRANCH   1  16
TORSDOF 4
ENDMDL
MODEL 8
REMARK VINA RESULT:      -6.1      2.341      6.299
REMARK  Name = Imipramine
REMARK  6 active torsions:
REMARK  status: ('A' for Active; 'I' for Inactive)
REMARK    1  A    between atoms: C_1  and  N_2
REMARK    2  A    between atoms: N_2  and  C_3
REMARK    3  A    between atoms: N_2  and  C_4
REMARK    4  A    between atoms: C_4  and  C_5
REMARK    5  A    between atoms: C_5  and  C_6
REMARK    6  A    between atoms: C_6  and  N_7
REMARK                            x       y       z     vdW  Elec       q    Type
REMARK                         _______ _______ _______ _____ _____    ______ ____
ROOT
ATOM      1  N   UNL     1      -6.347  -1.757 127.882  0.00  0.00    +0.000 N 
ATOM      2  C   UNL     1      -7.136  -2.318 126.867  0.00  0.00    +0.000 A 
ATOM      3  C   UNL     1      -6.800  -2.048 125.524  0.00  0.00    +0.000 A 
ATOM      4  C   UNL     1      -7.557  -2.549 124.468  0.00  0.00    +0.000 A 
ATOM      5  C   UNL     1      -8.683  -3.310 124.737  0.00  0.00    +0.000 A 
ATOM      6  C   UNL     1      -9.039  -3.586 126.057  0.00  0.00    +0.000 A 
ATOM      7  C   UNL     1      -8.270  -3.110 127.140  0.00  0.00    +0.000 A 
ATOM      8  C   UNL     1      -8.744  -3.515 128.528  0.00  0.00    +0.000 C 
ATOM      9  C   UNL     1      -7.869  -3.192 129.746  0.00  0.00    +0.000 C 
ATOM     10  C   UNL     1      -7.688  -1.706 129.898  0.00  0.00    +0.000 A 
ATOM     11  C   UNL     1      -8.346  -0.982 130.901  0.00  0.00    +0.000 A 
ATOM     12  C   UNL     1      -8.230   0.408 130.943  0.00  0.00    +0.000 A 
ATOM     13  C   UNL     1      -7.456   1.076 129.998  0.00  0.00    +0.000 A 
ATOM     14  C   UNL     1      -6.781   0.354 129.012  0.00  0.00    +0.000 A 
ATOM     15  C   UNL     1      -6.900  -1.038 128.954  0.00  0.00    +0.000 A 
ENDROOT
BRANCH   1  16
ATOM     16  C   UNL     1      -4.885  -1.946 127.888  0.00  0.00    +0.000 C 
BRANCH  16  17
ATOM     17  C   UNL     1      -4.462  -3.012 128.906  0.00  0.00    +0.000 C 
BRANCH  17  18
ATOM     18  C   UNL     1      -3.568  -2.469 130.014  0.00  0.00    +0.000 C 
BRANCH  18  20
ATOM     19  C   UNL     1      -3.771  -3.070 132.338  0.00  0.00    +0.000 C 
ATOM     20  N   UNL     1      -4.330  -2.254 131.260  0.00  0.00    +0.000 NA
ATOM     21  C   UNL     1      -4.343  -0.845 131.665  0.00  0.00    +0.000 C 
ENDBRANCH  18  20
ENDBRANCH  17  18
ENDBRANCH  16  17
ENDBRANCH   1  16
TORSDOF 4
ENDMDL
MODEL 9
REMARK VINA RESULT:      -6.1      2.953      6.130
REMARK  Name = Imipramine
REMARK  6 active torsions:
REMARK  status: ('A' for Active; 'I' for Inactive)
REMARK    1  A    between atoms: C_1  and  N_2
REMARK    2  A    between atoms: N_2  and  C_3
REMARK    3  A    between atoms: N_2  and  C_4
REMARK    4  A    between atoms: C_4  and  C_5
REMARK    5  A    between atoms: C_5  and  C_6
REMARK    6  A    between atoms: C_6  and  N_7
REMARK                            x       y       z     vdW  Elec       q    Type
REMARK                         _______ _______ _______ _____ _____    ______ ____
ROOT
ATOM      1  N   UNL     1      -7.526  -1.443 130.197  0.00  0.00    +0.000 N 
ATOM      2  C   UNL     1      -8.110  -0.193 130.449  0.00  0.00    +0.000 A 
ATOM      3  C   UNL     1      -8.765   0.010 131.682  0.00  0.00    +0.000 A 
ATOM      4  C   UNL     1      -9.390   1.216 131.985  0.00  0.00    +0.000 A 
ATOM      5  C   UNL     1      -9.395   2.236 131.049  0.00  0.00    +0.000 A 
ATOM      6  C   UNL     1      -8.758   2.058 129.820  0.00  0.00    +0.000 A 
ATOM      7  C   UNL     1      -8.097   0.853 129.504  0.00  0.00    +0.000 A 
ATOM      8  C   UNL     1      -7.408   0.801 128.148  0.00  0.00    +0.000 C 
ATOM      9  C   UNL     1      -6.518  -0.399 127.801  0.00  0.00    +0.000 C 
ATOM     10  C   UNL     1      -7.316  -1.675 127.795  0.00  0.00    +0.000 A 
ATOM     11  C   UNL     1      -7.665  -2.322 126.602  0.00  0.00    +0.000 A 
ATOM     12  C   UNL     1      -8.491  -3.445 126.639  0.00  0.00    +0.000 A 
ATOM     13  C   UNL     1      -8.962  -3.931 127.856  0.00  0.00    +0.000 A 
ATOM     14  C   UNL     1      -8.596  -3.302 129.047  0.00  0.00    +0.000 A 
ATOM     15  C   UNL     1      -7.778  -2.168 129.021  0.00  0.00    +0.000 A 
ENDROOT
BRANCH   1  16
ATOM     16  C   UNL     1      -6.571  -2.032 131.153  0.00  0.00    +0.000 C 
BRANCH  16  17
ATOM     17  C   UNL     1      -5.166  -1.440 130.978  0.00  0.00    +0.000 C 
BRANCH  17  18
ATOM     18  C   UNL     1      -4.121  -2.472 130.571  0.00  0.00    +0.000 C 
BRANCH  18  20
ATOM     19  C   UNL     1      -3.077  -1.632 132.572  0.00  0.00    +0.000 C 
ATOM     20  N   UNL     1      -3.221  -2.794 131.695  0.00  0.00    +0.000 NA
ATOM     21  C   UNL     1      -3.697  -3.942 132.473  0.00  0.00    +0.000 C 
ENDBRANCH  18  20
ENDBRANCH  17  18
ENDBRANCH  16  17
ENDBRANCH   1  16
TORSDOF 4
ENDMDL
