MODEL 1
REMARK VINA RESULT:      -6.2      0.000      0.000
REMARK  Name = Imipenem
REMARK  9 active torsions:
REMARK  status: ('A' for Active; 'I' for Inactive)
REMARK    1  A    between atoms: C_4  and  S_5
REMARK    2  A    between atoms: S_5  and  C_6
REMARK    3  A    between atoms: C_6  and  C_7
REMARK    4  A    between atoms: C_7  and  N_8
REMARK    5  A    between atoms: C_11  and  C_20
REMARK    6  A    between atoms: C_15  and  C_17
REMARK    7  A    between atoms: C_17  and  C_18
REMARK    8  A    between atoms: C_17  and  O_19
REMARK    9  A    between atoms: C_20  and  O_21
REMARK                            x       y       z     vdW  Elec       q    Type
REMARK                         _______ _______ _______ _____ _____    ______ ____
ROOT
ATOM      1  C   UNL     1      -7.123  -0.365 124.851  0.00  0.00    +0.000 C 
ATOM      2  C   UNL     1      -6.691   1.014 124.375  0.00  0.00    +0.000 C 
ATOM      3  C   UNL     1      -7.967   1.604 123.781  0.00  0.00    +0.000 C 
ATOM      4  C   UNL     1      -8.984   0.708 123.870  0.00  0.00    +0.000 C 
ATOM      5  N   UNL     1      -8.562  -0.489 124.478  0.00  0.00    +0.000 N 
ATOM      6  C   UNL     1      -8.352  -1.611 123.710  0.00  0.00    +0.000 C 
ATOM      7  O   UNL     1      -9.149  -2.220 123.032  0.00  0.00    +0.000 OA
ATOM      8  C   UNL     1      -6.822  -1.569 123.912  0.00  0.00    +0.000 C 
ENDROOT
BRANCH   8   9
ATOM      9  C   UNL     1      -6.127  -2.823 124.427  0.00  0.00    +0.000 C 
ATOM     10  C   UNL     1      -4.867  -3.116 123.615  0.00  0.00    +0.000 C 
BRANCH   9  11
ATOM     11  O   UNL     1      -7.006  -3.936 124.263  0.00  0.00    +0.000 OA
ATOM     12  H   UNL     1      -7.315  -3.965 123.340  0.00  0.00    +0.000 HD
ENDBRANCH   9  11
ENDBRANCH   8   9
BRANCH   4  13
ATOM     13  C   UNL     1     -10.429   0.827 123.433  0.00  0.00    +0.000 C 
ATOM     14  O   UNL     1     -11.344   1.293 124.087  0.00  0.00    +0.000 OA
BRANCH  13  15
ATOM     15  O   UNL     1     -10.737   0.310 122.228  0.00  0.00    +0.000 OA
ATOM     16  H   UNL     1     -10.256  -0.495 121.976  0.00  0.00    +0.000 HD
ENDBRANCH  13  15
ENDBRANCH   4  13
BRANCH   3  17
ATOM     17  S   UNL     1      -7.792   3.216 123.125  0.00  0.00    +0.000 S 
BRANCH  17  18
ATOM     18  C   UNL     1      -6.255   3.276 122.166  0.00  0.00    +0.000 C 
BRANCH  18  19
ATOM     19  C   UNL     1      -5.192   4.311 122.542  0.00  0.00    +0.000 C 
BRANCH  19  20
ATOM     20  N   UNL     1      -4.855   5.061 121.313  0.00  0.00    +0.000 NA
ATOM     21  C   UNL     1      -5.598   4.821 120.298  0.00  0.00    +0.000 C 
ATOM     22  N   UNL     1      -5.430   5.416 119.096  0.00  0.00    +0.000 N 
ATOM     23  H   UNL     1      -4.680   6.089 118.990  0.00  0.00    +0.000 HD
ATOM     24  H   UNL     1      -6.021   5.225 118.299  0.00  0.00    +0.000 HD
ENDBRANCH  19  20
ENDBRANCH  18  19
ENDBRANCH  17  18
ENDBRANCH   3  17
TORSDOF 8
ENDMDL
MODEL 2
REMARK VINA RESULT:      -6.1      3.000      6.079
REMARK  Name = Imipenem
REMARK  9 active torsions:
REMARK  status: ('A' for Active; 'I' for Inactive)
REMARK    1  A    between atoms: C_4  and  S_5
REMARK    2  A    between atoms: S_5  and  C_6
REMARK    3  A    between atoms: C_6  and  C_7
REMARK    4  A    between atoms: C_7  and  N_8
REMARK    5  A    between atoms: C_11  and  C_20
REMARK    6  A    between atoms: C_15  and  C_17
REMARK    7  A    between atoms: C_17  and  C_18
REMARK    8  A    between atoms: C_17  and  O_19
REMARK    9  A    between atoms: C_20  and  O_21
REMARK                            x       y       z     vdW  Elec       q    Type
REMARK                         _______ _______ _______ _____ _____    ______ ____
ROOT
ATOM      1  C   UNL     1      -6.837   2.243 123.066  0.00  0.00    +0.000 C 
ATOM      2  C   UNL     1      -6.559   0.749 123.148  0.00  0.00    +0.000 C 
ATOM      3  C   UNL     1      -7.947   0.136 123.313  0.00  0.00    +0.000 C 
ATOM      4  C   UNL     1      -8.891   1.112 123.347  0.00  0.00    +0.000 C 
ATOM      5  N   UNL     1      -8.313   2.390 123.222  0.00  0.00    +0.000 N 
ATOM      6  C   UNL     1      -8.199   3.201 124.327  0.00  0.00    +0.000 C 
ATOM      7  O   UNL     1      -9.080   3.653 125.024  0.00  0.00    +0.000 OA
ATOM      8  C   UNL     1      -6.661   3.073 124.370  0.00  0.00    +0.000 C 
ENDROOT
BRANCH   8   9
ATOM      9  C   UNL     1      -5.830   4.349 124.393  0.00  0.00    +0.000 C 
ATOM     10  C   UNL     1      -4.669   4.222 125.378  0.00  0.00    +0.000 C 
BRANCH   9  11
ATOM     11  O   UNL     1      -6.653   5.425 124.844  0.00  0.00    +0.000 OA
ATOM     12  H   UNL     1      -6.314   6.262 124.477  0.00  0.00    +0.000 HD
ENDBRANCH   9  11
ENDBRANCH   8   9
BRANCH   4  13
ATOM     13  C   UNL     1     -10.395   1.009 123.487  0.00  0.00    +0.000 C 
ATOM     14  O   UNL     1     -11.167   0.562 122.658  0.00  0.00    +0.000 OA
BRANCH  13  15
ATOM     15  O   UNL     1     -10.930   1.517 124.613  0.00  0.00    +0.000 OA
ATOM     16  H   UNL     1     -10.305   1.926 125.233  0.00  0.00    +0.000 HD
ENDBRANCH  13  15
ENDBRANCH   4  13
BRANCH   3  17
ATOM     17  S   UNL     1      -7.965  -1.608 123.449  0.00  0.00    +0.000 S 
BRANCH  17  18
ATOM     18  C   UNL     1      -6.957  -2.077 124.881  0.00  0.00    +0.000 C 
BRANCH  18  19
ATOM     19  C   UNL     1      -5.477  -2.405 124.666  0.00  0.00    +0.000 C 
BRANCH  19  20
ATOM     20  N   UNL     1      -5.414  -3.585 123.777  0.00  0.00    +0.000 NA
ATOM     21  C   UNL     1      -4.366  -4.310 123.896  0.00  0.00    +0.000 C 
ATOM     22  N   UNL     1      -4.144  -5.424 123.162  0.00  0.00    +0.000 N 
ATOM     23  H   UNL     1      -4.844  -5.703 122.483  0.00  0.00    +0.000 HD
ATOM     24  H   UNL     1      -3.317  -5.995 123.262  0.00  0.00    +0.000 HD
ENDBRANCH  19  20
ENDBRANCH  18  19
ENDBRANCH  17  18
ENDBRANCH   3  17
TORSDOF 8
ENDMDL
MODEL 3
REMARK VINA RESULT:      -6.1      9.574     11.378
REMARK  Name = Imipenem
REMARK  9 active torsions:
REMARK  status: ('A' for Active; 'I' for Inactive)
REMARK    1  A    between atoms: C_4  and  S_5
REMARK    2  A    between atoms: S_5  and  C_6
REMARK    3  A    between atoms: C_6  and  C_7
REMARK    4  A    between atoms: C_7  and  N_8
REMARK    5  A    between atoms: C_11  and  C_20
REMARK    6  A    between atoms: C_15  and  C_17
REMARK    7  A    between atoms: C_17  and  C_18
REMARK    8  A    between atoms: C_17  and  O_19
REMARK    9  A    between atoms: C_20  and  O_21
REMARK                            x       y       z     vdW  Elec       q    Type
REMARK                         _______ _______ _______ _____ _____    ______ ____
ROOT
ATOM      1  C   UNL     1     -11.604   6.107 130.482  0.00  0.00    +0.000 C 
ATOM      2  C   UNL     1     -11.405   4.605 130.345  0.00  0.00    +0.000 C 
ATOM      3  C   UNL     1      -9.909   4.419 130.577  0.00  0.00    +0.000 C 
ATOM      4  C   UNL     1      -9.314   5.621 130.793  0.00  0.00    +0.000 C 
ATOM      5  N   UNL     1     -10.247   6.673 130.738  0.00  0.00    +0.000 N 
ATOM      6  C   UNL     1     -10.291   7.494 129.635  0.00  0.00    +0.000 C 
ATOM      7  O   UNL     1      -9.425   8.222 129.202  0.00  0.00    +0.000 OA
ATOM      8  C   UNL     1     -11.656   6.942 129.170  0.00  0.00    +0.000 C 
ENDROOT
BRANCH   8   9
ATOM      9  C   UNL     1     -12.783   7.932 128.903  0.00  0.00    +0.000 C 
ATOM     10  C   UNL     1     -13.788   7.353 127.910  0.00  0.00    +0.000 C 
BRANCH   9  11
ATOM     11  O   UNL     1     -12.230   9.107 128.310  0.00  0.00    +0.000 OA
ATOM     12  H   UNL     1     -12.543   9.178 127.390  0.00  0.00    +0.000 HD
ENDBRANCH   9  11
ENDBRANCH   8   9
BRANCH   4  13
ATOM     13  C   UNL     1      -7.864   5.955 131.075  0.00  0.00    +0.000 C 
ATOM     14  O   UNL     1      -7.414   6.382 132.123  0.00  0.00    +0.000 OA
BRANCH  13  15
ATOM     15  O   UNL     1      -7.006   5.822 130.046  0.00  0.00    +0.000 OA
ATOM     16  H   UNL     1      -6.247   6.429 130.046  0.00  0.00    +0.000 HD
ENDBRANCH  13  15
ENDBRANCH   4  13
BRANCH   3  17
ATOM     17  S   UNL     1      -9.352   2.764 130.472  0.00  0.00    +0.000 S 
BRANCH  17  18
ATOM     18  C   UNL     1      -9.383   2.048 132.137  0.00  0.00    +0.000 C 
BRANCH  18  19
ATOM     19  C   UNL     1      -8.062   1.876 132.891  0.00  0.00    +0.000 C 
BRANCH  19  20
ATOM     20  N   UNL     1      -7.749   3.173 133.530  0.00  0.00    +0.000 NA
ATOM     21  C   UNL     1      -8.739   3.772 134.077  0.00  0.00    +0.000 C 
ATOM     22  N   UNL     1      -8.632   4.966 134.704  0.00  0.00    +0.000 N 
ATOM     23  H   UNL     1      -7.722   5.410 134.745  0.00  0.00    +0.000 HD
ATOM     24  H   UNL     1      -9.415   5.433 135.137  0.00  0.00    +0.000 HD
ENDBRANCH  19  20
ENDBRANCH  18  19
ENDBRANCH  17  18
ENDBRANCH   3  17
TORSDOF 8
ENDMDL
MODEL 4
REMARK VINA RESULT:      -5.8      8.182     10.186
REMARK  Name = Imipenem
REMARK  9 active torsions:
REMARK  status: ('A' for Active; 'I' for Inactive)
REMARK    1  A    between atoms: C_4  and  S_5
REMARK    2  A    between atoms: S_5  and  C_6
REMARK    3  A    between atoms: C_6  and  C_7
REMARK    4  A    between atoms: C_7  and  N_8
REMARK    5  A    between atoms: C_11  and  C_20
REMARK    6  A    between atoms: C_15  and  C_17
REMARK    7  A    between atoms: C_17  and  C_18
REMARK    8  A    between atoms: C_17  and  O_19
REMARK    9  A    between atoms: C_20  and  O_21
REMARK                            x       y       z     vdW  Elec       q    Type
REMARK                         _______ _______ _______ _____ _____    ______ ____
ROOT
ATOM      1  C   UNL     1     -11.487   6.081 130.513  0.00  0.00    +0.000 C 
ATOM      2  C   UNL     1     -11.197   4.589 130.451  0.00  0.00    +0.000 C 
ATOM      3  C   UNL     1      -9.714   4.498 130.801  0.00  0.00    +0.000 C 
ATOM      4  C   UNL     1      -9.204   5.739 131.012  0.00  0.00    +0.000 C 
ATOM      5  N   UNL     1     -10.188   6.733 130.845  0.00  0.00    +0.000 N 
ATOM      6  C   UNL     1     -10.192   7.509 129.710  0.00  0.00    +0.000 C 
ATOM      7  O   UNL     1      -9.337   8.270 129.313  0.00  0.00    +0.000 OA
ATOM      8  C   UNL     1     -11.485   6.863 129.168  0.00  0.00    +0.000 C 
ENDROOT
BRANCH   8   9
ATOM      9  C   UNL     1     -12.641   7.776 128.778  0.00  0.00    +0.000 C 
ATOM     10  C   UNL     1     -13.573   7.078 127.790  0.00  0.00    +0.000 C 
BRANCH   9  11
ATOM     11  O   UNL     1     -12.114   8.929 128.122  0.00  0.00    +0.000 OA
ATOM     12  H   UNL     1     -12.654   9.124 127.335  0.00  0.00    +0.000 HD
ENDBRANCH   9  11
ENDBRANCH   8   9
BRANCH   4  13
ATOM     13  C   UNL     1      -7.801   6.166 131.386  0.00  0.00    +0.000 C 
ATOM     14  O   UNL     1      -7.278   6.044 132.480  0.00  0.00    +0.000 OA
BRANCH  13  15
ATOM     15  O   UNL     1      -7.089   6.795 130.433  0.00  0.00    +0.000 OA
ATOM     16  H   UNL     1      -7.009   6.329 129.585  0.00  0.00    +0.000 HD
ENDBRANCH  13  15
ENDBRANCH   4  13
BRANCH   3  17
ATOM     17  S   UNL     1      -9.060   2.875 130.804  0.00  0.00    +0.000 S 
BRANCH  17  18
ATOM     18  C   UNL     1      -7.703   2.806 129.604  0.00  0.00    +0.000 C 
BRANCH  18  19
ATOM     19  C   UNL     1      -7.863   3.534 128.268  0.00  0.00    +0.000 C 
BRANCH  19  20
ATOM     20  N   UNL     1      -6.858   4.618 128.235  0.00  0.00    +0.000 NA
ATOM     21  C   UNL     1      -5.737   4.349 128.792  0.00  0.00    +0.000 C 
ATOM     22  N   UNL     1      -4.708   5.223 128.855  0.00  0.00    +0.000 N 
ATOM     23  H   UNL     1      -4.826   6.140 128.438  0.00  0.00    +0.000 HD
ATOM     24  H   UNL     1      -3.824   5.005 129.293  0.00  0.00    +0.000 HD
ENDBRANCH  19  20
ENDBRANCH  18  19
ENDBRANCH  17  18
ENDBRANCH   3  17
TORSDOF 8
ENDMDL
MODEL 5
REMARK VINA RESULT:      -5.7      9.362     10.564
REMARK  Name = Imipenem
REMARK  9 active torsions:
REMARK  status: ('A' for Active; 'I' for Inactive)
REMARK    1  A    between atoms: C_4  and  S_5
REMARK    2  A    between atoms: S_5  and  C_6
REMARK    3  A    between atoms: C_6  and  C_7
REMARK    4  A    between atoms: C_7  and  N_8
REMARK    5  A    between atoms: C_11  and  C_20
REMARK    6  A    between atoms: C_15  and  C_17
REMARK    7  A    between atoms: C_17  and  C_18
REMARK    8  A    between atoms: C_17  and  O_19
REMARK    9  A    between atoms: C_20  and  O_21
REMARK                            x       y       z     vdW  Elec       q    Type
REMARK                         _______ _______ _______ _____ _____    ______ ____
ROOT
ATOM      1  C   UNL     1      -9.339   5.268 129.969  0.00  0.00    +0.000 C 
ATOM      2  C   UNL     1      -7.821   5.170 129.945  0.00  0.00    +0.000 C 
ATOM      3  C   UNL     1      -7.465   4.765 131.372  0.00  0.00    +0.000 C 
ATOM      4  C   UNL     1      -8.590   4.663 132.126  0.00  0.00    +0.000 C 
ATOM      5  N   UNL     1      -9.741   4.960 131.373  0.00  0.00    +0.000 N 
ATOM      6  C   UNL     1     -10.378   6.168 131.543  0.00  0.00    +0.000 C 
ATOM      7  O   UNL     1     -10.901   6.610 132.541  0.00  0.00    +0.000 OA
ATOM      8  C   UNL     1      -9.958   6.684 130.150  0.00  0.00    +0.000 C 
ENDROOT
BRANCH   8   9
ATOM      9  C   UNL     1     -11.043   7.201 129.213  0.00  0.00    +0.000 C 
ATOM     10  C   UNL     1     -10.516   8.351 128.357  0.00  0.00    +0.000 C 
BRANCH   9  11
ATOM     11  O   UNL     1     -12.119   7.716 129.997  0.00  0.00    +0.000 OA
ATOM     12  H   UNL     1     -12.901   7.836 129.427  0.00  0.00    +0.000 HD
ENDBRANCH   9  11
ENDBRANCH   8   9
BRANCH   4  13
ATOM     13  C   UNL     1      -8.756   4.287 133.583  0.00  0.00    +0.000 C 
ATOM     14  O   UNL     1      -7.868   4.210 134.413  0.00  0.00    +0.000 OA
BRANCH  13  15
ATOM     15  O   UNL     1      -9.998   3.948 133.979  0.00  0.00    +0.000 OA
ATOM     16  H   UNL     1     -10.061   3.170 134.556  0.00  0.00    +0.000 HD
ENDBRANCH  13  15
ENDBRANCH   4  13
BRANCH   3  17
ATOM     17  S   UNL     1      -5.752   4.577 131.674  0.00  0.00    +0.000 S 
BRANCH  17  18
ATOM     18  C   UNL     1      -4.953   6.188 131.443  0.00  0.00    +0.000 C 
BRANCH  18  19
ATOM     19  C   UNL     1      -4.108   6.418 130.189  0.00  0.00    +0.000 C 
BRANCH  19  20
ATOM     20  N   UNL     1      -4.570   7.681 129.573  0.00  0.00    +0.000 NA
ATOM     21  C   UNL     1      -3.837   8.706 129.799  0.00  0.00    +0.000 C 
ATOM     22  N   UNL     1      -4.112   9.939 129.315  0.00  0.00    +0.000 N 
ATOM     23  H   UNL     1      -4.940  10.060 128.743  0.00  0.00    +0.000 HD
ATOM     24  H   UNL     1      -3.529  10.744 129.493  0.00  0.00    +0.000 HD
ENDBRANCH  19  20
ENDBRANCH  18  19
ENDBRANCH  17  18
ENDBRANCH   3  17
TORSDOF 8
ENDMDL
MODEL 6
REMARK VINA RESULT:      -5.6      4.238      6.880
REMARK  Name = Imipenem
REMARK  9 active torsions:
REMARK  status: ('A' for Active; 'I' for Inactive)
REMARK    1  A    between atoms: C_4  and  S_5
REMARK    2  A    between atoms: S_5  and  C_6
REMARK    3  A    between atoms: C_6  and  C_7
REMARK    4  A    between atoms: C_7  and  N_8
REMARK    5  A    between atoms: C_11  and  C_20
REMARK    6  A    between atoms: C_15  and  C_17
REMARK    7  A    between atoms: C_17  and  C_18
REMARK    8  A    between atoms: C_17  and  O_19
REMARK    9  A    between atoms: C_20  and  O_21
REMARK                            x       y       z     vdW  Elec       q    Type
REMARK                         _______ _______ _______ _____ _____    ______ ____
ROOT
ATOM      1  C   UNL     1      -4.354   3.145 126.041  0.00  0.00    +0.000 C 
ATOM      2  C   UNL     1      -4.983   1.808 126.404  0.00  0.00    +0.000 C 
ATOM      3  C   UNL     1      -6.176   1.704 125.459  0.00  0.00    +0.000 C 
ATOM      4  C   UNL     1      -6.254   2.813 124.678  0.00  0.00    +0.000 C 
ATOM      5  N   UNL     1      -5.220   3.722 124.972  0.00  0.00    +0.000 N 
ATOM      6  C   UNL     1      -5.493   4.861 125.693  0.00  0.00    +0.000 C 
ATOM      7  O   UNL     1      -6.233   5.776 125.406  0.00  0.00    +0.000 OA
ATOM      8  C   UNL     1      -4.716   4.368 126.933  0.00  0.00    +0.000 C 
ENDROOT
BRANCH   8   9
ATOM      9  C   UNL     1      -3.637   5.271 127.517  0.00  0.00    +0.000 C 
ATOM     10  C   UNL     1      -3.162   4.743 128.869  0.00  0.00    +0.000 C 
BRANCH   9  11
ATOM     11  O   UNL     1      -4.195   6.566 127.740  0.00  0.00    +0.000 OA
ATOM     12  H   UNL     1      -3.925   6.883 128.621  0.00  0.00    +0.000 HD
ENDBRANCH   9  11
ENDBRANCH   8   9
BRANCH   4  13
ATOM     13  C   UNL     1      -7.247   3.174 123.594  0.00  0.00    +0.000 C 
ATOM     14  O   UNL     1      -7.150   2.904 122.410  0.00  0.00    +0.000 OA
BRANCH  13  15
ATOM     15  O   UNL     1      -8.305   3.916 123.969  0.00  0.00    +0.000 OA
ATOM     16  H   UNL     1      -8.336   4.821 123.618  0.00  0.00    +0.000 HD
ENDBRANCH  13  15
ENDBRANCH   4  13
BRANCH   3  17
ATOM     17  S   UNL     1      -7.130   0.249 125.640  0.00  0.00    +0.000 S 
BRANCH  17  18
ATOM     18  C   UNL     1      -7.854  -0.160 124.029  0.00  0.00    +0.000 C 
BRANCH  18  19
ATOM     19  C   UNL     1      -7.109  -1.132 123.111  0.00  0.00    +0.000 C 
BRANCH  19  20
ATOM     20  N   UNL     1      -8.067  -2.188 122.719  0.00  0.00    +0.000 NA
ATOM     21  C   UNL     1      -8.933  -2.506 123.607  0.00  0.00    +0.000 C 
ATOM     22  N   UNL     1      -9.881  -3.451 123.417  0.00  0.00    +0.000 N 
ATOM     23  H   UNL     1      -9.911  -3.933 122.525  0.00  0.00    +0.000 HD
ATOM     24  H   UNL     1     -10.564  -3.696 124.120  0.00  0.00    +0.000 HD
ENDBRANCH  19  20
ENDBRANCH  18  19
ENDBRANCH  17  18
ENDBRANCH   3  17
TORSDOF 8
ENDMDL
MODEL 7
REMARK VINA RESULT:      -5.5      4.291      6.323
REMARK  Name = Imipenem
REMARK  9 active torsions:
REMARK  status: ('A' for Active; 'I' for Inactive)
REMARK    1  A    between atoms: C_4  and  S_5
REMARK    2  A    between atoms: S_5  and  C_6
REMARK    3  A    between atoms: C_6  and  C_7
REMARK    4  A    between atoms: C_7  and  N_8
REMARK    5  A    between atoms: C_11  and  C_20
REMARK    6  A    between atoms: C_15  and  C_17
REMARK    7  A    between atoms: C_17  and  C_18
REMARK    8  A    between atoms: C_17  and  O_19
REMARK    9  A    between atoms: C_20  and  O_21
REMARK                            x       y       z     vdW  Elec       q    Type
REMARK                         _______ _______ _______ _____ _____    ______ ____
ROOT
ATOM      1  C   UNL     1      -4.749   2.516 125.945  0.00  0.00    +0.000 C 
ATOM      2  C   UNL     1      -5.596   1.479 126.667  0.00  0.00    +0.000 C 
ATOM      3  C   UNL     1      -7.028   1.895 126.340  0.00  0.00    +0.000 C 
ATOM      4  C   UNL     1      -7.028   3.013 125.569  0.00  0.00    +0.000 C 
ATOM      5  N   UNL     1      -5.717   3.453 125.303  0.00  0.00    +0.000 N 
ATOM      6  C   UNL     1      -5.217   4.552 125.961  0.00  0.00    +0.000 C 
ATOM      7  O   UNL     1      -5.620   5.694 125.935  0.00  0.00    +0.000 OA
ATOM      8  C   UNL     1      -4.218   3.713 126.786  0.00  0.00    +0.000 C 
ENDROOT
BRANCH   8   9
ATOM      9  C   UNL     1      -2.747   4.109 126.762  0.00  0.00    +0.000 C 
ATOM     10  C   UNL     1      -1.854   2.889 126.976  0.00  0.00    +0.000 C 
BRANCH   9  11
ATOM     11  O   UNL     1      -2.498   5.012 127.840  0.00  0.00    +0.000 OA
ATOM     12  H   UNL     1      -3.219   5.666 127.882  0.00  0.00    +0.000 HD
ENDBRANCH   9  11
ENDBRANCH   8   9
BRANCH   4  13
ATOM     13  C   UNL     1      -8.185   3.796 124.988  0.00  0.00    +0.000 C 
ATOM     14  O   UNL     1      -8.928   4.545 125.599  0.00  0.00    +0.000 OA
BRANCH  13  15
ATOM     15  O   UNL     1      -8.454   3.596 123.684  0.00  0.00    +0.000 OA
ATOM     16  H   UNL     1      -7.960   4.151 123.059  0.00  0.00    +0.000 HD
ENDBRANCH  13  15
ENDBRANCH   4  13
BRANCH   3  17
ATOM     17  S   UNL     1      -8.264   0.881 127.050  0.00  0.00    +0.000 S 
BRANCH  17  18
ATOM     18  C   UNL     1      -7.966  -0.829 126.528  0.00  0.00    +0.000 C 
BRANCH  18  19
ATOM     19  C   UNL     1      -8.386  -1.254 125.119  0.00  0.00    +0.000 C 
BRANCH  19  20
ATOM     20  N   UNL     1      -9.390  -0.276 124.646  0.00  0.00    +0.000 NA
ATOM     21  C   UNL     1      -9.214   0.165 123.458  0.00  0.00    +0.000 C 
ATOM     22  N   UNL     1     -10.033   1.064 122.868  0.00  0.00    +0.000 N 
ATOM     23  H   UNL     1     -10.831   1.407 123.392  0.00  0.00    +0.000 HD
ATOM     24  H   UNL     1      -9.892   1.406 121.928  0.00  0.00    +0.000 HD
ENDBRANCH  19  20
ENDBRANCH  18  19
ENDBRANCH  17  18
ENDBRANCH   3  17
TORSDOF 8
ENDMDL
MODEL 8
REMARK VINA RESULT:      -5.5      2.164      2.640
REMARK  Name = Imipenem
REMARK  9 active torsions:
REMARK  status: ('A' for Active; 'I' for Inactive)
REMARK    1  A    between atoms: C_4  and  S_5
REMARK    2  A    between atoms: S_5  and  C_6
REMARK    3  A    between atoms: C_6  and  C_7
REMARK    4  A    between atoms: C_7  and  N_8
REMARK    5  A    between atoms: C_11  and  C_20
REMARK    6  A    between atoms: C_15  and  C_17
REMARK    7  A    between atoms: C_17  and  C_18
REMARK    8  A    between atoms: C_17  and  O_19
REMARK    9  A    between atoms: C_20  and  O_21
REMARK                            x       y       z     vdW  Elec       q    Type
REMARK                         _______ _______ _______ _____ _____    ______ ____
ROOT
ATOM      1  C   UNL     1      -7.288  -0.597 125.045  0.00  0.00    +0.000 C 
ATOM      2  C   UNL     1      -6.722   0.730 124.560  0.00  0.00    +0.000 C 
ATOM      3  C   UNL     1      -7.928   1.428 123.939  0.00  0.00    +0.000 C 
ATOM      4  C   UNL     1      -9.025   0.632 124.022  0.00  0.00    +0.000 C 
ATOM      5  N   UNL     1      -8.727  -0.591 124.650  0.00  0.00    +0.000 N 
ATOM      6  C   UNL     1      -8.610  -1.737 123.898  0.00  0.00    +0.000 C 
ATOM      7  O   UNL     1      -9.450  -2.279 123.214  0.00  0.00    +0.000 OA
ATOM      8  C   UNL     1      -7.086  -1.836 124.126  0.00  0.00    +0.000 C 
ENDROOT
BRANCH   8   9
ATOM      9  C   UNL     1      -6.519  -3.142 124.667  0.00  0.00    +0.000 C 
ATOM     10  C   UNL     1      -5.205  -3.492 123.971  0.00  0.00    +0.000 C 
BRANCH   9  11
ATOM     11  O   UNL     1      -7.441  -4.195 124.386  0.00  0.00    +0.000 OA
ATOM     12  H   UNL     1      -7.106  -5.025 124.770  0.00  0.00    +0.000 HD
ENDBRANCH   9  11
ENDBRANCH   8   9
BRANCH   4  13
ATOM     13  C   UNL     1     -10.445   0.879 123.558  0.00  0.00    +0.000 C 
ATOM     14  O   UNL     1     -11.334   1.403 124.206  0.00  0.00    +0.000 OA
BRANCH  13  15
ATOM     15  O   UNL     1     -10.768   0.418 122.335  0.00  0.00    +0.000 OA
ATOM     16  H   UNL     1     -10.979  -0.528 122.280  0.00  0.00    +0.000 HD
ENDBRANCH  13  15
ENDBRANCH   4  13
BRANCH   3  17
ATOM     17  S   UNL     1      -7.593   3.008 123.267  0.00  0.00    +0.000 S 
BRANCH  17  18
ATOM     18  C   UNL     1      -5.991   3.569 123.904  0.00  0.00    +0.000 C 
BRANCH  18  19
ATOM     19  C   UNL     1      -5.967   4.639 124.998  0.00  0.00    +0.000 C 
BRANCH  19  20
ATOM     20  N   UNL     1      -4.898   4.268 125.951  0.00  0.00    +0.000 NA
ATOM     21  C   UNL     1      -4.514   3.048 125.903  0.00  0.00    +0.000 C 
ATOM     22  N   UNL     1      -3.550   2.539 126.703  0.00  0.00    +0.000 N 
ATOM     23  H   UNL     1      -3.104   3.154 127.374  0.00  0.00    +0.000 HD
ATOM     24  H   UNL     1      -3.248   1.576 126.659  0.00  0.00    +0.000 HD
ENDBRANCH  19  20
ENDBRANCH  18  19
ENDBRANCH  17  18
ENDBRANCH   3  17
TORSDOF 8
ENDMDL
MODEL 9
REMARK VINA RESULT:      -5.5      8.274      9.948
REMARK  Name = Imipenem
REMARK  9 active torsions:
REMARK  status: ('A' for Active; 'I' for Inactive)
REMARK    1  A    between atoms: C_4  and  S_5
REMARK    2  A    between atoms: S_5  and  C_6
REMARK    3  A    between atoms: C_6  and  C_7
REMARK    4  A    between atoms: C_7  and  N_8
REMARK    5  A    between atoms: C_11  and  C_20
REMARK    6  A    between atoms: C_15  and  C_17
REMARK    7  A    between atoms: C_17  and  C_18
REMARK    8  A    between atoms: C_17  and  O_19
REMARK    9  A    between atoms: C_20  and  O_21
REMARK                            x       y       z     vdW  Elec       q    Type
REMARK                         _______ _______ _______ _____ _____    ______ ____
ROOT
ATOM      1  C   UNL     1      -9.946   6.797 129.847  0.00  0.00    +0.000 C 
ATOM      2  C   UNL     1      -8.715   7.217 130.637  0.00  0.00    +0.000 C 
ATOM      3  C   UNL     1      -7.869   5.948 130.684  0.00  0.00    +0.000 C 
ATOM      4  C   UNL     1      -8.507   4.934 130.045  0.00  0.00    +0.000 C 
ATOM      5  N   UNL     1      -9.751   5.351 129.534  0.00  0.00    +0.000 N 
ATOM      6  C   UNL     1     -10.913   4.973 130.165  0.00  0.00    +0.000 C 
ATOM      7  O   UNL     1     -11.345   3.855 130.342  0.00  0.00    +0.000 OA
ATOM      8  C   UNL     1     -11.214   6.405 130.658  0.00  0.00    +0.000 C 
ENDROOT
BRANCH   8   9
ATOM      9  C   UNL     1     -12.577   7.006 130.342  0.00  0.00    +0.000 C 
ATOM     10  C   UNL     1     -12.434   8.449 129.862  0.00  0.00    +0.000 C 
BRANCH   9  11
ATOM     11  O   UNL     1     -13.356   7.033 131.538  0.00  0.00    +0.000 OA
ATOM     12  H   UNL     1     -13.439   7.954 131.845  0.00  0.00    +0.000 HD
ENDBRANCH   9  11
ENDBRANCH   8   9
BRANCH   4  13
ATOM     13  C   UNL     1      -8.077   3.500 129.819  0.00  0.00    +0.000 C 
ATOM     14  O   UNL     1      -8.069   2.611 130.651  0.00  0.00    +0.000 OA
BRANCH  13  15
ATOM     15  O   UNL     1      -7.601   3.200 128.596  0.00  0.00    +0.000 OA
ATOM     16  H   UNL     1      -6.635   3.149 128.517  0.00  0.00    +0.000 HD
ENDBRANCH  13  15
ENDBRANCH   4  13
BRANCH   3  17
ATOM     17  S   UNL     1      -6.358   6.107 131.552  0.00  0.00    +0.000 S 
BRANCH  17  18
ATOM     18  C   UNL     1      -5.042   5.379 130.541  0.00  0.00    +0.000 C 
BRANCH  18  19
ATOM     19  C   UNL     1      -3.933   6.288 130.009  0.00  0.00    +0.000 C 
BRANCH  19  20
ATOM     20  N   UNL     1      -4.563   7.568 129.618  0.00  0.00    +0.000 NA
ATOM     21  C   UNL     1      -3.836   8.610 129.765  0.00  0.00    +0.000 C 
ATOM     22  N   UNL     1      -4.254   9.859 129.459  0.00  0.00    +0.000 N 
ATOM     23  H   UNL     1      -5.191   9.979 129.092  0.00  0.00    +0.000 HD
ATOM     24  H   UNL     1      -3.674  10.678 129.575  0.00  0.00    +0.000 HD
ENDBRANCH  19  20
ENDBRANCH  18  19
ENDBRANCH  17  18
ENDBRANCH   3  17
TORSDOF 8
ENDMDL
