MODEL 1
REMARK VINA RESULT:      -6.9      0.000      0.000
REMARK  Name = Imiquimod
REMARK  4 active torsions:
REMARK  status: ('A' for Active; 'I' for Inactive)
REMARK    1  A    between atoms: C_1  and  C_2
REMARK    2  A    between atoms: C_2  and  C_3
REMARK    3  A    between atoms: C_2  and  C_4
REMARK    4  A    between atoms: C_4  and  N_5
REMARK                            x       y       z     vdW  Elec       q    Type
REMARK                         _______ _______ _______ _____ _____    ______ ____
ROOT
ATOM      1  N   UNL     1      -5.686   3.406 125.189  0.00  0.00    +0.000 N 
ATOM      2  C   UNL     1      -6.378   2.891 126.255  0.00  0.00    +0.000 A 
ATOM      3  N   UNL     1      -7.580   2.506 125.916  0.00  0.00    +0.000 NA
ATOM      4  C   UNL     1      -7.675   2.783 124.566  0.00  0.00    +0.000 A 
ATOM      5  C   UNL     1      -6.500   3.361 124.074  0.00  0.00    +0.000 A 
ATOM      6  C   UNL     1      -6.390   3.719 122.696  0.00  0.00    +0.000 A 
ATOM      7  C   UNL     1      -7.539   3.437 121.919  0.00  0.00    +0.000 A 
ATOM      8  C   UNL     1      -7.506   3.751 120.566  0.00  0.00    +0.000 A 
ATOM      9  C   UNL     1      -6.380   4.315 119.958  0.00  0.00    +0.000 A 
ATOM     10  C   UNL     1      -5.251   4.588 120.717  0.00  0.00    +0.000 A 
ATOM     11  C   UNL     1      -5.257   4.311 122.084  0.00  0.00    +0.000 A 
ATOM     12  N   UNL     1      -8.667   2.887 122.399  0.00  0.00    +0.000 NA
ATOM     13  C   UNL     1      -8.764   2.552 123.704  0.00  0.00    +0.000 A 
ATOM     14  N   UNL     1      -9.937   1.985 124.152  0.00  0.00    +0.000 N 
ATOM     15  H   UNL     1     -10.697   1.873 123.504  0.00  0.00    +0.000 HD
ATOM     16  H   UNL     1     -10.008   1.758 125.134  0.00  0.00    +0.000 HD
ENDROOT
BRANCH   1  17
ATOM     17  C   UNL     1      -4.304   3.840 125.291  0.00  0.00    +0.000 C 
BRANCH  17  19
ATOM     18  C   UNL     1      -2.310   3.082 126.626  0.00  0.00    +0.000 C 
ATOM     19  C   UNL     1      -3.716   3.673 126.701  0.00  0.00    +0.000 C 
ATOM     20  C   UNL     1      -3.702   4.992 127.473  0.00  0.00    +0.000 C 
ENDBRANCH  17  19
ENDBRANCH   1  17
TORSDOF 2
ENDMDL
MODEL 2
REMARK VINA RESULT:      -6.6      3.345      5.828
REMARK  Name = Imiquimod
REMARK  4 active torsions:
REMARK  status: ('A' for Active; 'I' for Inactive)
REMARK    1  A    between atoms: C_1  and  C_2
REMARK    2  A    between atoms: C_2  and  C_3
REMARK    3  A    between atoms: C_2  and  C_4
REMARK    4  A    between atoms: C_4  and  N_5
REMARK                            x       y       z     vdW  Elec       q    Type
REMARK                         _______ _______ _______ _____ _____    ______ ____
ROOT
ATOM      1  N   UNL     1      -8.907   1.127 123.238  0.00  0.00    +0.000 N 
ATOM      2  C   UNL     1      -9.985   0.747 122.480  0.00  0.00    +0.000 A 
ATOM      3  N   UNL     1     -10.213  -0.537 122.566  0.00  0.00    +0.000 NA
ATOM      4  C   UNL     1      -9.239  -1.015 123.420  0.00  0.00    +0.000 A 
ATOM      5  C   UNL     1      -8.389   0.007 123.857  0.00  0.00    +0.000 A 
ATOM      6  C   UNL     1      -7.315  -0.279 124.754  0.00  0.00    +0.000 A 
ATOM      7  C   UNL     1      -7.210  -1.637 125.136  0.00  0.00    +0.000 A 
ATOM      8  C   UNL     1      -6.193  -1.992 126.014  0.00  0.00    +0.000 A 
ATOM      9  C   UNL     1      -5.294  -1.055 126.533  0.00  0.00    +0.000 A 
ATOM     10  C   UNL     1      -5.398   0.278 126.163  0.00  0.00    +0.000 A 
ATOM     11  C   UNL     1      -6.391   0.667 125.264  0.00  0.00    +0.000 A 
ATOM     12  N   UNL     1      -8.026  -2.615 124.707  0.00  0.00    +0.000 NA
ATOM     13  C   UNL     1      -9.040  -2.338 123.858  0.00  0.00    +0.000 A 
ATOM     14  N   UNL     1      -9.855  -3.370 123.449  0.00  0.00    +0.000 N 
ATOM     15  H   UNL     1      -9.648  -4.302 123.764  0.00  0.00    +0.000 HD
ATOM     16  H   UNL     1     -10.597  -3.157 122.796  0.00  0.00    +0.000 HD
ENDROOT
BRANCH   1  17
ATOM     17  C   UNL     1      -8.491   2.512 123.366  0.00  0.00    +0.000 C 
BRANCH  17  19
ATOM     18  C   UNL     1      -7.871   3.634 121.200  0.00  0.00    +0.000 C 
ATOM     19  C   UNL     1      -7.338   2.892 122.424  0.00  0.00    +0.000 C 
ATOM     20  C   UNL     1      -6.272   3.725 123.134  0.00  0.00    +0.000 C 
ENDBRANCH  17  19
ENDBRANCH   1  17
TORSDOF 2
ENDMDL
MODEL 3
REMARK VINA RESULT:      -6.6      3.167      5.916
REMARK  Name = Imiquimod
REMARK  4 active torsions:
REMARK  status: ('A' for Active; 'I' for Inactive)
REMARK    1  A    between atoms: C_1  and  C_2
REMARK    2  A    between atoms: C_2  and  C_3
REMARK    3  A    between atoms: C_2  and  C_4
REMARK    4  A    between atoms: C_4  and  N_5
REMARK                            x       y       z     vdW  Elec       q    Type
REMARK                         _______ _______ _______ _____ _____    ______ ____
ROOT
ATOM      1  N   UNL     1      -8.853   2.061 123.947  0.00  0.00    +0.000 N 
ATOM      2  C   UNL     1      -8.661   3.122 124.794  0.00  0.00    +0.000 A 
ATOM      3  N   UNL     1      -8.432   2.731 126.021  0.00  0.00    +0.000 NA
ATOM      4  C   UNL     1      -8.477   1.352 125.969  0.00  0.00    +0.000 A 
ATOM      5  C   UNL     1      -8.750   0.892 124.676  0.00  0.00    +0.000 A 
ATOM      6  C   UNL     1      -8.833  -0.507 124.407  0.00  0.00    +0.000 A 
ATOM      7  C   UNL     1      -8.617  -1.339 125.532  0.00  0.00    +0.000 A 
ATOM      8  C   UNL     1      -8.675  -2.714 125.348  0.00  0.00    +0.000 A 
ATOM      9  C   UNL     1      -8.922  -3.291 124.097  0.00  0.00    +0.000 A 
ATOM     10  C   UNL     1      -9.129  -2.478 122.993  0.00  0.00    +0.000 A 
ATOM     11  C   UNL     1      -9.105  -1.091 123.144  0.00  0.00    +0.000 A 
ATOM     12  N   UNL     1      -8.361  -0.891 126.773  0.00  0.00    +0.000 NA
ATOM     13  C   UNL     1      -8.285   0.435 127.020  0.00  0.00    +0.000 A 
ATOM     14  N   UNL     1      -8.014   0.849 128.305  0.00  0.00    +0.000 N 
ATOM     15  H   UNL     1      -7.920   0.155 129.026  0.00  0.00    +0.000 HD
ATOM     16  H   UNL     1      -7.981   1.843 128.485  0.00  0.00    +0.000 HD
ENDROOT
BRANCH   1  17
ATOM     17  C   UNL     1      -9.056   2.229 122.519  0.00  0.00    +0.000 C 
BRANCH  17  19
ATOM     18  C   UNL     1      -6.774   3.041 121.838  0.00  0.00    +0.000 C 
ATOM     19  C   UNL     1      -8.256   3.398 121.923  0.00  0.00    +0.000 C 
ATOM     20  C   UNL     1      -8.788   3.811 120.552  0.00  0.00    +0.000 C 
ENDBRANCH  17  19
ENDBRANCH   1  17
TORSDOF 2
ENDMDL
MODEL 4
REMARK VINA RESULT:      -6.5      3.418      5.186
REMARK  Name = Imiquimod
REMARK  4 active torsions:
REMARK  status: ('A' for Active; 'I' for Inactive)
REMARK    1  A    between atoms: C_1  and  C_2
REMARK    2  A    between atoms: C_2  and  C_3
REMARK    3  A    between atoms: C_2  and  C_4
REMARK    4  A    between atoms: C_4  and  N_5
REMARK                            x       y       z     vdW  Elec       q    Type
REMARK                         _______ _______ _______ _____ _____    ______ ____
ROOT
ATOM      1  N   UNL     1      -7.576  -1.033 123.357  0.00  0.00    +0.000 N 
ATOM      2  C   UNL     1      -8.670  -1.591 122.745  0.00  0.00    +0.000 A 
ATOM      3  N   UNL     1      -9.743  -0.862 122.906  0.00  0.00    +0.000 NA
ATOM      4  C   UNL     1      -9.329   0.221 123.656  0.00  0.00    +0.000 A 
ATOM      5  C   UNL     1      -7.967   0.142 123.968  0.00  0.00    +0.000 A 
ATOM      6  C   UNL     1      -7.339   1.170 124.735  0.00  0.00    +0.000 A 
ATOM      7  C   UNL     1      -8.198   2.225 125.124  0.00  0.00    +0.000 A 
ATOM      8  C   UNL     1      -7.657   3.266 125.867  0.00  0.00    +0.000 A 
ATOM      9  C   UNL     1      -6.305   3.307 126.223  0.00  0.00    +0.000 A 
ATOM     10  C   UNL     1      -5.461   2.275 125.839  0.00  0.00    +0.000 A 
ATOM     11  C   UNL     1      -5.973   1.200 125.114  0.00  0.00    +0.000 A 
ATOM     12  N   UNL     1      -9.507   2.291 124.826  0.00  0.00    +0.000 NA
ATOM     13  C   UNL     1     -10.094   1.315 124.101  0.00  0.00    +0.000 A 
ATOM     14  N   UNL     1     -11.437   1.427 123.814  0.00  0.00    +0.000 N 
ATOM     15  H   UNL     1     -11.946   2.210 124.185  0.00  0.00    +0.000 HD
ATOM     16  H   UNL     1     -11.873   0.681 123.290  0.00  0.00    +0.000 HD
ENDROOT
BRANCH   1  17
ATOM     17  C   UNL     1      -6.250  -1.615 123.265  0.00  0.00    +0.000 C 
BRANCH  17  19
ATOM     18  C   UNL     1      -4.859  -3.664 123.714  0.00  0.00    +0.000 C 
ATOM     19  C   UNL     1      -6.056  -2.836 124.178  0.00  0.00    +0.000 C 
ATOM     20  C   UNL     1      -5.894  -2.433 125.643  0.00  0.00    +0.000 C 
ENDBRANCH  17  19
ENDBRANCH   1  17
TORSDOF 2
ENDMDL
MODEL 5
REMARK VINA RESULT:      -6.5      4.561      6.744
REMARK  Name = Imiquimod
REMARK  4 active torsions:
REMARK  status: ('A' for Active; 'I' for Inactive)
REMARK    1  A    between atoms: C_1  and  C_2
REMARK    2  A    between atoms: C_2  and  C_3
REMARK    3  A    between atoms: C_2  and  C_4
REMARK    4  A    between atoms: C_4  and  N_5
REMARK                            x       y       z     vdW  Elec       q    Type
REMARK                         _______ _______ _______ _____ _____    ______ ____
ROOT
ATOM      1  N   UNL     1      -7.917   0.324 125.090  0.00  0.00    +0.000 N 
ATOM      2  C   UNL     1      -8.247   0.405 123.761  0.00  0.00    +0.000 A 
ATOM      3  N   UNL     1      -8.789  -0.701 123.325  0.00  0.00    +0.000 NA
ATOM      4  C   UNL     1      -8.812  -1.542 124.420  0.00  0.00    +0.000 A 
ATOM      5  C   UNL     1      -8.261  -0.931 125.552  0.00  0.00    +0.000 A 
ATOM      6  C   UNL     1      -8.195  -1.632 126.794  0.00  0.00    +0.000 A 
ATOM      7  C   UNL     1      -8.725  -2.944 126.760  0.00  0.00    +0.000 A 
ATOM      8  C   UNL     1      -8.703  -3.687 127.934  0.00  0.00    +0.000 A 
ATOM      9  C   UNL     1      -8.194  -3.176 129.132  0.00  0.00    +0.000 A 
ATOM     10  C   UNL     1      -7.678  -1.889 129.168  0.00  0.00    +0.000 A 
ATOM     11  C   UNL     1      -7.659  -1.122 128.003  0.00  0.00    +0.000 A 
ATOM     12  N   UNL     1      -9.248  -3.527 125.668  0.00  0.00    +0.000 NA
ATOM     13  C   UNL     1      -9.306  -2.858 124.496  0.00  0.00    +0.000 A 
ATOM     14  N   UNL     1      -9.856  -3.493 123.404  0.00  0.00    +0.000 N 
ATOM     15  H   UNL     1     -10.161  -4.445 123.503  0.00  0.00    +0.000 HD
ATOM     16  H   UNL     1      -9.874  -2.993 122.526  0.00  0.00    +0.000 HD
ENDROOT
BRANCH   1  17
ATOM     17  C   UNL     1      -7.364   1.446 125.827  0.00  0.00    +0.000 C 
BRANCH  17  19
ATOM     18  C   UNL     1      -5.651   3.176 125.190  0.00  0.00    +0.000 C 
ATOM     19  C   UNL     1      -5.879   1.703 125.523  0.00  0.00    +0.000 C 
ATOM     20  C   UNL     1      -4.978   1.267 126.677  0.00  0.00    +0.000 C 
ENDBRANCH  17  19
ENDBRANCH   1  17
TORSDOF 2
ENDMDL
MODEL 6
REMARK VINA RESULT:      -6.4      4.726      5.983
REMARK  Name = Imiquimod
REMARK  4 active torsions:
REMARK  status: ('A' for Active; 'I' for Inactive)
REMARK    1  A    between atoms: C_1  and  C_2
REMARK    2  A    between atoms: C_2  and  C_3
REMARK    3  A    between atoms: C_2  and  C_4
REMARK    4  A    between atoms: C_4  and  N_5
REMARK                            x       y       z     vdW  Elec       q    Type
REMARK                         _______ _______ _______ _____ _____    ______ ____
ROOT
ATOM      1  N   UNL     1      -7.365  -0.641 127.411  0.00  0.00    +0.000 N 
ATOM      2  C   UNL     1      -8.161   0.411 127.788  0.00  0.00    +0.000 A 
ATOM      3  N   UNL     1      -8.572   1.104 126.758  0.00  0.00    +0.000 NA
ATOM      4  C   UNL     1      -8.018   0.474 125.661  0.00  0.00    +0.000 A 
ATOM      5  C   UNL     1      -7.241  -0.627 126.036  0.00  0.00    +0.000 A 
ATOM      6  C   UNL     1      -6.583  -1.419 125.047  0.00  0.00    +0.000 A 
ATOM      7  C   UNL     1      -6.794  -0.995 123.714  0.00  0.00    +0.000 A 
ATOM      8  C   UNL     1      -6.191  -1.721 122.694  0.00  0.00    +0.000 A 
ATOM      9  C   UNL     1      -5.407  -2.852 122.946  0.00  0.00    +0.000 A 
ATOM     10  C   UNL     1      -5.203  -3.272 124.252  0.00  0.00    +0.000 A 
ATOM     11  C   UNL     1      -5.770  -2.553 125.303  0.00  0.00    +0.000 A 
ATOM     12  N   UNL     1      -7.537   0.068 123.361  0.00  0.00    +0.000 NA
ATOM     13  C   UNL     1      -8.156   0.814 124.302  0.00  0.00    +0.000 A 
ATOM     14  N   UNL     1      -8.912   1.890 123.894  0.00  0.00    +0.000 N 
ATOM     15  H   UNL     1      -8.949   2.111 122.915  0.00  0.00    +0.000 HD
ATOM     16  H   UNL     1      -9.353   2.456 124.607  0.00  0.00    +0.000 HD
ENDROOT
BRANCH   1  17
ATOM     17  C   UNL     1      -6.839  -1.601 128.364  0.00  0.00    +0.000 C 
BRANCH  17  19
ATOM     18  C   UNL     1      -8.488  -3.461 127.974  0.00  0.00    +0.000 C 
ATOM     19  C   UNL     1      -7.923  -2.484 129.002  0.00  0.00    +0.000 C 
ATOM     20  C   UNL     1      -7.400  -3.235 130.225  0.00  0.00    +0.000 C 
ENDBRANCH  17  19
ENDBRANCH   1  17
TORSDOF 2
ENDMDL
MODEL 7
REMARK VINA RESULT:      -6.3      3.097      5.241
REMARK  Name = Imiquimod
REMARK  4 active torsions:
REMARK  status: ('A' for Active; 'I' for Inactive)
REMARK    1  A    between atoms: C_1  and  C_2
REMARK    2  A    between atoms: C_2  and  C_3
REMARK    3  A    between atoms: C_2  and  C_4
REMARK    4  A    between atoms: C_4  and  N_5
REMARK                            x       y       z     vdW  Elec       q    Type
REMARK                         _______ _______ _______ _____ _____    ______ ____
ROOT
ATOM      1  N   UNL     1      -8.061  -0.291 124.374  0.00  0.00    +0.000 N 
ATOM      2  C   UNL     1      -9.069  -0.366 123.446  0.00  0.00    +0.000 A 
ATOM      3  N   UNL     1      -9.189   0.743 122.765  0.00  0.00    +0.000 NA
ATOM      4  C   UNL     1      -8.213   1.579 123.272  0.00  0.00    +0.000 A 
ATOM      5  C   UNL     1      -7.486   0.962 124.296  0.00  0.00    +0.000 A 
ATOM      6  C   UNL     1      -6.425   1.658 124.951  0.00  0.00    +0.000 A 
ATOM      7  C   UNL     1      -6.196   2.970 124.474  0.00  0.00    +0.000 A 
ATOM      8  C   UNL     1      -5.174   3.708 125.057  0.00  0.00    +0.000 A 
ATOM      9  C   UNL     1      -4.368   3.191 126.077  0.00  0.00    +0.000 A 
ATOM     10  C   UNL     1      -4.588   1.903 126.543  0.00  0.00    +0.000 A 
ATOM     11  C   UNL     1      -5.622   1.142 126.000  0.00  0.00    +0.000 A 
ATOM     12  N   UNL     1      -6.901   3.558 123.493  0.00  0.00    +0.000 NA
ATOM     13  C   UNL     1      -7.905   2.895 122.878  0.00  0.00    +0.000 A 
ATOM     14  N   UNL     1      -8.597   3.534 121.874  0.00  0.00    +0.000 N 
ATOM     15  H   UNL     1      -8.361   4.486 121.655  0.00  0.00    +0.000 HD
ATOM     16  H   UNL     1      -9.361   3.038 121.436  0.00  0.00    +0.000 HD
ENDROOT
BRANCH   1  17
ATOM     17  C   UNL     1      -7.683  -1.416 125.209  0.00  0.00    +0.000 C 
BRANCH  17  19
ATOM     18  C   UNL     1      -5.753  -2.913 124.604  0.00  0.00    +0.000 C 
ATOM     19  C   UNL     1      -7.244  -2.652 124.406  0.00  0.00    +0.000 C 
ATOM     20  C   UNL     1      -8.059  -3.890 124.774  0.00  0.00    +0.000 C 
ENDBRANCH  17  19
ENDBRANCH   1  17
TORSDOF 2
ENDMDL
MODEL 8
REMARK VINA RESULT:      -6.2      4.785      7.884
REMARK  Name = Imiquimod
REMARK  4 active torsions:
REMARK  status: ('A' for Active; 'I' for Inactive)
REMARK    1  A    between atoms: C_1  and  C_2
REMARK    2  A    between atoms: C_2  and  C_3
REMARK    3  A    between atoms: C_2  and  C_4
REMARK    4  A    between atoms: C_4  and  N_5
REMARK                            x       y       z     vdW  Elec       q    Type
REMARK                         _______ _______ _______ _____ _____    ______ ____
ROOT
ATOM      1  N   UNL     1      -7.736  -0.311 125.131  0.00  0.00    +0.000 N 
ATOM      2  C   UNL     1      -7.046   0.795 124.702  0.00  0.00    +0.000 A 
ATOM      3  N   UNL     1      -6.153   1.181 125.575  0.00  0.00    +0.000 NA
ATOM      4  C   UNL     1      -6.268   0.286 126.621  0.00  0.00    +0.000 A 
ATOM      5  C   UNL     1      -7.265  -0.665 126.379  0.00  0.00    +0.000 A 
ATOM      6  C   UNL     1      -7.539  -1.686 127.339  0.00  0.00    +0.000 A 
ATOM      7  C   UNL     1      -6.732  -1.637 128.500  0.00  0.00    +0.000 A 
ATOM      8  C   UNL     1      -6.934  -2.604 129.478  0.00  0.00    +0.000 A 
ATOM      9  C   UNL     1      -7.889  -3.617 129.339  0.00  0.00    +0.000 A 
ATOM     10  C   UNL     1      -8.678  -3.669 128.200  0.00  0.00    +0.000 A 
ATOM     11  C   UNL     1      -8.521  -2.700 127.209  0.00  0.00    +0.000 A 
ATOM     12  N   UNL     1      -5.780  -0.717 128.729  0.00  0.00    +0.000 NA
ATOM     13  C   UNL     1      -5.527   0.247 127.817  0.00  0.00    +0.000 A 
ATOM     14  N   UNL     1      -4.538   1.166 128.090  0.00  0.00    +0.000 N 
ATOM     15  H   UNL     1      -4.062   1.116 128.974  0.00  0.00    +0.000 HD
ATOM     16  H   UNL     1      -4.371   1.897 127.412  0.00  0.00    +0.000 HD
ENDROOT
BRANCH   1  17
ATOM     17  C   UNL     1      -8.734  -0.974 124.311  0.00  0.00    +0.000 C 
BRANCH  17  19
ATOM     18  C   UNL     1      -9.426  -3.219 123.409  0.00  0.00    +0.000 C 
ATOM     19  C   UNL     1      -8.244  -2.300 123.708  0.00  0.00    +0.000 C 
ATOM     20  C   UNL     1      -7.404  -2.079 122.451  0.00  0.00    +0.000 C 
ENDBRANCH  17  19
ENDBRANCH   1  17
TORSDOF 2
ENDMDL
MODEL 9
REMARK VINA RESULT:      -5.9      6.629      8.967
REMARK  Name = Imiquimod
REMARK  4 active torsions:
REMARK  status: ('A' for Active; 'I' for Inactive)
REMARK    1  A    between atoms: C_1  and  C_2
REMARK    2  A    between atoms: C_2  and  C_3
REMARK    3  A    between atoms: C_2  and  C_4
REMARK    4  A    between atoms: C_4  and  N_5
REMARK                            x       y       z     vdW  Elec       q    Type
REMARK                         _______ _______ _______ _____ _____    ______ ____
ROOT
ATOM      1  N   UNL     1     -11.072   6.290 130.385  0.00  0.00    +0.000 N 
ATOM      2  C   UNL     1     -11.693   6.772 131.510  0.00  0.00    +0.000 A 
ATOM      3  N   UNL     1     -10.972   6.585 132.583  0.00  0.00    +0.000 NA
ATOM      4  C   UNL     1      -9.828   5.952 132.138  0.00  0.00    +0.000 A 
ATOM      5  C   UNL     1      -9.860   5.741 130.756  0.00  0.00    +0.000 A 
ATOM      6  C   UNL     1      -8.766   5.103 130.095  0.00  0.00    +0.000 A 
ATOM      7  C   UNL     1      -7.698   4.731 130.946  0.00  0.00    +0.000 A 
ATOM      8  C   UNL     1      -6.594   4.111 130.375  0.00  0.00    +0.000 A 
ATOM      9  C   UNL     1      -6.504   3.864 129.001  0.00  0.00    +0.000 A 
ATOM     10  C   UNL     1      -7.548   4.232 128.165  0.00  0.00    +0.000 A 
ATOM     11  C   UNL     1      -8.684   4.833 128.706  0.00  0.00    +0.000 A 
ATOM     12  N   UNL     1      -7.677   4.932 132.274  0.00  0.00    +0.000 NA
ATOM     13  C   UNL     1      -8.715   5.535 132.893  0.00  0.00    +0.000 A 
ATOM     14  N   UNL     1      -8.647   5.726 134.255  0.00  0.00    +0.000 N 
ATOM     15  H   UNL     1      -7.847   5.377 134.752  0.00  0.00    +0.000 HD
ATOM     16  H   UNL     1      -9.439   6.157 134.712  0.00  0.00    +0.000 HD
ENDROOT
BRANCH   1  17
ATOM     17  C   UNL     1     -11.637   6.437 129.057  0.00  0.00    +0.000 C 
BRANCH  17  19
ATOM     18  C   UNL     1     -10.838   7.868 127.148  0.00  0.00    +0.000 C 
ATOM     19  C   UNL     1     -11.535   7.869 128.506  0.00  0.00    +0.000 C 
ATOM     20  C   UNL     1     -12.904   8.540 128.407  0.00  0.00    +0.000 C 
ENDBRANCH  17  19
ENDBRANCH   1  17
TORSDOF 2
ENDMDL
