MODEL 1
REMARK VINA RESULT:      -8.8      0.000      0.000
REMARK  Name = Indapamide
REMARK  5 active torsions:
REMARK  status: ('A' for Active; 'I' for Inactive)
REMARK    1  A    between atoms: C_1  and  C_2
REMARK    2  A    between atoms: N_10  and  N_11
REMARK    3  A    between atoms: C_12  and  C_14
REMARK    4  A    between atoms: C_16  and  S_21
REMARK    5  A    between atoms: S_21  and  N_22
REMARK                            x       y       z     vdW  Elec       q    Type
REMARK                         _______ _______ _______ _____ _____    ______ ____
ROOT
ATOM      1  N   UNL     1      -8.050   6.027 131.241  0.00  0.00    +0.000 N 
ATOM      2  C   UNL     1      -9.316   6.374 131.719  0.00  0.00    +0.000 C 
ATOM      3  O   UNL     1      -9.837   6.448 132.830  0.00  0.00    +0.000 OA
ATOM      4  H   UNL     1      -7.908   5.957 130.237  0.00  0.00    +0.000 HD
ENDROOT
BRANCH   1  14
ATOM      5  C   UNL     1      -7.044   3.672 133.131  0.00  0.00    +0.000 C 
ATOM      6  C   UNL     1      -6.710   5.164 133.293  0.00  0.00    +0.000 C 
ATOM      7  C   UNL     1      -5.211   5.393 133.767  0.00  0.00    +0.000 C 
ATOM      8  C   UNL     1      -4.647   6.285 132.692  0.00  0.00    +0.000 A 
ATOM      9  C   UNL     1      -3.362   6.841 132.533  0.00  0.00    +0.000 A 
ATOM     10  C   UNL     1      -3.061   7.639 131.410  0.00  0.00    +0.000 A 
ATOM     11  C   UNL     1      -4.026   7.871 130.470  0.00  0.00    +0.000 A 
ATOM     12  C   UNL     1      -5.256   7.295 130.662  0.00  0.00    +0.000 A 
ATOM     13  C   UNL     1      -5.626   6.523 131.737  0.00  0.00    +0.000 A 
ATOM     14  N   UNL     1      -6.847   5.897 132.003  0.00  0.00    +0.000 N 
ENDBRANCH   1  14
BRANCH   2  15
ATOM     15  C   UNL     1     -10.387   6.682 130.808  0.00  0.00    +0.000 A 
ATOM     16  C   UNL     1     -10.170   6.567 129.454  0.00  0.00    +0.000 A 
ATOM     17  C   UNL     1     -11.235   6.866 128.616  0.00  0.00    +0.000 A 
ATOM     18  C   UNL     1     -12.533   7.050 129.124  0.00  0.00    +0.000 A 
ATOM     19 CL   UNL     1     -13.886   7.509 128.163  0.00  0.00    +0.000 Cl
ATOM     20  C   UNL     1     -12.774   6.890 130.486  0.00  0.00    +0.000 A 
ATOM     21  C   UNL     1     -11.692   6.765 131.336  0.00  0.00    +0.000 A 
BRANCH  17  22
ATOM     22  S   UNL     1     -10.847   7.167 126.931  0.00  0.00    +0.000 S 
ATOM     23  O   UNL     1     -10.793   8.592 126.762  0.00  0.00    +0.000 OA
ATOM     24  O   UNL     1      -9.730   6.305 126.581  0.00  0.00    +0.000 OA
BRANCH  22  25
ATOM     25  N   UNL     1     -12.175   6.561 126.132  0.00  0.00    +0.000 NA
ATOM     26  H   UNL     1     -12.810   6.037 126.734  0.00  0.00    +0.000 HD
ATOM     27  H   UNL     1     -12.000   6.215 125.193  0.00  0.00    +0.000 HD
ENDBRANCH  22  25
ENDBRANCH  17  22
ENDBRANCH   2  15
TORSDOF 4
ENDMDL
MODEL 2
REMARK VINA RESULT:      -8.6      1.319      1.984
REMARK  Name = Indapamide
REMARK  5 active torsions:
REMARK  status: ('A' for Active; 'I' for Inactive)
REMARK    1  A    between atoms: C_1  and  C_2
REMARK    2  A    between atoms: N_10  and  N_11
REMARK    3  A    between atoms: C_12  and  C_14
REMARK    4  A    between atoms: C_16  and  S_21
REMARK    5  A    between atoms: S_21  and  N_22
REMARK                            x       y       z     vdW  Elec       q    Type
REMARK                         _______ _______ _______ _____ _____    ______ ____
ROOT
ATOM      1  N   UNL     1      -9.312   4.639 131.724  0.00  0.00    +0.000 N 
ATOM      2  C   UNL     1      -9.976   5.833 132.015  0.00  0.00    +0.000 C 
ATOM      3  O   UNL     1     -10.070   6.558 133.003  0.00  0.00    +0.000 OA
ATOM      4  H   UNL     1      -9.483   4.189 130.829  0.00  0.00    +0.000 HD
ENDROOT
BRANCH   1  14
ATOM      5  C   UNL     1      -8.731   1.568 132.321  0.00  0.00    +0.000 C 
ATOM      6  C   UNL     1      -8.395   2.746 133.249  0.00  0.00    +0.000 C 
ATOM      7  C   UNL     1      -7.004   2.546 133.989  0.00  0.00    +0.000 C 
ATOM      8  C   UNL     1      -6.228   3.776 133.595  0.00  0.00    +0.000 A 
ATOM      9  C   UNL     1      -4.923   4.190 133.924  0.00  0.00    +0.000 A 
ATOM     10  C   UNL     1      -4.399   5.391 133.403  0.00  0.00    +0.000 A 
ATOM     11  C   UNL     1      -5.168   6.156 132.572  0.00  0.00    +0.000 A 
ATOM     12  C   UNL     1      -6.427   5.703 132.270  0.00  0.00    +0.000 A 
ATOM     13  C   UNL     1      -7.008   4.555 132.752  0.00  0.00    +0.000 A 
ATOM     14  N   UNL     1      -8.273   4.021 132.488  0.00  0.00    +0.000 N 
ENDBRANCH   1  14
BRANCH   2  15
ATOM     15  C   UNL     1     -10.844   6.447 131.045  0.00  0.00    +0.000 A 
ATOM     16  C   UNL     1     -10.540   6.338 129.708  0.00  0.00    +0.000 A 
ATOM     17  C   UNL     1     -11.411   6.939 128.811  0.00  0.00    +0.000 A 
ATOM     18  C   UNL     1     -12.660   7.432 129.226  0.00  0.00    +0.000 A 
ATOM     19 CL   UNL     1     -13.756   8.268 128.194  0.00  0.00    +0.000 Cl
ATOM     20  C   UNL     1     -13.059   7.282 130.552  0.00  0.00    +0.000 A 
ATOM     21  C   UNL     1     -12.127   6.845 131.474  0.00  0.00    +0.000 A 
BRANCH  17  22
ATOM     22  S   UNL     1     -10.805   7.200 127.184  0.00  0.00    +0.000 S 
ATOM     23  O   UNL     1     -10.719   8.620 126.992  0.00  0.00    +0.000 OA
ATOM     24  O   UNL     1      -9.659   6.326 127.001  0.00  0.00    +0.000 OA
BRANCH  22  25
ATOM     25  N   UNL     1     -12.023   6.581 126.233  0.00  0.00    +0.000 NA
ATOM     26  H   UNL     1     -12.149   5.575 126.334  0.00  0.00    +0.000 HD
ATOM     27  H   UNL     1     -12.104   6.990 125.307  0.00  0.00    +0.000 HD
ENDBRANCH  22  25
ENDBRANCH  17  22
ENDBRANCH   2  15
TORSDOF 4
ENDMDL
MODEL 3
REMARK VINA RESULT:      -8.1      4.423      6.637
REMARK  Name = Indapamide
REMARK  5 active torsions:
REMARK  status: ('A' for Active; 'I' for Inactive)
REMARK    1  A    between atoms: C_1  and  C_2
REMARK    2  A    between atoms: N_10  and  N_11
REMARK    3  A    between atoms: C_12  and  C_14
REMARK    4  A    between atoms: C_16  and  S_21
REMARK    5  A    between atoms: S_21  and  N_22
REMARK                            x       y       z     vdW  Elec       q    Type
REMARK                         _______ _______ _______ _____ _____    ______ ____
ROOT
ATOM      1  N   UNL     1      -8.696   5.510 129.726  0.00  0.00    +0.000 N 
ATOM      2  C   UNL     1      -8.593   4.234 129.167  0.00  0.00    +0.000 C 
ATOM      3  O   UNL     1      -9.273   3.211 129.201  0.00  0.00    +0.000 OA
ATOM      4  H   UNL     1      -7.923   6.159 129.611  0.00  0.00    +0.000 HD
ENDROOT
BRANCH   1  14
ATOM      5  C   UNL     1      -9.422   5.939 132.795  0.00  0.00    +0.000 C 
ATOM      6  C   UNL     1     -10.426   5.709 131.654  0.00  0.00    +0.000 C 
ATOM      7  C   UNL     1     -11.740   6.583 131.829  0.00  0.00    +0.000 C 
ATOM      8  C   UNL     1     -11.800   7.367 130.544  0.00  0.00    +0.000 A 
ATOM      9  C   UNL     1     -12.729   8.323 130.087  0.00  0.00    +0.000 A 
ATOM     10  C   UNL     1     -12.555   8.950 128.836  0.00  0.00    +0.000 A 
ATOM     11  C   UNL     1     -11.476   8.625 128.063  0.00  0.00    +0.000 A 
ATOM     12  C   UNL     1     -10.592   7.699 128.558  0.00  0.00    +0.000 A 
ATOM     13  C   UNL     1     -10.705   7.037 129.757  0.00  0.00    +0.000 A 
ATOM     14  N   UNL     1      -9.851   6.093 130.335  0.00  0.00    +0.000 N 
ENDBRANCH   1  14
BRANCH   2  15
ATOM     15  C   UNL     1      -7.437   3.861 128.394  0.00  0.00    +0.000 A 
ATOM     16  C   UNL     1      -7.437   4.085 127.037  0.00  0.00    +0.000 A 
ATOM     17  C   UNL     1      -6.297   3.717 126.335  0.00  0.00    +0.000 A 
ATOM     18  C   UNL     1      -5.116   3.352 127.004  0.00  0.00    +0.000 A 
ATOM     19 CL   UNL     1      -3.692   2.799 126.209  0.00  0.00    +0.000 Cl
ATOM     20  C   UNL     1      -5.064   3.397 128.395  0.00  0.00    +0.000 A 
ATOM     21  C   UNL     1      -6.241   3.593 129.092  0.00  0.00    +0.000 A 
BRANCH  17  22
ATOM     22  S   UNL     1      -6.461   3.570 124.594  0.00  0.00    +0.000 S 
ATOM     23  O   UNL     1      -5.540   4.501 124.007  0.00  0.00    +0.000 OA
ATOM     24  O   UNL     1      -6.437   2.153 124.272  0.00  0.00    +0.000 OA
BRANCH  22  25
ATOM     25  N   UNL     1      -8.021   4.085 124.326  0.00  0.00    +0.000 NA
ATOM     26  H   UNL     1      -8.633   3.973 125.133  0.00  0.00    +0.000 HD
ATOM     27  H   UNL     1      -8.394   3.885 123.402  0.00  0.00    +0.000 HD
ENDBRANCH  22  25
ENDBRANCH  17  22
ENDBRANCH   2  15
TORSDOF 4
ENDMDL
MODEL 4
REMARK VINA RESULT:      -8.1      1.824      2.353
REMARK  Name = Indapamide
REMARK  5 active torsions:
REMARK  status: ('A' for Active; 'I' for Inactive)
REMARK    1  A    between atoms: C_1  and  C_2
REMARK    2  A    between atoms: N_10  and  N_11
REMARK    3  A    between atoms: C_12  and  C_14
REMARK    4  A    between atoms: C_16  and  S_21
REMARK    5  A    between atoms: S_21  and  N_22
REMARK                            x       y       z     vdW  Elec       q    Type
REMARK                         _______ _______ _______ _____ _____    ______ ____
ROOT
ATOM      1  N   UNL     1      -6.533   6.861 131.484  0.00  0.00    +0.000 N 
ATOM      2  C   UNL     1      -7.481   5.990 130.943  0.00  0.00    +0.000 C 
ATOM      3  O   UNL     1      -7.438   4.904 130.368  0.00  0.00    +0.000 OA
ATOM      4  H   UNL     1      -6.840   7.766 131.831  0.00  0.00    +0.000 HD
ENDROOT
BRANCH   1  14
ATOM      5  C   UNL     1      -5.205   5.106 133.784  0.00  0.00    +0.000 C 
ATOM      6  C   UNL     1      -4.575   6.335 133.109  0.00  0.00    +0.000 C 
ATOM      7  C   UNL     1      -3.013   6.157 132.883  0.00  0.00    +0.000 C 
ATOM      8  C   UNL     1      -2.860   6.358 131.397  0.00  0.00    +0.000 A 
ATOM      9  C   UNL     1      -1.717   6.322 130.573  0.00  0.00    +0.000 A 
ATOM     10  C   UNL     1      -1.832   6.519 129.182  0.00  0.00    +0.000 A 
ATOM     11  C   UNL     1      -3.063   6.745 128.632  0.00  0.00    +0.000 A 
ATOM     12  C   UNL     1      -4.146   6.755 129.474  0.00  0.00    +0.000 A 
ATOM     13  C   UNL     1      -4.108   6.588 130.838  0.00  0.00    +0.000 A 
ATOM     14  N   UNL     1      -5.159   6.576 131.760  0.00  0.00    +0.000 N 
ENDBRANCH   1  14
BRANCH   2  15
ATOM     15  C   UNL     1      -8.877   6.341 130.925  0.00  0.00    +0.000 A 
ATOM     16  C   UNL     1      -9.531   6.433 129.718  0.00  0.00    +0.000 A 
ATOM     17  C   UNL     1     -10.877   6.766 129.752  0.00  0.00    +0.000 A 
ATOM     18  C   UNL     1     -11.594   6.780 130.961  0.00  0.00    +0.000 A 
ATOM     19 CL   UNL     1     -13.240   7.268 131.098  0.00  0.00    +0.000 Cl
ATOM     20  C   UNL     1     -10.962   6.414 132.147  0.00  0.00    +0.000 A 
ATOM     21  C   UNL     1      -9.590   6.254 132.139  0.00  0.00    +0.000 A 
BRANCH  17  22
ATOM     22  S   UNL     1     -11.585   7.327 128.247  0.00  0.00    +0.000 S 
ATOM     23  O   UNL     1     -12.691   6.458 127.955  0.00  0.00    +0.000 OA
ATOM     24  O   UNL     1     -11.741   8.767 128.349  0.00  0.00    +0.000 OA
BRANCH  22  25
ATOM     25  N   UNL     1     -10.364   7.064 127.146  0.00  0.00    +0.000 NA
ATOM     26  H   UNL     1     -10.293   6.095 126.838  0.00  0.00    +0.000 HD
ATOM     27  H   UNL     1      -9.508   7.586 127.311  0.00  0.00    +0.000 HD
ENDBRANCH  22  25
ENDBRANCH  17  22
ENDBRANCH   2  15
TORSDOF 4
ENDMDL
MODEL 5
REMARK VINA RESULT:      -8.0      2.975      3.393
REMARK  Name = Indapamide
REMARK  5 active torsions:
REMARK  status: ('A' for Active; 'I' for Inactive)
REMARK    1  A    between atoms: C_1  and  C_2
REMARK    2  A    between atoms: N_10  and  N_11
REMARK    3  A    between atoms: C_12  and  C_14
REMARK    4  A    between atoms: C_16  and  S_21
REMARK    5  A    between atoms: S_21  and  N_22
REMARK                            x       y       z     vdW  Elec       q    Type
REMARK                         _______ _______ _______ _____ _____    ______ ____
ROOT
ATOM      1  N   UNL     1      -6.784   4.985 130.184  0.00  0.00    +0.000 N 
ATOM      2  C   UNL     1      -7.323   5.898 131.093  0.00  0.00    +0.000 C 
ATOM      3  O   UNL     1      -6.898   6.504 132.075  0.00  0.00    +0.000 OA
ATOM      4  H   UNL     1      -7.399   4.553 129.500  0.00  0.00    +0.000 HD
ENDROOT
BRANCH   1  14
ATOM      5  C   UNL     1      -4.662   3.649 132.144  0.00  0.00    +0.000 C 
ATOM      6  C   UNL     1      -4.351   4.678 131.045  0.00  0.00    +0.000 C 
ATOM      7  C   UNL     1      -2.983   4.365 130.302  0.00  0.00    +0.000 C 
ATOM      8  C   UNL     1      -3.398   4.255 128.858  0.00  0.00    +0.000 A 
ATOM      9  C   UNL     1      -2.644   3.988 127.698  0.00  0.00    +0.000 A 
ATOM     10  C   UNL     1      -3.272   3.909 126.438  0.00  0.00    +0.000 A 
ATOM     11  C   UNL     1      -4.623   4.094 126.346  0.00  0.00    +0.000 A 
ATOM     12  C   UNL     1      -5.315   4.337 127.505  0.00  0.00    +0.000 A 
ATOM     13  C   UNL     1      -4.769   4.444 128.762  0.00  0.00    +0.000 A 
ATOM     14  N   UNL     1      -5.400   4.680 129.987  0.00  0.00    +0.000 N 
ENDBRANCH   1  14
BRANCH   2  15
ATOM     15  C   UNL     1      -8.714   6.264 131.030  0.00  0.00    +0.000 A 
ATOM     16  C   UNL     1      -9.329   6.353 129.803  0.00  0.00    +0.000 A 
ATOM     17  C   UNL     1     -10.672   6.701 129.793  0.00  0.00    +0.000 A 
ATOM     18  C   UNL     1     -11.426   6.733 130.979  0.00  0.00    +0.000 A 
ATOM     19 CL   UNL     1     -13.069   7.238 131.061  0.00  0.00    +0.000 Cl
ATOM     20  C   UNL     1     -10.834   6.369 132.186  0.00  0.00    +0.000 A 
ATOM     21  C   UNL     1      -9.465   6.193 132.222  0.00  0.00    +0.000 A 
BRANCH  17  22
ATOM     22  S   UNL     1     -11.327   7.258 128.262  0.00  0.00    +0.000 S 
ATOM     23  O   UNL     1     -12.507   6.481 128.004  0.00  0.00    +0.000 OA
ATOM     24  O   UNL     1     -11.353   8.710 128.302  0.00  0.00    +0.000 OA
BRANCH  22  25
ATOM     25  N   UNL     1     -10.136   6.840 127.178  0.00  0.00    +0.000 NA
ATOM     26  H   UNL     1     -10.327   7.143 126.224  0.00  0.00    +0.000 HD
ATOM     27  H   UNL     1      -9.715   5.926 127.322  0.00  0.00    +0.000 HD
ENDBRANCH  22  25
ENDBRANCH  17  22
ENDBRANCH   2  15
TORSDOF 4
ENDMDL
MODEL 6
REMARK VINA RESULT:      -8.0      8.205      9.657
REMARK  Name = Indapamide
REMARK  5 active torsions:
REMARK  status: ('A' for Active; 'I' for Inactive)
REMARK    1  A    between atoms: C_1  and  C_2
REMARK    2  A    between atoms: N_10  and  N_11
REMARK    3  A    between atoms: C_12  and  C_14
REMARK    4  A    between atoms: C_16  and  S_21
REMARK    5  A    between atoms: S_21  and  N_22
REMARK                            x       y       z     vdW  Elec       q    Type
REMARK                         _______ _______ _______ _____ _____    ______ ____
ROOT
ATOM      1  N   UNL     1      -7.213  -1.963 128.846  0.00  0.00    +0.000 N 
ATOM      2  C   UNL     1      -8.155  -2.703 128.127  0.00  0.00    +0.000 C 
ATOM      3  O   UNL     1      -8.816  -3.716 128.343  0.00  0.00    +0.000 OA
ATOM      4  H   UNL     1      -6.736  -1.195 128.383  0.00  0.00    +0.000 HD
ENDROOT
BRANCH   1  14
ATOM      5  C   UNL     1      -8.563  -0.498 131.329  0.00  0.00    +0.000 C 
ATOM      6  C   UNL     1      -7.099  -0.958 131.240  0.00  0.00    +0.000 C 
ATOM      7  C   UNL     1      -6.569  -1.537 132.620  0.00  0.00    +0.000 C 
ATOM      8  C   UNL     1      -6.108  -2.924 132.254  0.00  0.00    +0.000 A 
ATOM      9  C   UNL     1      -5.540  -3.946 133.039  0.00  0.00    +0.000 A 
ATOM     10  C   UNL     1      -5.208  -5.191 132.464  0.00  0.00    +0.000 A 
ATOM     11  C   UNL     1      -5.444  -5.402 131.134  0.00  0.00    +0.000 A 
ATOM     12  C   UNL     1      -6.012  -4.381 130.415  0.00  0.00    +0.000 A 
ATOM     13  C   UNL     1      -6.345  -3.140 130.903  0.00  0.00    +0.000 A 
ATOM     14  N   UNL     1      -6.931  -2.055 130.245  0.00  0.00    +0.000 N 
ENDBRANCH   1  14
BRANCH   2  15
ATOM     15  C   UNL     1      -8.485  -2.352 126.770  0.00  0.00    +0.000 A 
ATOM     16  C   UNL     1      -8.457  -1.029 126.394  0.00  0.00    +0.000 A 
ATOM     17  C   UNL     1      -8.775  -0.740 125.074  0.00  0.00    +0.000 A 
ATOM     18  C   UNL     1      -8.891  -1.759 124.113  0.00  0.00    +0.000 A 
ATOM     19 CL   UNL     1      -9.367  -1.492 122.480  0.00  0.00    +0.000 Cl
ATOM     20  C   UNL     1      -8.643  -3.082 124.471  0.00  0.00    +0.000 A 
ATOM     21  C   UNL     1      -8.500  -3.386 125.811  0.00  0.00    +0.000 A 
BRANCH  17  22
ATOM     22  S   UNL     1      -9.186   0.928 124.713  0.00  0.00    +0.000 S 
ATOM     23  O   UNL     1      -8.178   1.423 123.819  0.00  0.00    +0.000 OA
ATOM     24  O   UNL     1     -10.599   0.965 124.379  0.00  0.00    +0.000 OA
BRANCH  22  25
ATOM     25  N   UNL     1      -9.033   1.674 126.193  0.00  0.00    +0.000 NA
ATOM     26  H   UNL     1      -9.620   2.500 126.297  0.00  0.00    +0.000 HD
ATOM     27  H   UNL     1      -8.093   1.694 126.577  0.00  0.00    +0.000 HD
ENDBRANCH  22  25
ENDBRANCH  17  22
ENDBRANCH   2  15
TORSDOF 4
ENDMDL
MODEL 7
REMARK VINA RESULT:      -7.8      1.884      2.142
REMARK  Name = Indapamide
REMARK  5 active torsions:
REMARK  status: ('A' for Active; 'I' for Inactive)
REMARK    1  A    between atoms: C_1  and  C_2
REMARK    2  A    between atoms: N_10  and  N_11
REMARK    3  A    between atoms: C_12  and  C_14
REMARK    4  A    between atoms: C_16  and  S_21
REMARK    5  A    between atoms: S_21  and  N_22
REMARK                            x       y       z     vdW  Elec       q    Type
REMARK                         _______ _______ _______ _____ _____    ______ ____
ROOT
ATOM      1  N   UNL     1      -6.853   5.113 130.835  0.00  0.00    +0.000 N 
ATOM      2  C   UNL     1      -7.775   5.577 131.775  0.00  0.00    +0.000 C 
ATOM      3  O   UNL     1      -7.812   5.639 133.002  0.00  0.00    +0.000 OA
ATOM      4  H   UNL     1      -7.119   5.094 129.855  0.00  0.00    +0.000 HD
ENDROOT
BRANCH   1  14
ATOM      5  C   UNL     1      -5.177   2.533 130.017  0.00  0.00    +0.000 C 
ATOM      6  C   UNL     1      -4.932   3.413 131.254  0.00  0.00    +0.000 C 
ATOM      7  C   UNL     1      -3.385   3.598 131.559  0.00  0.00    +0.000 C 
ATOM      8  C   UNL     1      -3.213   5.095 131.548  0.00  0.00    +0.000 A 
ATOM      9  C   UNL     1      -2.071   5.895 131.750  0.00  0.00    +0.000 A 
ATOM     10  C   UNL     1      -2.157   7.300 131.664  0.00  0.00    +0.000 A 
ATOM     11  C   UNL     1      -3.359   7.886 131.381  0.00  0.00    +0.000 A 
ATOM     12  C   UNL     1      -4.438   7.063 131.179  0.00  0.00    +0.000 A 
ATOM     13  C   UNL     1      -4.433   5.691 131.263  0.00  0.00    +0.000 A 
ATOM     14  N   UNL     1      -5.479   4.786 131.064  0.00  0.00    +0.000 N 
ENDBRANCH   1  14
BRANCH   2  15
ATOM     15  C   UNL     1      -9.061   6.074 131.360  0.00  0.00    +0.000 A 
ATOM     16  C   UNL     1      -9.367   6.107 130.019  0.00  0.00    +0.000 A 
ATOM     17  C   UNL     1     -10.621   6.586 129.669  0.00  0.00    +0.000 A 
ATOM     18  C   UNL     1     -11.614   6.807 130.639  0.00  0.00    +0.000 A 
ATOM     19 CL   UNL     1     -13.161   7.481 130.295  0.00  0.00    +0.000 Cl
ATOM     20  C   UNL     1     -11.360   6.502 131.973  0.00  0.00    +0.000 A 
ATOM     21  C   UNL     1     -10.065   6.194 132.343  0.00  0.00    +0.000 A 
BRANCH  17  22
ATOM     22  S   UNL     1     -10.840   7.057 127.992  0.00  0.00    +0.000 S 
ATOM     23  O   UNL     1      -9.693   6.583 127.271  0.00  0.00    +0.000 OA
ATOM     24  O   UNL     1     -12.195   6.694 127.611  0.00  0.00    +0.000 OA
BRANCH  22  25
ATOM     25  N   UNL     1     -10.803   8.719 128.068  0.00  0.00    +0.000 NA
ATOM     26  H   UNL     1     -10.130   9.083 128.740  0.00  0.00    +0.000 HD
ATOM     27  H   UNL     1     -11.705   9.180 127.986  0.00  0.00    +0.000 HD
ENDBRANCH  22  25
ENDBRANCH  17  22
ENDBRANCH   2  15
TORSDOF 4
ENDMDL
MODEL 8
REMARK VINA RESULT:      -7.7      9.475     11.589
REMARK  Name = Indapamide
REMARK  5 active torsions:
REMARK  status: ('A' for Active; 'I' for Inactive)
REMARK    1  A    between atoms: C_1  and  C_2
REMARK    2  A    between atoms: N_10  and  N_11
REMARK    3  A    between atoms: C_12  and  C_14
REMARK    4  A    between atoms: C_16  and  S_21
REMARK    5  A    between atoms: S_21  and  N_22
REMARK                            x       y       z     vdW  Elec       q    Type
REMARK                         _______ _______ _______ _____ _____    ______ ____
ROOT
ATOM      1  N   UNL     1      -7.037  -1.772 127.810  0.00  0.00    +0.000 N 
ATOM      2  C   UNL     1      -7.605  -2.724 128.660  0.00  0.00    +0.000 C 
ATOM      3  O   UNL     1      -8.642  -3.384 128.659  0.00  0.00    +0.000 OA
ATOM      4  H   UNL     1      -6.186  -1.299 128.103  0.00  0.00    +0.000 HD
ENDROOT
BRANCH   1  14
ATOM      5  C   UNL     1      -8.704   0.673 126.641  0.00  0.00    +0.000 C 
ATOM      6  C   UNL     1      -8.669  -0.751 126.065  0.00  0.00    +0.000 C 
ATOM      7  C   UNL     1      -8.679  -0.755 124.477  0.00  0.00    +0.000 C 
ATOM      8  C   UNL     1      -7.433  -1.528 124.131  0.00  0.00    +0.000 A 
ATOM      9  C   UNL     1      -6.878  -1.875 122.883  0.00  0.00    +0.000 A 
ATOM     10  C   UNL     1      -5.667  -2.595 122.814  0.00  0.00    +0.000 A 
ATOM     11  C   UNL     1      -5.030  -2.955 123.968  0.00  0.00    +0.000 A 
ATOM     12  C   UNL     1      -5.603  -2.581 125.157  0.00  0.00    +0.000 A 
ATOM     13  C   UNL     1      -6.785  -1.896 125.302  0.00  0.00    +0.000 A 
ATOM     14  N   UNL     1      -7.429  -1.472 126.468  0.00  0.00    +0.000 N 
ENDBRANCH   1  14
BRANCH   2  15
ATOM     15  C   UNL     1      -6.969  -3.071 129.904  0.00  0.00    +0.000 A 
ATOM     16  C   UNL     1      -7.347  -2.420 131.055  0.00  0.00    +0.000 A 
ATOM     17  C   UNL     1      -6.712  -2.795 132.231  0.00  0.00    +0.000 A 
ATOM     18  C   UNL     1      -5.896  -3.938 132.286  0.00  0.00    +0.000 A 
ATOM     19 CL   UNL     1      -5.006  -4.418 133.680  0.00  0.00    +0.000 Cl
ATOM     20  C   UNL     1      -5.748  -4.740 131.157  0.00  0.00    +0.000 A 
ATOM     21  C   UNL     1      -6.235  -4.275 129.951  0.00  0.00    +0.000 A 
BRANCH  17  22
ATOM     22  S   UNL     1      -6.846  -1.684 133.584  0.00  0.00    +0.000 S 
ATOM     23  O   UNL     1      -7.660  -2.328 134.576  0.00  0.00    +0.000 OA
ATOM     24  O   UNL     1      -5.510  -1.196 133.879  0.00  0.00    +0.000 OA
BRANCH  22  25
ATOM     25  N   UNL     1      -7.679  -0.402 132.926  0.00  0.00    +0.000 NA
ATOM     26  H   UNL     1      -7.751  -0.439 131.910  0.00  0.00    +0.000 HD
ATOM     27  H   UNL     1      -7.516   0.498 133.369  0.00  0.00    +0.000 HD
ENDBRANCH  22  25
ENDBRANCH  17  22
ENDBRANCH   2  15
TORSDOF 4
ENDMDL
MODEL 9
REMARK VINA RESULT:      -7.7      7.069      8.853
REMARK  Name = Indapamide
REMARK  5 active torsions:
REMARK  status: ('A' for Active; 'I' for Inactive)
REMARK    1  A    between atoms: C_1  and  C_2
REMARK    2  A    between atoms: N_10  and  N_11
REMARK    3  A    between atoms: C_12  and  C_14
REMARK    4  A    between atoms: C_16  and  S_21
REMARK    5  A    between atoms: S_21  and  N_22
REMARK                            x       y       z     vdW  Elec       q    Type
REMARK                         _______ _______ _______ _____ _____    ______ ____
ROOT
ATOM      1  N   UNL     1      -8.636   0.838 126.998  0.00  0.00    +0.000 N 
ATOM      2  C   UNL     1      -7.924   0.579 128.171  0.00  0.00    +0.000 C 
ATOM      3  O   UNL     1      -7.012  -0.182 128.486  0.00  0.00    +0.000 OA
ATOM      4  H   UNL     1      -9.429   1.472 127.036  0.00  0.00    +0.000 HD
ENDROOT
BRANCH   1  14
ATOM      5  C   UNL     1      -6.311   1.830 125.064  0.00  0.00    +0.000 C 
ATOM      6  C   UNL     1      -7.683   1.293 124.624  0.00  0.00    +0.000 C 
ATOM      7  C   UNL     1      -7.583   0.394 123.319  0.00  0.00    +0.000 C 
ATOM      8  C   UNL     1      -8.194  -0.911 123.758  0.00  0.00    +0.000 A 
ATOM      9  C   UNL     1      -8.397  -2.117 123.059  0.00  0.00    +0.000 A 
ATOM     10  C   UNL     1      -8.977  -3.230 123.703  0.00  0.00    +0.000 A 
ATOM     11  C   UNL     1      -9.342  -3.133 125.016  0.00  0.00    +0.000 A 
ATOM     12  C   UNL     1      -9.110  -1.942 125.657  0.00  0.00    +0.000 A 
ATOM     13  C   UNL     1      -8.567  -0.814 125.091  0.00  0.00    +0.000 A 
ATOM     14  N   UNL     1      -8.291   0.427 125.672  0.00  0.00    +0.000 N 
ENDBRANCH   1  14
BRANCH   2  15
ATOM     15  C   UNL     1      -8.271   1.240 129.403  0.00  0.00    +0.000 A 
ATOM     16  C   UNL     1      -8.819   2.501 129.356  0.00  0.00    +0.000 A 
ATOM     17  C   UNL     1      -9.144   3.093 130.568  0.00  0.00    +0.000 A 
ATOM     18  C   UNL     1      -9.133   2.358 131.765  0.00  0.00    +0.000 A 
ATOM     19 CL   UNL     1      -9.437   3.041 133.316  0.00  0.00    +0.000 Cl
ATOM     20  C   UNL     1      -8.833   0.998 131.741  0.00  0.00    +0.000 A 
ATOM     21  C   UNL     1      -8.343   0.453 130.570  0.00  0.00    +0.000 A 
BRANCH  17  22
ATOM     22  S   UNL     1      -9.401   4.830 130.547  0.00  0.00    +0.000 S 
ATOM     23  O   UNL     1     -10.792   5.051 130.827  0.00  0.00    +0.000 OA
ATOM     24  O   UNL     1      -8.348   5.435 131.344  0.00  0.00    +0.000 OA
BRANCH  22  25
ATOM     25  N   UNL     1      -9.081   5.231 128.964  0.00  0.00    +0.000 NA
ATOM     26  H   UNL     1      -9.652   4.724 128.290  0.00  0.00    +0.000 HD
ATOM     27  H   UNL     1      -8.102   5.397 128.745  0.00  0.00    +0.000 HD
ENDBRANCH  22  25
ENDBRANCH  17  22
ENDBRANCH   2  15
TORSDOF 4
ENDMDL
