MODEL 1
REMARK VINA RESULT:      -8.2      0.000      0.000
REMARK  Name = Indacaterol
REMARK  10 active torsions:
REMARK  status: ('A' for Active; 'I' for Inactive)
REMARK    1  A    between atoms: C_1  and  C_2
REMARK    2  A    between atoms: C_2  and  C_3
REMARK    3  A    between atoms: C_4  and  C_5
REMARK    4  A    between atoms: C_5  and  C_6
REMARK    5  A    between atoms: C_10  and  N_14
REMARK    6  A    between atoms: N_14  and  C_15
REMARK    7  A    between atoms: C_15  and  C_16
REMARK    8  A    between atoms: C_16  and  O_17
REMARK    9  A    between atoms: C_16  and  C_18
REMARK   10  A    between atoms: C_26  and  O_27
REMARK                            x       y       z     vdW  Elec       q    Type
REMARK                         _______ _______ _______ _____ _____    ______ ____
ROOT
ATOM      1  C   UNL     1      -7.375   4.042 126.795  0.00  0.00    +0.000 C 
ENDROOT
BRANCH   1   2
ATOM      2  C   UNL     1      -7.215   3.638 125.300  0.00  0.00    +0.000 A 
ATOM      3  C   UNL     1      -7.989   2.680 124.561  0.00  0.00    +0.000 A 
ATOM      4  C   UNL     1      -9.139   1.882 125.049  0.00  0.00    +0.000 A 
ATOM      5  C   UNL     1     -10.178   1.599 124.265  0.00  0.00    +0.000 A 
ATOM      6  C   UNL     1      -9.759   1.122 122.936  0.00  0.00    +0.000 A 
ATOM      7  O   UNL     1     -10.430   0.300 122.350  0.00  0.00    +0.000 OA
ATOM      8  N   UNL     1      -8.551   1.575 122.471  0.00  0.00    +0.000 N 
ATOM      9  C   UNL     1      -7.714   2.454 123.190  0.00  0.00    +0.000 A 
ATOM     10  C   UNL     1      -6.656   3.110 122.563  0.00  0.00    +0.000 A 
ATOM     11  C   UNL     1      -5.895   4.034 123.263  0.00  0.00    +0.000 A 
ATOM     12  C   UNL     1      -6.170   4.295 124.607  0.00  0.00    +0.000 A 
ATOM     13  H   UNL     1      -8.290   1.186 121.582  0.00  0.00    +0.000 HD
BRANCH  10  14
ATOM     14  O   UNL     1      -6.332   2.929 121.249  0.00  0.00    +0.000 OA
ATOM     15  H   UNL     1      -5.902   3.727 120.914  0.00  0.00    +0.000 HD
ENDBRANCH  10  14
ENDBRANCH   1   2
BRANCH   1  16
ATOM     16  O   UNL     1      -8.541   4.877 126.929  0.00  0.00    +0.000 OA
ATOM     17  H   UNL     1      -8.616   5.393 126.105  0.00  0.00    +0.000 HD
ENDBRANCH   1  16
BRANCH   1  18
ATOM     18  C   UNL     1      -7.594   2.857 127.744  0.00  0.00    +0.000 C 
BRANCH  18  19
ATOM     19  N   UNL     1      -6.620   2.243 128.656  0.00  0.00    +0.000 NA
ATOM     20  H   UNL     1      -5.733   2.753 128.583  0.00  0.00    +0.000 HD
BRANCH  19  26
ATOM     21  C   UNL     1      -7.358  -2.598 125.121  0.00  0.00    +0.000 A 
ATOM     22  C   UNL     1      -6.068  -2.283 124.613  0.00  0.00    +0.000 A 
ATOM     23  C   UNL     1      -5.412  -1.148 125.150  0.00  0.00    +0.000 A 
ATOM     24  C   UNL     1      -5.994  -0.439 126.199  0.00  0.00    +0.000 A 
ATOM     25  C   UNL     1      -5.512   0.812 126.856  0.00  0.00    +0.000 C 
ATOM     26  C   UNL     1      -6.364   0.854 128.157  0.00  0.00    +0.000 C 
ATOM     27  C   UNL     1      -7.667   0.101 127.833  0.00  0.00    +0.000 C 
ATOM     28  C   UNL     1      -7.214  -0.826 126.745  0.00  0.00    +0.000 A 
ATOM     29  C   UNL     1      -7.900  -1.898 126.218  0.00  0.00    +0.000 A 
BRANCH  21  31
ATOM     30  C   UNL     1      -9.130  -2.926 123.405  0.00  0.00    +0.000 C 
ATOM     31  C   UNL     1      -8.251  -3.613 124.461  0.00  0.00    +0.000 C 
ENDBRANCH  21  31
BRANCH  22  32
ATOM     32  C   UNL     1      -5.365  -3.044 123.480  0.00  0.00    +0.000 C 
ATOM     33  C   UNL     1      -4.552  -4.324 123.745  0.00  0.00    +0.000 C 
ENDBRANCH  22  32
ENDBRANCH  19  26
ENDBRANCH  18  19
ENDBRANCH   1  18
TORSDOF 8
ENDMDL
MODEL 2
REMARK VINA RESULT:      -8.1      2.427      4.524
REMARK  Name = Indacaterol
REMARK  10 active torsions:
REMARK  status: ('A' for Active; 'I' for Inactive)
REMARK    1  A    between atoms: C_1  and  C_2
REMARK    2  A    between atoms: C_2  and  C_3
REMARK    3  A    between atoms: C_4  and  C_5
REMARK    4  A    between atoms: C_5  and  C_6
REMARK    5  A    between atoms: C_10  and  N_14
REMARK    6  A    between atoms: N_14  and  C_15
REMARK    7  A    between atoms: C_15  and  C_16
REMARK    8  A    between atoms: C_16  and  O_17
REMARK    9  A    between atoms: C_16  and  C_18
REMARK   10  A    between atoms: C_26  and  O_27
REMARK                            x       y       z     vdW  Elec       q    Type
REMARK                         _______ _______ _______ _____ _____    ______ ____
ROOT
ATOM      1  C   UNL     1      -7.305   4.146 125.275  0.00  0.00    +0.000 C 
ENDROOT
BRANCH   1   2
ATOM      2  C   UNL     1      -6.013   3.563 125.919  0.00  0.00    +0.000 A 
ATOM      3  C   UNL     1      -5.906   2.446 126.817  0.00  0.00    +0.000 A 
ATOM      4  C   UNL     1      -7.000   1.576 127.307  0.00  0.00    +0.000 A 
ATOM      5  C   UNL     1      -6.822   0.271 127.508  0.00  0.00    +0.000 A 
ATOM      6  C   UNL     1      -5.580  -0.014 128.246  0.00  0.00    +0.000 A 
ATOM      7  O   UNL     1      -5.532  -0.955 129.007  0.00  0.00    +0.000 OA
ATOM      8  N   UNL     1      -4.555   0.885 128.098  0.00  0.00    +0.000 N 
ATOM      9  C   UNL     1      -4.635   2.039 127.291  0.00  0.00    +0.000 A 
ATOM     10  C   UNL     1      -3.488   2.751 126.943  0.00  0.00    +0.000 A 
ATOM     11  C   UNL     1      -3.575   3.835 126.082  0.00  0.00    +0.000 A 
ATOM     12  C   UNL     1      -4.814   4.233 125.577  0.00  0.00    +0.000 A 
ATOM     13  H   UNL     1      -3.747   0.670 128.656  0.00  0.00    +0.000 HD
BRANCH  10  14
ATOM     14  O   UNL     1      -2.237   2.418 127.374  0.00  0.00    +0.000 OA
ATOM     15  H   UNL     1      -2.268   2.215 128.320  0.00  0.00    +0.000 HD
ENDBRANCH  10  14
ENDBRANCH   1   2
BRANCH   1  16
ATOM     16  O   UNL     1      -7.257   5.584 125.359  0.00  0.00    +0.000 OA
ATOM     17  H   UNL     1      -8.054   5.866 125.845  0.00  0.00    +0.000 HD
ENDBRANCH   1  16
BRANCH   1  18
ATOM     18  C   UNL     1      -7.466   3.816 123.786  0.00  0.00    +0.000 C 
BRANCH  18  19
ATOM     19  N   UNL     1      -8.672   3.340 123.096  0.00  0.00    +0.000 NA
ATOM     20  H   UNL     1      -9.490   3.554 123.676  0.00  0.00    +0.000 HD
BRANCH  19  26
ATOM     21  C   UNL     1      -6.698  -2.168 124.593  0.00  0.00    +0.000 A 
ATOM     22  C   UNL     1      -8.011  -2.378 125.097  0.00  0.00    +0.000 A 
ATOM     23  C   UNL     1      -8.934  -1.310 124.986  0.00  0.00    +0.000 A 
ATOM     24  C   UNL     1      -8.568  -0.141 124.320  0.00  0.00    +0.000 A 
ATOM     25  C   UNL     1      -9.354   1.118 124.151  0.00  0.00    +0.000 C 
ATOM     26  C   UNL     1      -8.574   1.847 123.019  0.00  0.00    +0.000 C 
ATOM     27  C   UNL     1      -7.121   1.351 123.120  0.00  0.00    +0.000 C 
ATOM     28  C   UNL     1      -7.308   0.002 123.748  0.00  0.00    +0.000 A 
ATOM     29  C   UNL     1      -6.371  -0.999 123.877  0.00  0.00    +0.000 A 
BRANCH  21  31
ATOM     30  C   UNL     1      -4.855  -3.494 123.572  0.00  0.00    +0.000 C 
ATOM     31  C   UNL     1      -5.570  -3.122 124.880  0.00  0.00    +0.000 C 
ENDBRANCH  21  31
BRANCH  22  32
ATOM     32  C   UNL     1      -8.478  -3.652 125.814  0.00  0.00    +0.000 C 
ATOM     33  C   UNL     1      -8.821  -3.660 127.315  0.00  0.00    +0.000 C 
ENDBRANCH  22  32
ENDBRANCH  19  26
ENDBRANCH  18  19
ENDBRANCH   1  18
TORSDOF 8
ENDMDL
MODEL 3
REMARK VINA RESULT:      -8.0      2.296      5.044
REMARK  Name = Indacaterol
REMARK  10 active torsions:
REMARK  status: ('A' for Active; 'I' for Inactive)
REMARK    1  A    between atoms: C_1  and  C_2
REMARK    2  A    between atoms: C_2  and  C_3
REMARK    3  A    between atoms: C_4  and  C_5
REMARK    4  A    between atoms: C_5  and  C_6
REMARK    5  A    between atoms: C_10  and  N_14
REMARK    6  A    between atoms: N_14  and  C_15
REMARK    7  A    between atoms: C_15  and  C_16
REMARK    8  A    between atoms: C_16  and  O_17
REMARK    9  A    between atoms: C_16  and  C_18
REMARK   10  A    between atoms: C_26  and  O_27
REMARK                            x       y       z     vdW  Elec       q    Type
REMARK                         _______ _______ _______ _____ _____    ______ ____
ROOT
ATOM      1  C   UNL     1      -9.884   0.114 123.350  0.00  0.00    +0.000 C 
ENDROOT
BRANCH   1   2
ATOM      2  C   UNL     1      -9.056   1.332 123.855  0.00  0.00    +0.000 A 
ATOM      3  C   UNL     1      -8.692   1.646 125.209  0.00  0.00    +0.000 A 
ATOM      4  C   UNL     1      -8.995   0.861 126.428  0.00  0.00    +0.000 A 
ATOM      5  C   UNL     1      -8.132   0.774 127.439  0.00  0.00    +0.000 A 
ATOM      6  C   UNL     1      -7.574   2.086 127.808  0.00  0.00    +0.000 A 
ATOM      7  O   UNL     1      -7.293   2.321 128.963  0.00  0.00    +0.000 OA
ATOM      8  N   UNL     1      -7.494   3.025 126.811  0.00  0.00    +0.000 N 
ATOM      9  C   UNL     1      -7.910   2.795 125.483  0.00  0.00    +0.000 A 
ATOM     10  C   UNL     1      -7.541   3.661 124.456  0.00  0.00    +0.000 A 
ATOM     11  C   UNL     1      -7.889   3.376 123.144  0.00  0.00    +0.000 A 
ATOM     12  C   UNL     1      -8.632   2.231 122.848  0.00  0.00    +0.000 A 
ATOM     13  H   UNL     1      -7.149   3.915 127.123  0.00  0.00    +0.000 HD
BRANCH  10  14
ATOM     14  O   UNL     1      -6.798   4.789 124.654  0.00  0.00    +0.000 OA
ATOM     15  H   UNL     1      -5.987   4.734 124.130  0.00  0.00    +0.000 HD
ENDBRANCH  10  14
ENDBRANCH   1   2
BRANCH   1  16
ATOM     16  O   UNL     1     -10.506   0.463 122.098  0.00  0.00    +0.000 OA
ATOM     17  H   UNL     1     -10.777   1.397 122.167  0.00  0.00    +0.000 HD
ENDBRANCH   1  16
BRANCH   1  18
ATOM     18  C   UNL     1      -9.046  -1.140 123.069  0.00  0.00    +0.000 C 
BRANCH  18  19
ATOM     19  N   UNL     1      -9.449  -2.544 123.222  0.00  0.00    +0.000 NA
ATOM     20  H   UNL     1     -10.436  -2.575 123.502  0.00  0.00    +0.000 HD
BRANCH  19  26
ATOM     21  C   UNL     1      -5.998  -2.400 128.177  0.00  0.00    +0.000 A 
ATOM     22  C   UNL     1      -7.144  -2.902 128.852  0.00  0.00    +0.000 A 
ATOM     23  C   UNL     1      -8.312  -3.124 128.083  0.00  0.00    +0.000 A 
ATOM     24  C   UNL     1      -8.283  -2.936 126.702  0.00  0.00    +0.000 A 
ATOM     25  C   UNL     1      -9.407  -3.045 125.725  0.00  0.00    +0.000 C 
ATOM     26  C   UNL     1      -8.657  -3.107 124.363  0.00  0.00    +0.000 C 
ATOM     27  C   UNL     1      -7.329  -2.359 124.577  0.00  0.00    +0.000 C 
ATOM     28  C   UNL     1      -7.120  -2.538 126.050  0.00  0.00    +0.000 A 
ATOM     29  C   UNL     1      -5.978  -2.268 126.773  0.00  0.00    +0.000 A 
BRANCH  21  31
ATOM     30  C   UNL     1      -3.828  -3.046 129.210  0.00  0.00    +0.000 C 
ATOM     31  C   UNL     1      -4.793  -1.887 128.919  0.00  0.00    +0.000 C 
ENDBRANCH  21  31
BRANCH  22  32
ATOM     32  C   UNL     1      -7.225  -3.156 130.363  0.00  0.00    +0.000 C 
ATOM     33  C   UNL     1      -7.513  -2.020 131.363  0.00  0.00    +0.000 C 
ENDBRANCH  22  32
ENDBRANCH  19  26
ENDBRANCH  18  19
ENDBRANCH   1  18
TORSDOF 8
ENDMDL
MODEL 4
REMARK VINA RESULT:      -8.0      2.567      5.003
REMARK  Name = Indacaterol
REMARK  10 active torsions:
REMARK  status: ('A' for Active; 'I' for Inactive)
REMARK    1  A    between atoms: C_1  and  C_2
REMARK    2  A    between atoms: C_2  and  C_3
REMARK    3  A    between atoms: C_4  and  C_5
REMARK    4  A    between atoms: C_5  and  C_6
REMARK    5  A    between atoms: C_10  and  N_14
REMARK    6  A    between atoms: N_14  and  C_15
REMARK    7  A    between atoms: C_15  and  C_16
REMARK    8  A    between atoms: C_16  and  O_17
REMARK    9  A    between atoms: C_16  and  C_18
REMARK   10  A    between atoms: C_26  and  O_27
REMARK                            x       y       z     vdW  Elec       q    Type
REMARK                         _______ _______ _______ _____ _____    ______ ____
ROOT
ATOM      1  C   UNL     1      -9.401   0.325 123.820  0.00  0.00    +0.000 C 
ENDROOT
BRANCH   1   2
ATOM      2  C   UNL     1      -8.345   1.465 123.716  0.00  0.00    +0.000 A 
ATOM      3  C   UNL     1      -7.284   1.767 124.636  0.00  0.00    +0.000 A 
ATOM      4  C   UNL     1      -6.934   1.038 125.878  0.00  0.00    +0.000 A 
ATOM      5  C   UNL     1      -5.670   0.886 126.269  0.00  0.00    +0.000 A 
ATOM      6  C   UNL     1      -4.907   2.144 126.188  0.00  0.00    +0.000 A 
ATOM      7  O   UNL     1      -4.030   2.371 126.992  0.00  0.00    +0.000 OA
ATOM      8  N   UNL     1      -5.313   3.051 125.243  0.00  0.00    +0.000 N 
ATOM      9  C   UNL     1      -6.398   2.838 124.367  0.00  0.00    +0.000 A 
ATOM     10  C   UNL     1      -6.582   3.645 123.246  0.00  0.00    +0.000 A 
ATOM     11  C   UNL     1      -7.606   3.371 122.350  0.00  0.00    +0.000 A 
ATOM     12  C   UNL     1      -8.471   2.300 122.580  0.00  0.00    +0.000 A 
ATOM     13  H   UNL     1      -4.790   3.909 125.258  0.00  0.00    +0.000 HD
BRANCH  10  14
ATOM     14  O   UNL     1      -5.771   4.698 122.936  0.00  0.00    +0.000 OA
ATOM     15  H   UNL     1      -6.189   5.520 123.229  0.00  0.00    +0.000 HD
ENDBRANCH  10  14
ENDBRANCH   1   2
BRANCH   1  16
ATOM     16  O   UNL     1     -10.563   0.697 123.055  0.00  0.00    +0.000 OA
ATOM     17  H   UNL     1     -10.796   1.607 123.317  0.00  0.00    +0.000 HD
ENDBRANCH   1  16
BRANCH   1  18
ATOM     18  C   UNL     1      -8.930  -1.018 123.247  0.00  0.00    +0.000 C 
BRANCH  18  19
ATOM     19  N   UNL     1      -9.534  -2.342 123.449  0.00  0.00    +0.000 NA
ATOM     20  H   UNL     1     -10.499  -2.219 123.773  0.00  0.00    +0.000 HD
BRANCH  19  26
ATOM     21  C   UNL     1      -5.937  -2.643 128.292  0.00  0.00    +0.000 A 
ATOM     22  C   UNL     1      -7.115  -3.003 129.003  0.00  0.00    +0.000 A 
ATOM     23  C   UNL     1      -8.325  -3.077 128.271  0.00  0.00    +0.000 A 
ATOM     24  C   UNL     1      -8.316  -2.888 126.890  0.00  0.00    +0.000 A 
ATOM     25  C   UNL     1      -9.475  -2.854 125.948  0.00  0.00    +0.000 C 
ATOM     26  C   UNL     1      -8.782  -3.003 124.563  0.00  0.00    +0.000 C 
ATOM     27  C   UNL     1      -7.366  -2.425 124.735  0.00  0.00    +0.000 C 
ATOM     28  C   UNL     1      -7.134  -2.633 126.202  0.00  0.00    +0.000 A 
ATOM     29  C   UNL     1      -5.946  -2.510 126.888  0.00  0.00    +0.000 A 
BRANCH  21  31
ATOM     30  C   UNL     1      -3.738  -3.515 129.065  0.00  0.00    +0.000 C 
ATOM     31  C   UNL     1      -4.656  -2.286 128.995  0.00  0.00    +0.000 C 
ENDBRANCH  21  31
BRANCH  22  32
ATOM     32  C   UNL     1      -7.179  -3.251 130.516  0.00  0.00    +0.000 C 
ATOM     33  C   UNL     1      -7.410  -2.103 131.517  0.00  0.00    +0.000 C 
ENDBRANCH  22  32
ENDBRANCH  19  26
ENDBRANCH  18  19
ENDBRANCH   1  18
TORSDOF 8
ENDMDL
MODEL 5
REMARK VINA RESULT:      -8.0      1.054      2.552
REMARK  Name = Indacaterol
REMARK  10 active torsions:
REMARK  status: ('A' for Active; 'I' for Inactive)
REMARK    1  A    between atoms: C_1  and  C_2
REMARK    2  A    between atoms: C_2  and  C_3
REMARK    3  A    between atoms: C_4  and  C_5
REMARK    4  A    between atoms: C_5  and  C_6
REMARK    5  A    between atoms: C_10  and  N_14
REMARK    6  A    between atoms: N_14  and  C_15
REMARK    7  A    between atoms: C_15  and  C_16
REMARK    8  A    between atoms: C_16  and  O_17
REMARK    9  A    between atoms: C_16  and  C_18
REMARK   10  A    between atoms: C_26  and  O_27
REMARK                            x       y       z     vdW  Elec       q    Type
REMARK                         _______ _______ _______ _____ _____    ______ ____
ROOT
ATOM      1  C   UNL     1      -6.498   3.488 126.538  0.00  0.00    +0.000 C 
ENDROOT
BRANCH   1   2
ATOM      2  C   UNL     1      -7.224   3.183 125.195  0.00  0.00    +0.000 A 
ATOM      3  C   UNL     1      -6.866   3.635 123.879  0.00  0.00    +0.000 A 
ATOM      4  C   UNL     1      -5.702   4.469 123.500  0.00  0.00    +0.000 A 
ATOM      5  C   UNL     1      -5.047   4.281 122.355  0.00  0.00    +0.000 A 
ATOM      6  C   UNL     1      -5.961   4.137 121.209  0.00  0.00    +0.000 A 
ATOM      7  O   UNL     1      -5.631   4.545 120.117  0.00  0.00    +0.000 OA
ATOM      8  N   UNL     1      -7.206   3.624 121.474  0.00  0.00    +0.000 N 
ATOM      9  C   UNL     1      -7.637   3.237 122.760  0.00  0.00    +0.000 A 
ATOM     10  C   UNL     1      -8.780   2.458 122.929  0.00  0.00    +0.000 A 
ATOM     11  C   UNL     1      -9.144   2.018 124.193  0.00  0.00    +0.000 A 
ATOM     12  C   UNL     1      -8.379   2.372 125.306  0.00  0.00    +0.000 A 
ATOM     13  H   UNL     1      -7.806   3.588 120.668  0.00  0.00    +0.000 HD
BRANCH  10  14
ATOM     14  O   UNL     1      -9.572   2.051 121.893  0.00  0.00    +0.000 OA
ATOM     15  H   UNL     1     -10.191   1.379 122.211  0.00  0.00    +0.000 HD
ENDBRANCH  10  14
ENDBRANCH   1   2
BRANCH   1  16
ATOM     16  O   UNL     1      -6.698   4.876 126.869  0.00  0.00    +0.000 OA
ATOM     17  H   UNL     1      -7.596   4.951 127.243  0.00  0.00    +0.000 HD
ENDBRANCH   1  16
BRANCH   1  18
ATOM     18  C   UNL     1      -7.031   2.688 127.733  0.00  0.00    +0.000 C 
BRANCH  18  19
ATOM     19  N   UNL     1      -6.255   1.946 128.736  0.00  0.00    +0.000 NA
ATOM     20  H   UNL     1      -5.323   2.368 128.811  0.00  0.00    +0.000 HD
BRANCH  19  26
ATOM     21  C   UNL     1      -7.234  -2.785 125.111  0.00  0.00    +0.000 A 
ATOM     22  C   UNL     1      -5.938  -2.511 124.593  0.00  0.00    +0.000 A 
ATOM     23  C   UNL     1      -5.230  -1.416 125.144  0.00  0.00    +0.000 A 
ATOM     24  C   UNL     1      -5.770  -0.706 126.216  0.00  0.00    +0.000 A 
ATOM     25  C   UNL     1      -5.229   0.511 126.892  0.00  0.00    +0.000 C 
ATOM     26  C   UNL     1      -6.063   0.559 128.205  0.00  0.00    +0.000 C 
ATOM     27  C   UNL     1      -7.399  -0.133 127.883  0.00  0.00    +0.000 C 
ATOM     28  C   UNL     1      -6.997  -1.055 126.770  0.00  0.00    +0.000 A 
ATOM     29  C   UNL     1      -7.733  -2.086 126.230  0.00  0.00    +0.000 A 
BRANCH  21  31
ATOM     30  C   UNL     1      -9.214  -2.974 123.616  0.00  0.00    +0.000 C 
ATOM     31  C   UNL     1      -8.175  -3.748 124.442  0.00  0.00    +0.000 C 
ENDBRANCH  21  31
BRANCH  22  32
ATOM     32  C   UNL     1      -5.282  -3.275 123.435  0.00  0.00    +0.000 C 
ATOM     33  C   UNL     1      -4.467  -4.561 123.670  0.00  0.00    +0.000 C 
ENDBRANCH  22  32
ENDBRANCH  19  26
ENDBRANCH  18  19
ENDBRANCH   1  18
TORSDOF 8
ENDMDL
MODEL 6
REMARK VINA RESULT:      -7.8      2.490      5.078
REMARK  Name = Indacaterol
REMARK  10 active torsions:
REMARK  status: ('A' for Active; 'I' for Inactive)
REMARK    1  A    between atoms: C_1  and  C_2
REMARK    2  A    between atoms: C_2  and  C_3
REMARK    3  A    between atoms: C_4  and  C_5
REMARK    4  A    between atoms: C_5  and  C_6
REMARK    5  A    between atoms: C_10  and  N_14
REMARK    6  A    between atoms: N_14  and  C_15
REMARK    7  A    between atoms: C_15  and  C_16
REMARK    8  A    between atoms: C_16  and  O_17
REMARK    9  A    between atoms: C_16  and  C_18
REMARK   10  A    between atoms: C_26  and  O_27
REMARK                            x       y       z     vdW  Elec       q    Type
REMARK                         _______ _______ _______ _____ _____    ______ ____
ROOT
ATOM      1  C   UNL     1      -7.914   3.795 125.743  0.00  0.00    +0.000 C 
ENDROOT
BRANCH   1   2
ATOM      2  C   UNL     1      -6.966   2.827 126.511  0.00  0.00    +0.000 A 
ATOM      3  C   UNL     1      -5.529   2.826 126.518  0.00  0.00    +0.000 A 
ATOM      4  C   UNL     1      -4.625   3.769 125.820  0.00  0.00    +0.000 A 
ATOM      5  C   UNL     1      -3.474   4.167 126.361  0.00  0.00    +0.000 A 
ATOM      6  C   UNL     1      -2.702   3.043 126.917  0.00  0.00    +0.000 A 
ATOM      7  O   UNL     1      -1.491   3.070 126.891  0.00  0.00    +0.000 OA
ATOM      8  N   UNL     1      -3.420   1.959 127.354  0.00  0.00    +0.000 N 
ATOM      9  C   UNL     1      -4.827   1.876 127.298  0.00  0.00    +0.000 A 
ATOM     10  C   UNL     1      -5.516   0.899 128.014  0.00  0.00    +0.000 A 
ATOM     11  C   UNL     1      -6.903   0.882 128.014  0.00  0.00    +0.000 A 
ATOM     12  C   UNL     1      -7.616   1.830 127.277  0.00  0.00    +0.000 A 
ATOM     13  H   UNL     1      -2.846   1.202 127.682  0.00  0.00    +0.000 HD
BRANCH  10  14
ATOM     14  O   UNL     1      -4.899  -0.051 128.776  0.00  0.00    +0.000 OA
ATOM     15  H   UNL     1      -4.353   0.383 129.447  0.00  0.00    +0.000 HD
ENDBRANCH  10  14
ENDBRANCH   1   2
BRANCH   1  16
ATOM     16  O   UNL     1      -7.669   5.141 126.195  0.00  0.00    +0.000 OA
ATOM     17  H   UNL     1      -7.547   5.097 127.161  0.00  0.00    +0.000 HD
ENDBRANCH   1  16
BRANCH   1  18
ATOM     18  C   UNL     1      -7.694   3.813 124.225  0.00  0.00    +0.000 C 
BRANCH  18  19
ATOM     19  N   UNL     1      -8.644   3.425 123.174  0.00  0.00    +0.000 NA
ATOM     20  H   UNL     1      -9.594   3.652 123.487  0.00  0.00    +0.000 HD
BRANCH  19  26
ATOM     21  C   UNL     1      -6.757  -2.164 124.468  0.00  0.00    +0.000 A 
ATOM     22  C   UNL     1      -8.068  -2.367 124.979  0.00  0.00    +0.000 A 
ATOM     23  C   UNL     1      -8.972  -1.279 124.912  0.00  0.00    +0.000 A 
ATOM     24  C   UNL     1      -8.592  -0.095 124.281  0.00  0.00    +0.000 A 
ATOM     25  C   UNL     1      -9.356   1.182 124.162  0.00  0.00    +0.000 C 
ATOM     26  C   UNL     1      -8.574   1.934 123.047  0.00  0.00    +0.000 C 
ATOM     27  C   UNL     1      -7.129   1.409 123.117  0.00  0.00    +0.000 C 
ATOM     28  C   UNL     1      -7.335   0.044 123.701  0.00  0.00    +0.000 A 
ATOM     29  C   UNL     1      -6.415  -0.977 123.788  0.00  0.00    +0.000 A 
BRANCH  21  31
ATOM     30  C   UNL     1      -4.718  -3.202 123.487  0.00  0.00    +0.000 C 
ATOM     31  C   UNL     1      -5.643  -3.146 124.713  0.00  0.00    +0.000 C 
ENDBRANCH  21  31
BRANCH  22  32
ATOM     32  C   UNL     1      -8.552  -3.656 125.658  0.00  0.00    +0.000 C 
ATOM     33  C   UNL     1      -8.782  -3.735 127.178  0.00  0.00    +0.000 C 
ENDBRANCH  22  32
ENDBRANCH  19  26
ENDBRANCH  18  19
ENDBRANCH   1  18
TORSDOF 8
ENDMDL
MODEL 7
REMARK VINA RESULT:      -7.7      3.270      5.421
REMARK  Name = Indacaterol
REMARK  10 active torsions:
REMARK  status: ('A' for Active; 'I' for Inactive)
REMARK    1  A    between atoms: C_1  and  C_2
REMARK    2  A    between atoms: C_2  and  C_3
REMARK    3  A    between atoms: C_4  and  C_5
REMARK    4  A    between atoms: C_5  and  C_6
REMARK    5  A    between atoms: C_10  and  N_14
REMARK    6  A    between atoms: N_14  and  C_15
REMARK    7  A    between atoms: C_15  and  C_16
REMARK    8  A    between atoms: C_16  and  O_17
REMARK    9  A    between atoms: C_16  and  C_18
REMARK   10  A    between atoms: C_26  and  O_27
REMARK                            x       y       z     vdW  Elec       q    Type
REMARK                         _______ _______ _______ _____ _____    ______ ____
ROOT
ATOM      1  C   UNL     1      -7.117  -0.415 132.010  0.00  0.00    +0.000 C 
ENDROOT
BRANCH   1   2
ATOM      2  C   UNL     1      -7.968   0.701 131.337  0.00  0.00    +0.000 A 
ATOM      3  C   UNL     1      -7.802   1.262 130.025  0.00  0.00    +0.000 A 
ATOM      4  C   UNL     1      -6.800   0.881 129.002  0.00  0.00    +0.000 A 
ATOM      5  C   UNL     1      -7.090   0.879 127.702  0.00  0.00    +0.000 A 
ATOM      6  C   UNL     1      -7.795   2.104 127.288  0.00  0.00    +0.000 A 
ATOM      7  O   UNL     1      -7.617   2.557 126.178  0.00  0.00    +0.000 OA
ATOM      8  N   UNL     1      -8.556   2.730 128.242  0.00  0.00    +0.000 N 
ATOM      9  C   UNL     1      -8.692   2.265 129.566  0.00  0.00    +0.000 A 
ATOM     10  C   UNL     1      -9.693   2.758 130.401  0.00  0.00    +0.000 A 
ATOM     11  C   UNL     1      -9.864   2.231 131.672  0.00  0.00    +0.000 A 
ATOM     12  C   UNL     1      -9.018   1.219 132.132  0.00  0.00    +0.000 A 
ATOM     13  H   UNL     1      -8.980   3.583 127.922  0.00  0.00    +0.000 HD
BRANCH  10  14
ATOM     14  O   UNL     1     -10.575   3.730 130.024  0.00  0.00    +0.000 OA
ATOM     15  H   UNL     1     -10.894   4.193 130.810  0.00  0.00    +0.000 HD
ENDBRANCH  10  14
ENDBRANCH   1   2
BRANCH   1  16
ATOM     16  O   UNL     1      -7.223  -0.282 133.441  0.00  0.00    +0.000 OA
ATOM     17  H   UNL     1      -8.019   0.254 133.616  0.00  0.00    +0.000 HD
ENDBRANCH   1  16
BRANCH   1  18
ATOM     18  C   UNL     1      -7.582  -1.840 131.684  0.00  0.00    +0.000 C 
BRANCH  18  19
ATOM     19  N   UNL     1      -6.754  -3.044 131.534  0.00  0.00    +0.000 NA
ATOM     20  H   UNL     1      -5.779  -2.802 131.742  0.00  0.00    +0.000 HD
BRANCH  19  26
ATOM     21  C   UNL     1      -7.955  -2.380 125.652  0.00  0.00    +0.000 A 
ATOM     22  C   UNL     1      -6.544  -2.323 125.486  0.00  0.00    +0.000 A 
ATOM     23  C   UNL     1      -5.743  -2.436 126.649  0.00  0.00    +0.000 A 
ATOM     24  C   UNL     1      -6.340  -2.684 127.884  0.00  0.00    +0.000 A 
ATOM     25  C   UNL     1      -5.695  -2.767 129.229  0.00  0.00    +0.000 C 
ATOM     26  C   UNL     1      -6.805  -3.436 130.089  0.00  0.00    +0.000 C 
ATOM     27  C   UNL     1      -8.141  -3.052 129.427  0.00  0.00    +0.000 C 
ATOM     28  C   UNL     1      -7.718  -2.833 128.005  0.00  0.00    +0.000 A 
ATOM     29  C   UNL     1      -8.530  -2.684 126.903  0.00  0.00    +0.000 A 
BRANCH  21  31
ATOM     30  C   UNL     1      -9.336  -3.289 123.792  0.00  0.00    +0.000 C 
ATOM     31  C   UNL     1      -8.906  -2.020 124.543  0.00  0.00    +0.000 C 
ENDBRANCH  21  31
BRANCH  22  32
ATOM     32  C   UNL     1      -5.831  -2.082 124.149  0.00  0.00    +0.000 C 
ATOM     33  C   UNL     1      -4.850  -3.109 123.555  0.00  0.00    +0.000 C 
ENDBRANCH  22  32
ENDBRANCH  19  26
ENDBRANCH  18  19
ENDBRANCH   1  18
TORSDOF 8
ENDMDL
MODEL 8
REMARK VINA RESULT:      -7.6      2.434      5.094
REMARK  Name = Indacaterol
REMARK  10 active torsions:
REMARK  status: ('A' for Active; 'I' for Inactive)
REMARK    1  A    between atoms: C_1  and  C_2
REMARK    2  A    between atoms: C_2  and  C_3
REMARK    3  A    between atoms: C_4  and  C_5
REMARK    4  A    between atoms: C_5  and  C_6
REMARK    5  A    between atoms: C_10  and  N_14
REMARK    6  A    between atoms: N_14  and  C_15
REMARK    7  A    between atoms: C_15  and  C_16
REMARK    8  A    between atoms: C_16  and  O_17
REMARK    9  A    between atoms: C_16  and  C_18
REMARK   10  A    between atoms: C_26  and  O_27
REMARK                            x       y       z     vdW  Elec       q    Type
REMARK                         _______ _______ _______ _____ _____    ______ ____
ROOT
ATOM      1  C   UNL     1      -9.638   0.144 124.177  0.00  0.00    +0.000 C 
ENDROOT
BRANCH   1   2
ATOM      2  C   UNL     1      -8.550   0.985 124.906  0.00  0.00    +0.000 A 
ATOM      3  C   UNL     1      -7.578   1.865 124.318  0.00  0.00    +0.000 A 
ATOM      4  C   UNL     1      -7.413   2.195 122.883  0.00  0.00    +0.000 A 
ATOM      5  C   UNL     1      -7.056   3.413 122.481  0.00  0.00    +0.000 A 
ATOM      6  C   UNL     1      -5.921   3.945 123.255  0.00  0.00    +0.000 A 
ATOM      7  O   UNL     1      -5.112   4.671 122.721  0.00  0.00    +0.000 OA
ATOM      8  N   UNL     1      -5.790   3.494 124.544  0.00  0.00    +0.000 N 
ATOM      9  C   UNL     1      -6.671   2.572 125.146  0.00  0.00    +0.000 A 
ATOM     10  C   UNL     1      -6.672   2.375 126.525  0.00  0.00    +0.000 A 
ATOM     11  C   UNL     1      -7.600   1.526 127.109  0.00  0.00    +0.000 A 
ATOM     12  C   UNL     1      -8.524   0.843 126.315  0.00  0.00    +0.000 A 
ATOM     13  H   UNL     1      -4.977   3.852 125.015  0.00  0.00    +0.000 HD
BRANCH  10  14
ATOM     14  O   UNL     1      -5.818   3.017 127.376  0.00  0.00    +0.000 OA
ATOM     15  H   UNL     1      -6.229   3.085 128.249  0.00  0.00    +0.000 HD
ENDBRANCH  10  14
ENDBRANCH   1   2
BRANCH   1  16
ATOM     16  O   UNL     1     -10.379   1.008 123.294  0.00  0.00    +0.000 OA
ATOM     17  H   UNL     1     -10.996   1.519 123.850  0.00  0.00    +0.000 HD
ENDBRANCH   1  16
BRANCH   1  18
ATOM     18  C   UNL     1      -9.074  -0.977 123.294  0.00  0.00    +0.000 C 
BRANCH  18  19
ATOM     19  N   UNL     1      -9.425  -2.404 123.320  0.00  0.00    +0.000 NA
ATOM     20  H   UNL     1     -10.421  -2.495 123.547  0.00  0.00    +0.000 HD
BRANCH  19  26
ATOM     21  C   UNL     1      -5.957  -2.508 128.264  0.00  0.00    +0.000 A 
ATOM     22  C   UNL     1      -7.128  -2.949 128.938  0.00  0.00    +0.000 A 
ATOM     23  C   UNL     1      -8.310  -3.096 128.171  0.00  0.00    +0.000 A 
ATOM     24  C   UNL     1      -8.274  -2.896 126.792  0.00  0.00    +0.000 A 
ATOM     25  C   UNL     1      -9.404  -2.930 125.817  0.00  0.00    +0.000 C 
ATOM     26  C   UNL     1      -8.664  -3.023 124.452  0.00  0.00    +0.000 C 
ATOM     27  C   UNL     1      -7.294  -2.356 124.669  0.00  0.00    +0.000 C 
ATOM     28  C   UNL     1      -7.091  -2.560 126.140  0.00  0.00    +0.000 A 
ATOM     29  C   UNL     1      -5.934  -2.365 126.861  0.00  0.00    +0.000 A 
BRANCH  21  31
ATOM     30  C   UNL     1      -3.755  -3.258 129.149  0.00  0.00    +0.000 C 
ATOM     31  C   UNL     1      -4.723  -2.074 129.007  0.00  0.00    +0.000 C 
ENDBRANCH  21  31
BRANCH  22  32
ATOM     32  C   UNL     1      -7.220  -3.212 130.448  0.00  0.00    +0.000 C 
ATOM     33  C   UNL     1      -7.537  -2.086 131.450  0.00  0.00    +0.000 C 
ENDBRANCH  22  32
ENDBRANCH  19  26
ENDBRANCH  18  19
ENDBRANCH   1  18
TORSDOF 8
ENDMDL
MODEL 9
REMARK VINA RESULT:      -7.4      2.567      4.941
REMARK  Name = Indacaterol
REMARK  10 active torsions:
REMARK  status: ('A' for Active; 'I' for Inactive)
REMARK    1  A    between atoms: C_1  and  C_2
REMARK    2  A    between atoms: C_2  and  C_3
REMARK    3  A    between atoms: C_4  and  C_5
REMARK    4  A    between atoms: C_5  and  C_6
REMARK    5  A    between atoms: C_10  and  N_14
REMARK    6  A    between atoms: N_14  and  C_15
REMARK    7  A    between atoms: C_15  and  C_16
REMARK    8  A    between atoms: C_16  and  O_17
REMARK    9  A    between atoms: C_16  and  C_18
REMARK   10  A    between atoms: C_26  and  O_27
REMARK                            x       y       z     vdW  Elec       q    Type
REMARK                         _______ _______ _______ _____ _____    ______ ____
ROOT
ATOM      1  C   UNL     1      -9.278   1.922 124.593  0.00  0.00    +0.000 C 
ENDROOT
BRANCH   1   2
ATOM      2  C   UNL     1      -7.912   2.234 125.271  0.00  0.00    +0.000 A 
ATOM      3  C   UNL     1      -7.556   2.062 126.652  0.00  0.00    +0.000 A 
ATOM      4  C   UNL     1      -8.403   1.516 127.739  0.00  0.00    +0.000 A 
ATOM      5  C   UNL     1      -7.895   0.763 128.713  0.00  0.00    +0.000 A 
ATOM      6  C   UNL     1      -6.660   1.338 129.274  0.00  0.00    +0.000 A 
ATOM      7  O   UNL     1      -6.402   1.186 130.448  0.00  0.00    +0.000 OA
ATOM      8  N   UNL     1      -5.905   2.116 128.433  0.00  0.00    +0.000 N 
ATOM      9  C   UNL     1      -6.248   2.381 127.091  0.00  0.00    +0.000 A 
ATOM     10  C   UNL     1      -5.317   2.921 126.206  0.00  0.00    +0.000 A 
ATOM     11  C   UNL     1      -5.645   3.099 124.870  0.00  0.00    +0.000 A 
ATOM     12  C   UNL     1      -6.919   2.760 124.410  0.00  0.00    +0.000 A 
ATOM     13  H   UNL     1      -5.098   2.520 128.875  0.00  0.00    +0.000 HD
BRANCH  10  14
ATOM     14  O   UNL     1      -4.045   3.260 126.568  0.00  0.00    +0.000 OA
ATOM     15  H   UNL     1      -4.017   4.201 126.792  0.00  0.00    +0.000 HD
ENDBRANCH  10  14
ENDBRANCH   1   2
BRANCH   1  16
ATOM     16  O   UNL     1      -9.393   2.712 123.393  0.00  0.00    +0.000 OA
ATOM     17  H   UNL     1     -10.345   2.819 123.215  0.00  0.00    +0.000 HD
ENDBRANCH   1  16
BRANCH   1  18
ATOM     18  C   UNL     1      -9.439   0.461 124.153  0.00  0.00    +0.000 C 
BRANCH  18  19
ATOM     19  N   UNL     1      -8.504  -0.347 123.359  0.00  0.00    +0.000 NA
ATOM     20  H   UNL     1      -9.035  -0.869 122.654  0.00  0.00    +0.000 HD
BRANCH  19  26
ATOM     21  C   UNL     1      -5.599  -2.327 128.270  0.00  0.00    +0.000 A 
ATOM     22  C   UNL     1      -6.857  -2.862 128.659  0.00  0.00    +0.000 A 
ATOM     23  C   UNL     1      -7.955  -2.655 127.789  0.00  0.00    +0.000 A 
ATOM     24  C   UNL     1      -7.760  -2.026 126.561  0.00  0.00    +0.000 A 
ATOM     25  C   UNL     1      -8.780  -1.649 125.536  0.00  0.00    +0.000 C 
ATOM     26  C   UNL     1      -7.902  -1.359 124.285  0.00  0.00    +0.000 C 
ATOM     27  C   UNL     1      -6.531  -0.913 124.825  0.00  0.00    +0.000 C 
ATOM     28  C   UNL     1      -6.499  -1.597 126.159  0.00  0.00    +0.000 A 
ATOM     29  C   UNL     1      -5.418  -1.742 127.000  0.00  0.00    +0.000 A 
BRANCH  21  31
ATOM     30  C   UNL     1      -3.607  -3.552 129.122  0.00  0.00    +0.000 C 
ATOM     31  C   UNL     1      -4.432  -2.259 129.217  0.00  0.00    +0.000 C 
ENDBRANCH  21  31
BRANCH  22  32
ATOM     32  C   UNL     1      -7.125  -3.589 129.985  0.00  0.00    +0.000 C 
ATOM     33  C   UNL     1      -7.443  -2.821 131.281  0.00  0.00    +0.000 C 
ENDBRANCH  22  32
ENDBRANCH  19  26
ENDBRANCH  18  19
ENDBRANCH   1  18
TORSDOF 8
ENDMDL
