MODEL 1
REMARK VINA RESULT:      -7.4      0.000      0.000
REMARK  Name = Indecainide
REMARK  8 active torsions:
REMARK  status: ('A' for Active; 'I' for Inactive)
REMARK    1  A    between atoms: C_1  and  C_2
REMARK    2  A    between atoms: C_2  and  C_3
REMARK    3  A    between atoms: C_2  and  N_4
REMARK    4  A    between atoms: N_4  and  C_5
REMARK    5  A    between atoms: C_5  and  C_6
REMARK    6  A    between atoms: C_6  and  C_7
REMARK    7  A    between atoms: C_7  and  C_8
REMARK    8  A    between atoms: C_8  and  C_9
REMARK                            x       y       z     vdW  Elec       q    Type
REMARK                         _______ _______ _______ _____ _____    ______ ____
ROOT
ATOM      1  C   UNL     1      -7.978  -0.287 126.111  0.00  0.00    +0.000 C 
ATOM      2  C   UNL     1      -8.507  -1.177 124.964  0.00  0.00    +0.000 A 
ATOM      3  C   UNL     1      -8.672  -0.852 123.623  0.00  0.00    +0.000 A 
ATOM      4  C   UNL     1      -9.153  -1.835 122.754  0.00  0.00    +0.000 A 
ATOM      5  C   UNL     1      -9.462  -3.120 123.225  0.00  0.00    +0.000 A 
ATOM      6  C   UNL     1      -9.285  -3.449 124.574  0.00  0.00    +0.000 A 
ATOM      7  C   UNL     1      -8.810  -2.473 125.440  0.00  0.00    +0.000 A 
ATOM      8  C   UNL     1      -8.537  -2.534 126.860  0.00  0.00    +0.000 A 
ATOM      9  C   UNL     1      -8.630  -3.592 127.752  0.00  0.00    +0.000 A 
ATOM     10  C   UNL     1      -8.245  -3.387 129.081  0.00  0.00    +0.000 A 
ATOM     11  C   UNL     1      -7.770  -2.138 129.508  0.00  0.00    +0.000 A 
ATOM     12  C   UNL     1      -7.704  -1.064 128.622  0.00  0.00    +0.000 A 
ATOM     13  C   UNL     1      -8.082  -1.272 127.298  0.00  0.00    +0.000 A 
ENDROOT
BRANCH   1  14
ATOM     14  C   UNL     1      -8.906   0.940 126.356  0.00  0.00    +0.000 C 
ATOM     15  N   UNL     1      -8.392   2.073 126.930  0.00  0.00    +0.000 N 
ATOM     16  O   UNL     1     -10.112   0.951 126.082  0.00  0.00    +0.000 OA
ATOM     17  H   UNL     1      -7.425   2.253 127.153  0.00  0.00    +0.000 HD
ATOM     18  H   UNL     1      -9.034   2.834 127.104  0.00  0.00    +0.000 HD
ENDBRANCH   1  14
BRANCH   1  19
ATOM     19  C   UNL     1      -6.516   0.122 125.815  0.00  0.00    +0.000 C 
BRANCH  19  20
ATOM     20  C   UNL     1      -5.450  -0.873 126.245  0.00  0.00    +0.000 C 
BRANCH  20  21
ATOM     21  C   UNL     1      -4.983  -1.621 125.024  0.00  0.00    +0.000 C 
BRANCH  21  22
ATOM     22  N   UNL     1      -5.308  -3.026 125.200  0.00  0.00    +0.000 NA
ATOM     23  H   UNL     1      -4.551  -3.494 125.702  0.00  0.00    +0.000 HD
BRANCH  22  25
ATOM     24  C   UNL     1      -5.536  -2.599 122.833  0.00  0.00    +0.000 C 
ATOM     25  C   UNL     1      -5.541  -3.673 123.913  0.00  0.00    +0.000 C 
ATOM     26  C   UNL     1      -4.453  -4.707 123.621  0.00  0.00    +0.000 C 
ENDBRANCH  22  25
ENDBRANCH  21  22
ENDBRANCH  20  21
ENDBRANCH  19  20
ENDBRANCH   1  19
TORSDOF 6
ENDMDL
MODEL 2
REMARK VINA RESULT:      -7.2      2.069      5.004
REMARK  Name = Indecainide
REMARK  8 active torsions:
REMARK  status: ('A' for Active; 'I' for Inactive)
REMARK    1  A    between atoms: C_1  and  C_2
REMARK    2  A    between atoms: C_2  and  C_3
REMARK    3  A    between atoms: C_2  and  N_4
REMARK    4  A    between atoms: N_4  and  C_5
REMARK    5  A    between atoms: C_5  and  C_6
REMARK    6  A    between atoms: C_6  and  C_7
REMARK    7  A    between atoms: C_7  and  C_8
REMARK    8  A    between atoms: C_8  and  C_9
REMARK                            x       y       z     vdW  Elec       q    Type
REMARK                         _______ _______ _______ _____ _____    ______ ____
ROOT
ATOM      1  C   UNL     1      -7.232  -0.813 126.011  0.00  0.00    +0.000 C 
ATOM      2  C   UNL     1      -7.651  -1.734 127.179  0.00  0.00    +0.000 A 
ATOM      3  C   UNL     1      -7.354  -1.606 128.531  0.00  0.00    +0.000 A 
ATOM      4  C   UNL     1      -7.862  -2.558 129.417  0.00  0.00    +0.000 A 
ATOM      5  C   UNL     1      -8.654  -3.620 128.954  0.00  0.00    +0.000 A 
ATOM      6  C   UNL     1      -8.960  -3.742 127.593  0.00  0.00    +0.000 A 
ATOM      7  C   UNL     1      -8.454  -2.799 126.710  0.00  0.00    +0.000 A 
ATOM      8  C   UNL     1      -8.608  -2.681 125.276  0.00  0.00    +0.000 A 
ATOM      9  C   UNL     1      -9.337  -3.450 124.381  0.00  0.00    +0.000 A 
ATOM     10  C   UNL     1      -9.357  -3.076 123.033  0.00  0.00    +0.000 A 
ATOM     11  C   UNL     1      -8.657  -1.944 122.590  0.00  0.00    +0.000 A 
ATOM     12  C   UNL     1      -7.898  -1.187 123.481  0.00  0.00    +0.000 A 
ATOM     13  C   UNL     1      -7.885  -1.557 124.823  0.00  0.00    +0.000 A 
ENDROOT
BRANCH   1  14
ATOM     14  C   UNL     1      -5.685  -0.783 125.833  0.00  0.00    +0.000 C 
ATOM     15  N   UNL     1      -4.968   0.274 126.330  0.00  0.00    +0.000 N 
ATOM     16  O   UNL     1      -5.048  -1.660 125.238  0.00  0.00    +0.000 OA
ATOM     17  H   UNL     1      -5.321   1.033 126.893  0.00  0.00    +0.000 HD
ATOM     18  H   UNL     1      -3.972   0.274 126.164  0.00  0.00    +0.000 HD
ENDBRANCH   1  14
BRANCH   1  19
ATOM     19  C   UNL     1      -7.836   0.595 126.223  0.00  0.00    +0.000 C 
BRANCH  19  20
ATOM     20  C   UNL     1      -9.346   0.698 126.078  0.00  0.00    +0.000 C 
BRANCH  20  21
ATOM     21  C   UNL     1      -9.648   1.579 124.895  0.00  0.00    +0.000 C 
BRANCH  21  22
ATOM     22  N   UNL     1      -8.826   2.772 124.994  0.00  0.00    +0.000 NA
ATOM     23  H   UNL     1      -9.378   3.539 125.383  0.00  0.00    +0.000 HD
BRANCH  22  25
ATOM     24  C   UNL     1      -6.797   2.827 123.684  0.00  0.00    +0.000 C 
ATOM     25  C   UNL     1      -8.287   3.145 123.691  0.00  0.00    +0.000 C 
ATOM     26  C   UNL     1      -8.986   2.371 122.572  0.00  0.00    +0.000 C 
ENDBRANCH  22  25
ENDBRANCH  21  22
ENDBRANCH  20  21
ENDBRANCH  19  20
ENDBRANCH   1  19
TORSDOF 6
ENDMDL
MODEL 3
REMARK VINA RESULT:      -6.6      3.620      5.257
REMARK  Name = Indecainide
REMARK  8 active torsions:
REMARK  status: ('A' for Active; 'I' for Inactive)
REMARK    1  A    between atoms: C_1  and  C_2
REMARK    2  A    between atoms: C_2  and  C_3
REMARK    3  A    between atoms: C_2  and  N_4
REMARK    4  A    between atoms: N_4  and  C_5
REMARK    5  A    between atoms: C_5  and  C_6
REMARK    6  A    between atoms: C_6  and  C_7
REMARK    7  A    between atoms: C_7  and  C_8
REMARK    8  A    between atoms: C_8  and  C_9
REMARK                            x       y       z     vdW  Elec       q    Type
REMARK                         _______ _______ _______ _____ _____    ______ ____
ROOT
ATOM      1  C   UNL     1      -8.041   1.082 124.325  0.00  0.00    +0.000 C 
ATOM      2  C   UNL     1      -7.303  -0.252 124.071  0.00  0.00    +0.000 A 
ATOM      3  C   UNL     1      -7.552  -1.204 123.090  0.00  0.00    +0.000 A 
ATOM      4  C   UNL     1      -6.735  -2.337 123.039  0.00  0.00    +0.000 A 
ATOM      5  C   UNL     1      -5.688  -2.508 123.957  0.00  0.00    +0.000 A 
ATOM      6  C   UNL     1      -5.433  -1.543 124.938  0.00  0.00    +0.000 A 
ATOM      7  C   UNL     1      -6.244  -0.418 124.993  0.00  0.00    +0.000 A 
ATOM      8  C   UNL     1      -6.210   0.720 125.886  0.00  0.00    +0.000 A 
ATOM      9  C   UNL     1      -5.332   1.032 126.914  0.00  0.00    +0.000 A 
ATOM     10  C   UNL     1      -5.498   2.244 127.594  0.00  0.00    +0.000 A 
ATOM     11  C   UNL     1      -6.527   3.130 127.245  0.00  0.00    +0.000 A 
ATOM     12  C   UNL     1      -7.429   2.805 126.233  0.00  0.00    +0.000 A 
ATOM     13  C   UNL     1      -7.260   1.602 125.554  0.00  0.00    +0.000 A 
ENDROOT
BRANCH   1  14
ATOM     14  C   UNL     1      -9.533   0.848 124.704  0.00  0.00    +0.000 C 
ATOM     15  N   UNL     1     -10.505   1.640 124.150  0.00  0.00    +0.000 N 
ATOM     16  O   UNL     1      -9.906  -0.013 125.510  0.00  0.00    +0.000 OA
ATOM     17  H   UNL     1     -10.379   2.338 123.433  0.00  0.00    +0.000 HD
ATOM     18  H   UNL     1     -11.456   1.478 124.448  0.00  0.00    +0.000 HD
ENDBRANCH   1  14
BRANCH   1  19
ATOM     19  C   UNL     1      -7.876   2.005 123.094  0.00  0.00    +0.000 C 
BRANCH  19  20
ATOM     20  C   UNL     1      -6.446   2.344 122.706  0.00  0.00    +0.000 C 
BRANCH  20  21
ATOM     21  C   UNL     1      -6.404   3.785 122.270  0.00  0.00    +0.000 C 
BRANCH  21  22
ATOM     22  N   UNL     1      -7.335   3.954 121.168  0.00  0.00    +0.000 NA
ATOM     23  H   UNL     1      -8.010   3.187 121.167  0.00  0.00    +0.000 HD
BRANCH  22  25
ATOM     24  C   UNL     1      -7.610   4.486 118.827  0.00  0.00    +0.000 C 
ATOM     25  C   UNL     1      -6.629   4.010 119.892  0.00  0.00    +0.000 C 
ATOM     26  C   UNL     1      -5.443   4.971 119.970  0.00  0.00    +0.000 C 
ENDBRANCH  22  25
ENDBRANCH  21  22
ENDBRANCH  20  21
ENDBRANCH  19  20
ENDBRANCH   1  19
TORSDOF 6
ENDMDL
MODEL 4
REMARK VINA RESULT:      -6.6      2.210      3.429
REMARK  Name = Indecainide
REMARK  8 active torsions:
REMARK  status: ('A' for Active; 'I' for Inactive)
REMARK    1  A    between atoms: C_1  and  C_2
REMARK    2  A    between atoms: C_2  and  C_3
REMARK    3  A    between atoms: C_2  and  N_4
REMARK    4  A    between atoms: N_4  and  C_5
REMARK    5  A    between atoms: C_5  and  C_6
REMARK    6  A    between atoms: C_6  and  C_7
REMARK    7  A    between atoms: C_7  and  C_8
REMARK    8  A    between atoms: C_8  and  C_9
REMARK                            x       y       z     vdW  Elec       q    Type
REMARK                         _______ _______ _______ _____ _____    ______ ____
ROOT
ATOM      1  C   UNL     1      -7.783  -0.285 126.297  0.00  0.00    +0.000 C 
ATOM      2  C   UNL     1      -8.319  -1.104 125.102  0.00  0.00    +0.000 A 
ATOM      3  C   UNL     1      -8.419  -0.725 123.768  0.00  0.00    +0.000 A 
ATOM      4  C   UNL     1      -8.922  -1.650 122.850  0.00  0.00    +0.000 A 
ATOM      5  C   UNL     1      -9.318  -2.931 123.263  0.00  0.00    +0.000 A 
ATOM      6  C   UNL     1      -9.207  -3.314 124.605  0.00  0.00    +0.000 A 
ATOM      7  C   UNL     1      -8.710  -2.397 125.520  0.00  0.00    +0.000 A 
ATOM      8  C   UNL     1      -8.490  -2.521 126.946  0.00  0.00    +0.000 A 
ATOM      9  C   UNL     1      -8.673  -3.602 127.796  0.00  0.00    +0.000 A 
ATOM     10  C   UNL     1      -8.324  -3.464 129.144  0.00  0.00    +0.000 A 
ATOM     11  C   UNL     1      -7.796  -2.259 129.630  0.00  0.00    +0.000 A 
ATOM     12  C   UNL     1      -7.641  -1.161 128.786  0.00  0.00    +0.000 A 
ATOM     13  C   UNL     1      -7.982  -1.302 127.443  0.00  0.00    +0.000 A 
ENDROOT
BRANCH   1  14
ATOM     14  C   UNL     1      -8.650   0.984 126.555  0.00  0.00    +0.000 C 
ATOM     15  N   UNL     1      -8.665   1.551 127.802  0.00  0.00    +0.000 N 
ATOM     16  O   UNL     1      -9.361   1.512 125.692  0.00  0.00    +0.000 OA
ATOM     17  H   UNL     1      -8.098   1.287 128.593  0.00  0.00    +0.000 HD
ATOM     18  H   UNL     1      -9.266   2.351 127.937  0.00  0.00    +0.000 HD
ENDBRANCH   1  14
BRANCH   1  19
ATOM     19  C   UNL     1      -6.290   0.050 126.064  0.00  0.00    +0.000 C 
BRANCH  19  20
ATOM     20  C   UNL     1      -5.983   1.496 125.708  0.00  0.00    +0.000 C 
BRANCH  20  21
ATOM     21  C   UNL     1      -5.195   2.103 126.838  0.00  0.00    +0.000 C 
BRANCH  21  22
ATOM     22  N   UNL     1      -3.782   1.939 126.546  0.00  0.00    +0.000 NA
ATOM     23  H   UNL     1      -3.457   1.041 126.911  0.00  0.00    +0.000 HD
BRANCH  22  25
ATOM     24  C   UNL     1      -1.608   2.994 126.496  0.00  0.00    +0.000 C 
ATOM     25  C   UNL     1      -3.000   3.031 127.116  0.00  0.00    +0.000 C 
ATOM     26  C   UNL     1      -3.659   4.380 126.828  0.00  0.00    +0.000 C 
ENDBRANCH  22  25
ENDBRANCH  21  22
ENDBRANCH  20  21
ENDBRANCH  19  20
ENDBRANCH   1  19
TORSDOF 6
ENDMDL
MODEL 5
REMARK VINA RESULT:      -6.4      2.269      4.705
REMARK  Name = Indecainide
REMARK  8 active torsions:
REMARK  status: ('A' for Active; 'I' for Inactive)
REMARK    1  A    between atoms: C_1  and  C_2
REMARK    2  A    between atoms: C_2  and  C_3
REMARK    3  A    between atoms: C_2  and  N_4
REMARK    4  A    between atoms: N_4  and  C_5
REMARK    5  A    between atoms: C_5  and  C_6
REMARK    6  A    between atoms: C_6  and  C_7
REMARK    7  A    between atoms: C_7  and  C_8
REMARK    8  A    between atoms: C_8  and  C_9
REMARK                            x       y       z     vdW  Elec       q    Type
REMARK                         _______ _______ _______ _____ _____    ______ ____
ROOT
ATOM      1  C   UNL     1      -7.831  -1.715 126.022  0.00  0.00    +0.000 C 
ATOM      2  C   UNL     1      -8.413  -0.473 125.311  0.00  0.00    +0.000 A 
ATOM      3  C   UNL     1      -9.329   0.453 125.799  0.00  0.00    +0.000 A 
ATOM      4  C   UNL     1      -9.700   1.519 124.975  0.00  0.00    +0.000 A 
ATOM      5  C   UNL     1      -9.162   1.652 123.686  0.00  0.00    +0.000 A 
ATOM      6  C   UNL     1      -8.233   0.724 123.201  0.00  0.00    +0.000 A 
ATOM      7  C   UNL     1      -7.864  -0.338 124.015  0.00  0.00    +0.000 A 
ATOM      8  C   UNL     1      -6.941  -1.426 123.776  0.00  0.00    +0.000 A 
ATOM      9  C   UNL     1      -6.130  -1.697 122.683  0.00  0.00    +0.000 A 
ATOM     10  C   UNL     1      -5.278  -2.805 122.736  0.00  0.00    +0.000 A 
ATOM     11  C   UNL     1      -5.238  -3.628 123.871  0.00  0.00    +0.000 A 
ATOM     12  C   UNL     1      -6.074  -3.377 124.958  0.00  0.00    +0.000 A 
ATOM     13  C   UNL     1      -6.917  -2.270 124.906  0.00  0.00    +0.000 A 
ENDROOT
BRANCH   1  14
ATOM     14  C   UNL     1      -8.943  -2.752 126.363  0.00  0.00    +0.000 C 
ATOM     15  N   UNL     1      -8.812  -3.544 127.473  0.00  0.00    +0.000 N 
ATOM     16  O   UNL     1      -9.950  -2.928 125.666  0.00  0.00    +0.000 OA
ATOM     17  H   UNL     1      -8.091  -3.485 128.176  0.00  0.00    +0.000 HD
ATOM     18  H   UNL     1      -9.537  -4.228 127.640  0.00  0.00    +0.000 HD
ENDBRANCH   1  14
BRANCH   1  19
ATOM     19  C   UNL     1      -7.031  -1.269 127.268  0.00  0.00    +0.000 C 
BRANCH  19  20
ATOM     20  C   UNL     1      -5.689  -0.609 126.992  0.00  0.00    +0.000 C 
BRANCH  20  21
ATOM     21  C   UNL     1      -5.725   0.787 127.555  0.00  0.00    +0.000 C 
BRANCH  21  22
ATOM     22  N   UNL     1      -4.565   1.507 127.060  0.00  0.00    +0.000 NA
ATOM     23  H   UNL     1      -3.881   1.616 127.811  0.00  0.00    +0.000 HD
BRANCH  22  25
ATOM     24  C   UNL     1      -3.673   3.580 126.196  0.00  0.00    +0.000 C 
ATOM     25  C   UNL     1      -4.946   2.810 126.527  0.00  0.00    +0.000 C 
ATOM     26  C   UNL     1      -5.799   2.654 125.268  0.00  0.00    +0.000 C 
ENDBRANCH  22  25
ENDBRANCH  21  22
ENDBRANCH  20  21
ENDBRANCH  19  20
ENDBRANCH   1  19
TORSDOF 6
ENDMDL
MODEL 6
REMARK VINA RESULT:      -6.1      2.719      4.184
REMARK  Name = Indecainide
REMARK  8 active torsions:
REMARK  status: ('A' for Active; 'I' for Inactive)
REMARK    1  A    between atoms: C_1  and  C_2
REMARK    2  A    between atoms: C_2  and  C_3
REMARK    3  A    between atoms: C_2  and  N_4
REMARK    4  A    between atoms: N_4  and  C_5
REMARK    5  A    between atoms: C_5  and  C_6
REMARK    6  A    between atoms: C_6  and  C_7
REMARK    7  A    between atoms: C_7  and  C_8
REMARK    8  A    between atoms: C_8  and  C_9
REMARK                            x       y       z     vdW  Elec       q    Type
REMARK                         _______ _______ _______ _____ _____    ______ ____
ROOT
ATOM      1  C   UNL     1      -7.590   0.322 125.590  0.00  0.00    +0.000 C 
ATOM      2  C   UNL     1      -6.934  -0.713 124.649  0.00  0.00    +0.000 A 
ATOM      3  C   UNL     1      -6.806  -0.665 123.266  0.00  0.00    +0.000 A 
ATOM      4  C   UNL     1      -6.150  -1.717 122.622  0.00  0.00    +0.000 A 
ATOM      5  C   UNL     1      -5.631  -2.796 123.353  0.00  0.00    +0.000 A 
ATOM      6  C   UNL     1      -5.752  -2.837 124.747  0.00  0.00    +0.000 A 
ATOM      7  C   UNL     1      -6.406  -1.795 125.390  0.00  0.00    +0.000 A 
ATOM      8  C   UNL     1      -6.671  -1.581 126.797  0.00  0.00    +0.000 A 
ATOM      9  C   UNL     1      -6.312  -2.333 127.907  0.00  0.00    +0.000 A 
ATOM     10  C   UNL     1      -6.656  -1.860 129.178  0.00  0.00    +0.000 A 
ATOM     11  C   UNL     1      -7.347  -0.649 129.333  0.00  0.00    +0.000 A 
ATOM     12  C   UNL     1      -7.737   0.092 128.219  0.00  0.00    +0.000 A 
ATOM     13  C   UNL     1      -7.388  -0.376 126.955  0.00  0.00    +0.000 A 
ENDROOT
BRANCH   1  14
ATOM     14  C   UNL     1      -9.111   0.479 125.294  0.00  0.00    +0.000 C 
ATOM     15  N   UNL     1      -9.585   1.666 124.797  0.00  0.00    +0.000 N 
ATOM     16  O   UNL     1      -9.944  -0.410 125.505  0.00  0.00    +0.000 OA
ATOM     17  H   UNL     1      -9.037   2.462 124.510  0.00  0.00    +0.000 HD
ATOM     18  H   UNL     1     -10.581   1.739 124.651  0.00  0.00    +0.000 HD
ENDBRANCH   1  14
BRANCH   1  19
ATOM     19  C   UNL     1      -6.823   1.662 125.499  0.00  0.00    +0.000 C 
BRANCH  19  20
ATOM     20  C   UNL     1      -5.371   1.627 125.947  0.00  0.00    +0.000 C 
BRANCH  20  21
ATOM     21  C   UNL     1      -4.806   3.017 125.827  0.00  0.00    +0.000 C 
BRANCH  21  22
ATOM     22  N   UNL     1      -4.239   3.389 127.111  0.00  0.00    +0.000 NA
ATOM     23  H   UNL     1      -4.894   3.991 127.615  0.00  0.00    +0.000 HD
BRANCH  22  25
ATOM     24  C   UNL     1      -2.630   4.797 128.236  0.00  0.00    +0.000 C 
ATOM     25  C   UNL     1      -2.957   4.065 126.941  0.00  0.00    +0.000 C 
ATOM     26  C   UNL     1      -1.851   3.059 126.620  0.00  0.00    +0.000 C 
ENDBRANCH  22  25
ENDBRANCH  21  22
ENDBRANCH  20  21
ENDBRANCH  19  20
ENDBRANCH   1  19
TORSDOF 6
ENDMDL
MODEL 7
REMARK VINA RESULT:      -6.1      2.364      5.865
REMARK  Name = Indecainide
REMARK  8 active torsions:
REMARK  status: ('A' for Active; 'I' for Inactive)
REMARK    1  A    between atoms: C_1  and  C_2
REMARK    2  A    between atoms: C_2  and  C_3
REMARK    3  A    between atoms: C_2  and  N_4
REMARK    4  A    between atoms: N_4  and  C_5
REMARK    5  A    between atoms: C_5  and  C_6
REMARK    6  A    between atoms: C_6  and  C_7
REMARK    7  A    between atoms: C_7  and  C_8
REMARK    8  A    between atoms: C_8  and  C_9
REMARK                            x       y       z     vdW  Elec       q    Type
REMARK                         _______ _______ _______ _____ _____    ______ ____
ROOT
ATOM      1  C   UNL     1      -7.668  -0.457 126.287  0.00  0.00    +0.000 C 
ATOM      2  C   UNL     1      -7.901  -1.491 127.411  0.00  0.00    +0.000 A 
ATOM      3  C   UNL     1      -7.620  -1.373 128.767  0.00  0.00    +0.000 A 
ATOM      4  C   UNL     1      -7.938  -2.442 129.608  0.00  0.00    +0.000 A 
ATOM      5  C   UNL     1      -8.528  -3.607 129.097  0.00  0.00    +0.000 A 
ATOM      6  C   UNL     1      -8.820  -3.721 127.732  0.00  0.00    +0.000 A 
ATOM      7  C   UNL     1      -8.502  -2.662 126.893  0.00  0.00    +0.000 A 
ATOM      8  C   UNL     1      -8.688  -2.509 125.466  0.00  0.00    +0.000 A 
ATOM      9  C   UNL     1      -9.274  -3.356 124.537  0.00  0.00    +0.000 A 
ATOM     10  C   UNL     1      -9.374  -2.930 123.208  0.00  0.00    +0.000 A 
ATOM     11  C   UNL     1      -8.895  -1.670 122.818  0.00  0.00    +0.000 A 
ATOM     12  C   UNL     1      -8.279  -0.830 123.743  0.00  0.00    +0.000 A 
ATOM     13  C   UNL     1      -8.185  -1.252 125.066  0.00  0.00    +0.000 A 
ENDROOT
BRANCH   1  14
ATOM     14  C   UNL     1      -6.154  -0.137 126.110  0.00  0.00    +0.000 C 
ATOM     15  N   UNL     1      -5.771   1.108 125.685  0.00  0.00    +0.000 N 
ATOM     16  O   UNL     1      -5.254  -0.961 126.309  0.00  0.00    +0.000 OA
ATOM     17  H   UNL     1      -6.368   1.908 125.541  0.00  0.00    +0.000 HD
ATOM     18  H   UNL     1      -4.782   1.265 125.549  0.00  0.00    +0.000 HD
ENDBRANCH   1  14
BRANCH   1  19
ATOM     19  C   UNL     1      -8.516   0.807 126.564  0.00  0.00    +0.000 C 
BRANCH  19  20
ATOM     20  C   UNL     1      -8.500   1.314 127.997  0.00  0.00    +0.000 C 
BRANCH  20  21
ATOM     21  C   UNL     1      -7.937   2.711 127.998  0.00  0.00    +0.000 C 
BRANCH  21  22
ATOM     22  N   UNL     1      -8.893   3.586 128.652  0.00  0.00    +0.000 NA
ATOM     23  H   UNL     1      -8.556   4.550 128.619  0.00  0.00    +0.000 HD
BRANCH  22  25
ATOM     24  C   UNL     1      -8.118   3.910 130.918  0.00  0.00    +0.000 C 
ATOM     25  C   UNL     1      -9.118   3.174 130.034  0.00  0.00    +0.000 C 
ATOM     26  C   UNL     1     -10.543   3.509 130.475  0.00  0.00    +0.000 C 
ENDBRANCH  22  25
ENDBRANCH  21  22
ENDBRANCH  20  21
ENDBRANCH  19  20
ENDBRANCH   1  19
TORSDOF 6
ENDMDL
MODEL 8
REMARK VINA RESULT:      -6.1      2.857      5.592
REMARK  Name = Indecainide
REMARK  8 active torsions:
REMARK  status: ('A' for Active; 'I' for Inactive)
REMARK    1  A    between atoms: C_1  and  C_2
REMARK    2  A    between atoms: C_2  and  C_3
REMARK    3  A    between atoms: C_2  and  N_4
REMARK    4  A    between atoms: N_4  and  C_5
REMARK    5  A    between atoms: C_5  and  C_6
REMARK    6  A    between atoms: C_6  and  C_7
REMARK    7  A    between atoms: C_7  and  C_8
REMARK    8  A    between atoms: C_8  and  C_9
REMARK                            x       y       z     vdW  Elec       q    Type
REMARK                         _______ _______ _______ _____ _____    ______ ____
ROOT
ATOM      1  C   UNL     1      -7.541   1.014 123.819  0.00  0.00    +0.000 C 
ATOM      2  C   UNL     1      -7.288   1.067 125.342  0.00  0.00    +0.000 A 
ATOM      3  C   UNL     1      -7.721   0.180 126.322  0.00  0.00    +0.000 A 
ATOM      4  C   UNL     1      -7.350   0.421 127.647  0.00  0.00    +0.000 A 
ATOM      5  C   UNL     1      -6.560   1.531 127.982  0.00  0.00    +0.000 A 
ATOM      6  C   UNL     1      -6.117   2.417 126.993  0.00  0.00    +0.000 A 
ATOM      7  C   UNL     1      -6.486   2.182 125.675  0.00  0.00    +0.000 A 
ATOM      8  C   UNL     1      -6.177   2.921 124.470  0.00  0.00    +0.000 A 
ATOM      9  C   UNL     1      -5.390   4.048 124.280  0.00  0.00    +0.000 A 
ATOM     10  C   UNL     1      -5.212   4.532 122.979  0.00  0.00    +0.000 A 
ATOM     11  C   UNL     1      -5.812   3.892 121.885  0.00  0.00    +0.000 A 
ATOM     12  C   UNL     1      -6.628   2.778 122.076  0.00  0.00    +0.000 A 
ATOM     13  C   UNL     1      -6.799   2.294 123.370  0.00  0.00    +0.000 A 
ENDROOT
BRANCH   1  14
ATOM     14  C   UNL     1      -9.058   1.135 123.487  0.00  0.00    +0.000 C 
ATOM     15  N   UNL     1      -9.788   2.164 124.024  0.00  0.00    +0.000 N 
ATOM     16  O   UNL     1      -9.668   0.331 122.772  0.00  0.00    +0.000 OA
ATOM     17  H   UNL     1      -9.436   2.935 124.569  0.00  0.00    +0.000 HD
ATOM     18  H   UNL     1     -10.776   2.186 123.813  0.00  0.00    +0.000 HD
ENDBRANCH   1  14
BRANCH   1  19
ATOM     19  C   UNL     1      -6.903  -0.268 123.234  0.00  0.00    +0.000 C 
BRANCH  19  20
ATOM     20  C   UNL     1      -6.335  -1.248 124.248  0.00  0.00    +0.000 C 
BRANCH  20  21
ATOM     21  C   UNL     1      -6.593  -2.645 123.751  0.00  0.00    +0.000 C 
BRANCH  21  22
ATOM     22  N   UNL     1      -7.460  -3.315 124.705  0.00  0.00    +0.000 NA
ATOM     23  H   UNL     1      -7.482  -4.316 124.506  0.00  0.00    +0.000 HD
BRANCH  22  25
ATOM     24  C   UNL     1      -9.550  -3.394 123.496  0.00  0.00    +0.000 C 
ATOM     25  C   UNL     1      -8.808  -2.759 124.666  0.00  0.00    +0.000 C 
ATOM     26  C   UNL     1      -9.553  -3.047 125.970  0.00  0.00    +0.000 C 
ENDBRANCH  22  25
ENDBRANCH  21  22
ENDBRANCH  20  21
ENDBRANCH  19  20
ENDBRANCH   1  19
TORSDOF 6
ENDMDL
MODEL 9
REMARK VINA RESULT:      -6.1      2.022      3.153
REMARK  Name = Indecainide
REMARK  8 active torsions:
REMARK  status: ('A' for Active; 'I' for Inactive)
REMARK    1  A    between atoms: C_1  and  C_2
REMARK    2  A    between atoms: C_2  and  C_3
REMARK    3  A    between atoms: C_2  and  N_4
REMARK    4  A    between atoms: N_4  and  C_5
REMARK    5  A    between atoms: C_5  and  C_6
REMARK    6  A    between atoms: C_6  and  C_7
REMARK    7  A    between atoms: C_7  and  C_8
REMARK    8  A    between atoms: C_8  and  C_9
REMARK                            x       y       z     vdW  Elec       q    Type
REMARK                         _______ _______ _______ _____ _____    ______ ____
ROOT
ATOM      1  C   UNL     1      -7.830  -0.199 126.326  0.00  0.00    +0.000 C 
ATOM      2  C   UNL     1      -8.380  -1.058 125.166  0.00  0.00    +0.000 A 
ATOM      3  C   UNL     1      -8.552  -0.704 123.833  0.00  0.00    +0.000 A 
ATOM      4  C   UNL     1      -9.054  -1.662 122.948  0.00  0.00    +0.000 A 
ATOM      5  C   UNL     1      -9.377  -2.952 123.396  0.00  0.00    +0.000 A 
ATOM      6  C   UNL     1      -9.195  -3.310 124.737  0.00  0.00    +0.000 A 
ATOM      7  C   UNL     1      -8.699  -2.359 125.618  0.00  0.00    +0.000 A 
ATOM      8  C   UNL     1      -8.415  -2.452 127.034  0.00  0.00    +0.000 A 
ATOM      9  C   UNL     1      -8.517  -3.527 127.905  0.00  0.00    +0.000 A 
ATOM     10  C   UNL     1      -8.118  -3.354 129.236  0.00  0.00    +0.000 A 
ATOM     11  C   UNL     1      -7.621  -2.121 129.683  0.00  0.00    +0.000 A 
ATOM     12  C   UNL     1      -7.547  -1.031 128.818  0.00  0.00    +0.000 A 
ATOM     13  C   UNL     1      -7.938  -1.206 127.493  0.00  0.00    +0.000 A 
ENDROOT
BRANCH   1  14
ATOM     14  C   UNL     1      -8.738   1.036 126.603  0.00  0.00    +0.000 C 
ATOM     15  N   UNL     1      -8.863   1.510 127.883  0.00  0.00    +0.000 N 
ATOM     16  O   UNL     1      -9.388   1.617 125.725  0.00  0.00    +0.000 OA
ATOM     17  H   UNL     1      -8.356   1.197 128.696  0.00  0.00    +0.000 HD
ATOM     18  H   UNL     1      -9.488   2.291 128.026  0.00  0.00    +0.000 HD
ENDBRANCH   1  14
BRANCH   1  19
ATOM     19  C   UNL     1      -6.364   0.194 126.026  0.00  0.00    +0.000 C 
BRANCH  19  20
ATOM     20  C   UNL     1      -5.913   1.539 126.572  0.00  0.00    +0.000 C 
BRANCH  20  21
ATOM     21  C   UNL     1      -5.511   2.409 125.411  0.00  0.00    +0.000 C 
BRANCH  21  22
ATOM     22  N   UNL     1      -6.450   2.184 124.326  0.00  0.00    +0.000 NA
ATOM     23  H   UNL     1      -6.043   1.540 123.646  0.00  0.00    +0.000 HD
BRANCH  22  25
ATOM     24  C   UNL     1      -5.560   4.299 123.571  0.00  0.00    +0.000 C 
ATOM     25  C   UNL     1      -6.814   3.441 123.680  0.00  0.00    +0.000 C 
ATOM     26  C   UNL     1      -7.392   3.188 122.287  0.00  0.00    +0.000 C 
ENDBRANCH  22  25
ENDBRANCH  21  22
ENDBRANCH  20  21
ENDBRANCH  19  20
ENDBRANCH   1  19
TORSDOF 6
ENDMDL
