MODEL 1
REMARK VINA RESULT:     -12.7      0.000      0.000
REMARK  Name = Indinavir
REMARK  17 active torsions:
REMARK  status: ('A' for Active; 'I' for Inactive)
REMARK    1  A    between atoms: C_1  and  C_2
REMARK    2  A    between atoms: C_2  and  C_3
REMARK    3  A    between atoms: C_2  and  C_4
REMARK    4  A    between atoms: C_2  and  N_5
REMARK    5  A    between atoms: C_6  and  C_8
REMARK    6  A    between atoms: N_10  and  C_11
REMARK    7  A    between atoms: C_11  and  C_12
REMARK    8  A    between atoms: N_20  and  C_21
REMARK    9  A    between atoms: C_21  and  C_22
REMARK   10  A    between atoms: C_22  and  O_23
REMARK   11  A    between atoms: C_22  and  C_24
REMARK   12  A    between atoms: C_24  and  C_25
REMARK   13  A    between atoms: C_25  and  C_26
REMARK   14  A    between atoms: C_25  and  C_33
REMARK   15  A    between atoms: C_26  and  C_27
REMARK   16  A    between atoms: N_35  and  C_36
REMARK   17  A    between atoms: C_37  and  O_38
REMARK                            x       y       z     vdW  Elec       q    Type
REMARK                         _______ _______ _______ _____ _____    ______ ____
ROOT
ATOM      1  C   UNL     1      -7.843   1.782 127.750  0.00  0.00    +0.000 C 
ENDROOT
BRANCH   1   2
ATOM      2  O   UNL     1      -6.419   1.320 128.123  0.00  0.00    +0.000 OA
ATOM      3  H   UNL     1      -5.719   1.960 127.825  0.00  0.00    +0.000 HD
ENDBRANCH   1   2
BRANCH   1   4
ATOM      4  C   UNL     1      -7.179   1.675 126.414  0.00  0.00    +0.000 C 
BRANCH   4  10
ATOM      5  C   UNL     1      -8.216   1.484 124.089  0.00  0.00    +0.000 C 
ATOM      6  C   UNL     1      -7.051   1.272 123.114  0.00  0.00    +0.000 C 
ATOM      7  N   UNL     1      -6.564   2.578 122.733  0.00  0.00    +0.000 NA
ATOM      8  C   UNL     1      -6.313   3.279 124.025  0.00  0.00    +0.000 C 
ATOM      9  C   UNL     1      -7.544   3.502 124.958  0.00  0.00    +0.000 C 
ATOM     10  N   UNL     1      -8.106   2.242 125.378  0.00  0.00    +0.000 NA
BRANCH   5  12
ATOM     11  N   UNL     1      -8.141  -1.168 124.001  0.00  0.00    +0.000 N 
ATOM     12  C   UNL     1      -8.883   0.217 124.372  0.00  0.00    +0.000 C 
ATOM     13  O   UNL     1      -9.925   0.605 124.899  0.00  0.00    +0.000 OA
ATOM     14  H   UNL     1      -7.130  -1.394 123.926  0.00  0.00    +0.000 HD
BRANCH  11  16
ATOM     15  C   UNL     1      -9.639  -3.408 123.387  0.00  0.00    +0.000 C 
ATOM     16  C   UNL     1      -8.253  -2.572 124.306  0.00  0.00    +0.000 C 
ATOM     17  C   UNL     1      -9.146  -2.960 126.145  0.00  0.00    +0.000 C 
ATOM     18  C   UNL     1      -6.343  -3.638 124.285  0.00  0.00    +0.000 C 
ENDBRANCH  11  16
ENDBRANCH   5  12
BRANCH   7  19
ATOM     19  C   UNL     1      -7.578   3.297 121.950  0.00  0.00    +0.000 C 
BRANCH  19  20
ATOM     20  C   UNL     1      -7.036   3.971 120.722  0.00  0.00    +0.000 A 
ATOM     21  C   UNL     1      -5.781   4.527 120.716  0.00  0.00    +0.000 A 
ATOM     22  N   UNL     1      -5.279   5.216 119.664  0.00  0.00    +0.000 NA
ATOM     23  C   UNL     1      -6.047   5.303 118.552  0.00  0.00    +0.000 A 
ATOM     24  C   UNL     1      -7.291   4.751 118.431  0.00  0.00    +0.000 A 
ATOM     25  C   UNL     1      -7.796   4.157 119.560  0.00  0.00    +0.000 A 
ENDBRANCH  19  20
ENDBRANCH   7  19
ENDBRANCH   4  10
ENDBRANCH   1   4
BRANCH   1  26
ATOM     26  C   UNL     1      -7.914   2.818 128.873  0.00  0.00    +0.000 C 
BRANCH  26  27
ATOM     27  C   UNL     1      -9.223   2.880 130.308  0.00  0.00    +0.000 C 
BRANCH  27  28
ATOM     28  C   UNL     1      -8.984   4.394 130.696  0.00  0.00    +0.000 C 
ATOM     29  O   UNL     1      -8.136   4.794 131.494  0.00  0.00    +0.000 OA
ATOM     30  N   UNL     1      -9.958   5.201 130.229  0.00  0.00    +0.000 N 
ATOM     31  H   UNL     1     -10.706   4.741 129.737  0.00  0.00    +0.000 HD
BRANCH  30  32
ATOM     32  C   UNL     1     -10.242   6.522 130.802  0.00  0.00    +0.000 C 
ATOM     33  C   UNL     1     -11.326   6.415 131.960  0.00  0.00    +0.000 C 
ATOM     34  C   UNL     1     -12.504   7.359 131.480  0.00  0.00    +0.000 C 
ATOM     35  C   UNL     1     -12.133   7.747 130.095  0.00  0.00    +0.000 A 
ATOM     36  C   UNL     1     -12.925   8.438 129.211  0.00  0.00    +0.000 A 
ATOM     37  C   UNL     1     -12.530   8.488 127.879  0.00  0.00    +0.000 A 
ATOM     38  C   UNL     1     -11.271   8.029 127.482  0.00  0.00    +0.000 A 
ATOM     39  C   UNL     1     -10.446   7.398 128.399  0.00  0.00    +0.000 A 
ATOM     40  C   UNL     1     -10.902   7.266 129.705  0.00  0.00    +0.000 A 
BRANCH  33  41
ATOM     41  O   UNL     1     -10.687   5.739 133.040  0.00  0.00    +0.000 OA
ATOM     42  H   UNL     1     -11.361   5.604 133.741  0.00  0.00    +0.000 HD
ENDBRANCH  33  41
ENDBRANCH  30  32
ENDBRANCH  27  28
BRANCH  27  43
ATOM     43  C   UNL     1      -9.531   1.479 131.846  0.00  0.00    +0.000 C 
BRANCH  43  44
ATOM     44  C   UNL     1      -8.645  -0.432 131.337  0.00  0.00    +0.000 A 
ATOM     45  C   UNL     1      -7.727  -0.605 130.215  0.00  0.00    +0.000 A 
ATOM     46  C   UNL     1      -7.808  -1.850 129.835  0.00  0.00    +0.000 A 
ATOM     47  C   UNL     1      -7.605  -2.819 130.883  0.00  0.00    +0.000 A 
ATOM     48  C   UNL     1      -7.507  -2.636 132.273  0.00  0.00    +0.000 A 
ATOM     49  C   UNL     1      -7.863  -1.395 132.528  0.00  0.00    +0.000 A 
ENDBRANCH  43  44
ENDBRANCH  27  43
ENDBRANCH  26  27
ENDBRANCH   1  26
TORSDOF 14
ENDMDL
MODEL 2
REMARK VINA RESULT:     -12.4      2.384      3.519
REMARK  Name = Indinavir
REMARK  17 active torsions:
REMARK  status: ('A' for Active; 'I' for Inactive)
REMARK    1  A    between atoms: C_1  and  C_2
REMARK    2  A    between atoms: C_2  and  C_3
REMARK    3  A    between atoms: C_2  and  C_4
REMARK    4  A    between atoms: C_2  and  N_5
REMARK    5  A    between atoms: C_6  and  C_8
REMARK    6  A    between atoms: N_10  and  C_11
REMARK    7  A    between atoms: C_11  and  C_12
REMARK    8  A    between atoms: N_20  and  C_21
REMARK    9  A    between atoms: C_21  and  C_22
REMARK   10  A    between atoms: C_22  and  O_23
REMARK   11  A    between atoms: C_22  and  C_24
REMARK   12  A    between atoms: C_24  and  C_25
REMARK   13  A    between atoms: C_25  and  C_26
REMARK   14  A    between atoms: C_25  and  C_33
REMARK   15  A    between atoms: C_26  and  C_27
REMARK   16  A    between atoms: N_35  and  C_36
REMARK   17  A    between atoms: C_37  and  O_38
REMARK                            x       y       z     vdW  Elec       q    Type
REMARK                         _______ _______ _______ _____ _____    ______ ____
ROOT
ATOM      1  C   UNL     1      -8.108   2.884 127.747  0.00  0.00    +0.000 C 
ENDROOT
BRANCH   1   2
ATOM      2  O   UNL     1      -7.567   1.658 128.510  0.00  0.00    +0.000 OA
ATOM      3  H   UNL     1      -6.870   1.167 127.999  0.00  0.00    +0.000 HD
ENDBRANCH   1   2
BRANCH   1   4
ATOM      4  C   UNL     1      -7.855   1.906 126.644  0.00  0.00    +0.000 C 
BRANCH   4  10
ATOM      5  C   UNL     1      -8.500   1.494 124.209  0.00  0.00    +0.000 C 
ATOM      6  C   UNL     1      -7.185   1.373 123.429  0.00  0.00    +0.000 C 
ATOM      7  N   UNL     1      -6.786   2.707 123.044  0.00  0.00    +0.000 NA
ATOM      8  C   UNL     1      -6.810   3.489 124.313  0.00  0.00    +0.000 C 
ATOM      9  C   UNL     1      -8.186   3.613 125.041  0.00  0.00    +0.000 C 
ATOM     10  N   UNL     1      -8.669   2.318 125.451  0.00  0.00    +0.000 NA
BRANCH   5  12
ATOM     11  N   UNL     1      -8.195  -1.142 124.121  0.00  0.00    +0.000 N 
ATOM     12  C   UNL     1      -9.064   0.174 124.469  0.00  0.00    +0.000 C 
ATOM     13  O   UNL     1     -10.153   0.469 124.962  0.00  0.00    +0.000 OA
ATOM     14  H   UNL     1      -7.166  -1.279 124.079  0.00  0.00    +0.000 HD
BRANCH  11  16
ATOM     15  C   UNL     1      -9.603  -3.466 123.617  0.00  0.00    +0.000 C 
ATOM     16  C   UNL     1      -8.196  -2.550 124.421  0.00  0.00    +0.000 C 
ATOM     17  C   UNL     1      -8.902  -3.001 126.327  0.00  0.00    +0.000 C 
ATOM     18  C   UNL     1      -6.234  -3.499 124.226  0.00  0.00    +0.000 C 
ENDBRANCH  11  16
ENDBRANCH   5  12
BRANCH   7  19
ATOM     19  C   UNL     1      -7.740   3.269 122.078  0.00  0.00    +0.000 C 
BRANCH  19  20
ATOM     20  C   UNL     1      -7.093   3.916 120.887  0.00  0.00    +0.000 A 
ATOM     21  C   UNL     1      -5.795   4.364 120.943  0.00  0.00    +0.000 A 
ATOM     22  N   UNL     1      -5.195   5.025 119.927  0.00  0.00    +0.000 NA
ATOM     23  C   UNL     1      -5.905   5.196 118.787  0.00  0.00    +0.000 A 
ATOM     24  C   UNL     1      -7.185   4.755 118.605  0.00  0.00    +0.000 A 
ATOM     25  C   UNL     1      -7.785   4.187 119.700  0.00  0.00    +0.000 A 
ENDBRANCH  19  20
ENDBRANCH   7  19
ENDBRANCH   4  10
ENDBRANCH   1   4
BRANCH   1  26
ATOM     26  C   UNL     1      -7.278   3.884 128.555  0.00  0.00    +0.000 C 
BRANCH  26  27
ATOM     27  C   UNL     1      -7.463   4.279 130.448  0.00  0.00    +0.000 C 
BRANCH  27  28
ATOM     28  C   UNL     1      -8.067   5.728 130.265  0.00  0.00    +0.000 C 
ATOM     29  O   UNL     1      -7.420   6.775 130.312  0.00  0.00    +0.000 OA
ATOM     30  N   UNL     1      -9.416   5.725 130.273  0.00  0.00    +0.000 N 
ATOM     31  H   UNL     1      -9.848   4.828 130.424  0.00  0.00    +0.000 HD
BRANCH  30  32
ATOM     32  C   UNL     1     -10.214   6.917 130.581  0.00  0.00    +0.000 C 
ATOM     33  C   UNL     1     -11.262   6.612 131.738  0.00  0.00    +0.000 C 
ATOM     34  C   UNL     1     -12.669   6.935 131.084  0.00  0.00    +0.000 C 
ATOM     35  C   UNL     1     -12.369   7.181 129.650  0.00  0.00    +0.000 A 
ATOM     36  C   UNL     1     -13.294   7.350 128.650  0.00  0.00    +0.000 A 
ATOM     37  C   UNL     1     -12.849   7.309 127.333  0.00  0.00    +0.000 A 
ATOM     38  C   UNL     1     -11.484   7.302 127.033  0.00  0.00    +0.000 A 
ATOM     39  C   UNL     1     -10.553   7.207 128.054  0.00  0.00    +0.000 A 
ATOM     40  C   UNL     1     -11.021   7.145 129.361  0.00  0.00    +0.000 A 
BRANCH  33  41
ATOM     41  O   UNL     1     -10.498   6.435 132.927  0.00  0.00    +0.000 OA
ATOM     42  H   UNL     1     -10.370   5.470 133.052  0.00  0.00    +0.000 HD
ENDBRANCH  33  41
ENDBRANCH  30  32
ENDBRANCH  27  28
BRANCH  27  43
ATOM     43  C   UNL     1      -6.067   3.951 131.986  0.00  0.00    +0.000 C 
BRANCH  43  44
ATOM     44  C   UNL     1      -4.298   5.168 131.694  0.00  0.00    +0.000 A 
ATOM     45  C   UNL     1      -3.524   5.154 130.457  0.00  0.00    +0.000 A 
ATOM     46  C   UNL     1      -2.305   5.511 130.758  0.00  0.00    +0.000 A 
ATOM     47  C   UNL     1      -2.196   6.755 131.476  0.00  0.00    +0.000 A 
ATOM     48  C   UNL     1      -3.199   7.554 132.054  0.00  0.00    +0.000 A 
ATOM     49  C   UNL     1      -4.314   6.854 132.033  0.00  0.00    +0.000 A 
ENDBRANCH  43  44
ENDBRANCH  27  43
ENDBRANCH  26  27
ENDBRANCH   1  26
TORSDOF 14
ENDMDL
MODEL 3
REMARK VINA RESULT:     -12.2      1.781      2.648
REMARK  Name = Indinavir
REMARK  17 active torsions:
REMARK  status: ('A' for Active; 'I' for Inactive)
REMARK    1  A    between atoms: C_1  and  C_2
REMARK    2  A    between atoms: C_2  and  C_3
REMARK    3  A    between atoms: C_2  and  C_4
REMARK    4  A    between atoms: C_2  and  N_5
REMARK    5  A    between atoms: C_6  and  C_8
REMARK    6  A    between atoms: N_10  and  C_11
REMARK    7  A    between atoms: C_11  and  C_12
REMARK    8  A    between atoms: N_20  and  C_21
REMARK    9  A    between atoms: C_21  and  C_22
REMARK   10  A    between atoms: C_22  and  O_23
REMARK   11  A    between atoms: C_22  and  C_24
REMARK   12  A    between atoms: C_24  and  C_25
REMARK   13  A    between atoms: C_25  and  C_26
REMARK   14  A    between atoms: C_25  and  C_33
REMARK   15  A    between atoms: C_26  and  C_27
REMARK   16  A    between atoms: N_35  and  C_36
REMARK   17  A    between atoms: C_37  and  O_38
REMARK                            x       y       z     vdW  Elec       q    Type
REMARK                         _______ _______ _______ _____ _____    ______ ____
ROOT
ATOM      1  C   UNL     1      -8.272   2.411 127.416  0.00  0.00    +0.000 C 
ENDROOT
BRANCH   1   2
ATOM      2  O   UNL     1      -8.649   0.928 127.607  0.00  0.00    +0.000 OA
ATOM      3  H   UNL     1      -8.005   0.310 127.168  0.00  0.00    +0.000 HD
ENDBRANCH   1   2
BRANCH   1   4
ATOM      4  C   UNL     1      -7.727   1.779 126.175  0.00  0.00    +0.000 C 
BRANCH   4  10
ATOM      5  C   UNL     1      -8.390   1.473 123.729  0.00  0.00    +0.000 C 
ATOM      6  C   UNL     1      -7.081   1.387 122.935  0.00  0.00    +0.000 C 
ATOM      7  N   UNL     1      -6.685   2.736 122.605  0.00  0.00    +0.000 NA
ATOM      8  C   UNL     1      -6.699   3.463 123.907  0.00  0.00    +0.000 C 
ATOM      9  C   UNL     1      -8.069   3.554 124.650  0.00  0.00    +0.000 C 
ATOM     10  N   UNL     1      -8.549   2.242 125.007  0.00  0.00    +0.000 NA
BRANCH   5  12
ATOM     11  N   UNL     1      -7.968  -1.137 123.969  0.00  0.00    +0.000 N 
ATOM     12  C   UNL     1      -8.952   0.143 123.936  0.00  0.00    +0.000 C 
ATOM     13  O   UNL     1     -10.147   0.403 124.070  0.00  0.00    +0.000 OA
ATOM     14  H   UNL     1      -6.966  -1.211 124.234  0.00  0.00    +0.000 HD
BRANCH  11  16
ATOM     15  C   UNL     1      -9.469  -3.443 123.716  0.00  0.00    +0.000 C 
ATOM     16  C   UNL     1      -7.999  -2.516 124.382  0.00  0.00    +0.000 C 
ATOM     17  C   UNL     1      -8.631  -2.788 126.347  0.00  0.00    +0.000 C 
ATOM     18  C   UNL     1      -6.079  -3.545 124.180  0.00  0.00    +0.000 C 
ENDBRANCH  11  16
ENDBRANCH   5  12
BRANCH   7  19
ATOM     19  C   UNL     1      -7.646   3.340 121.672  0.00  0.00    +0.000 C 
BRANCH  19  20
ATOM     20  C   UNL     1      -7.008   4.062 120.520  0.00  0.00    +0.000 A 
ATOM     21  C   UNL     1      -5.755   4.613 120.638  0.00  0.00    +0.000 A 
ATOM     22  N   UNL     1      -5.170   5.342 119.659  0.00  0.00    +0.000 NA
ATOM     23  C   UNL     1      -5.847   5.479 118.494  0.00  0.00    +0.000 A 
ATOM     24  C   UNL     1      -7.078   4.939 118.252  0.00  0.00    +0.000 A 
ATOM     25  C   UNL     1      -7.672   4.301 119.311  0.00  0.00    +0.000 A 
ENDBRANCH  19  20
ENDBRANCH   7  19
ENDBRANCH   4  10
ENDBRANCH   1   4
BRANCH   1  26
ATOM     26  C   UNL     1      -7.811   2.590 128.864  0.00  0.00    +0.000 C 
BRANCH  26  27
ATOM     27  C   UNL     1      -8.944   2.945 130.402  0.00  0.00    +0.000 C 
BRANCH  27  28
ATOM     28  C   UNL     1      -8.937   4.520 130.263  0.00  0.00    +0.000 C 
ATOM     29  O   UNL     1      -7.944   5.237 130.394  0.00  0.00    +0.000 OA
ATOM     30  N   UNL     1     -10.183   5.033 130.205  0.00  0.00    +0.000 N 
ATOM     31  H   UNL     1     -10.933   4.367 130.289  0.00  0.00    +0.000 HD
BRANCH  30  32
ATOM     32  C   UNL     1     -10.485   6.431 130.532  0.00  0.00    +0.000 C 
ATOM     33  C   UNL     1     -11.524   6.518 131.734  0.00  0.00    +0.000 C 
ATOM     34  C   UNL     1     -12.746   7.329 131.133  0.00  0.00    +0.000 C 
ATOM     35  C   UNL     1     -12.436   7.459 129.687  0.00  0.00    +0.000 A 
ATOM     36  C   UNL     1     -13.278   7.955 128.722  0.00  0.00    +0.000 A 
ATOM     37  C   UNL     1     -12.933   7.763 127.389  0.00  0.00    +0.000 A 
ATOM     38  C   UNL     1     -11.675   7.267 127.035  0.00  0.00    +0.000 A 
ATOM     39  C   UNL     1     -10.800   6.837 128.019  0.00  0.00    +0.000 A 
ATOM     40  C   UNL     1     -11.205   6.941 129.344  0.00  0.00    +0.000 A 
BRANCH  33  41
ATOM     41  O   UNL     1     -10.828   6.071 132.893  0.00  0.00    +0.000 OA
ATOM     42  H   UNL     1     -10.497   5.166 132.706  0.00  0.00    +0.000 HD
ENDBRANCH  33  41
ENDBRANCH  30  32
ENDBRANCH  27  28
BRANCH  27  43
ATOM     43  C   UNL     1      -8.827   2.098 132.324  0.00  0.00    +0.000 C 
BRANCH  43  44
ATOM     44  C   UNL     1      -7.761   3.408 133.681  0.00  0.00    +0.000 A 
ATOM     45  C   UNL     1      -8.439   4.260 134.654  0.00  0.00    +0.000 A 
ATOM     46  C   UNL     1      -7.649   5.269 134.903  0.00  0.00    +0.000 A 
ATOM     47  C   UNL     1      -6.313   4.909 135.304  0.00  0.00    +0.000 A 
ATOM     48  C   UNL     1      -5.676   3.655 135.301  0.00  0.00    +0.000 A 
ATOM     49  C   UNL     1      -6.453   2.827 134.634  0.00  0.00    +0.000 A 
ENDBRANCH  43  44
ENDBRANCH  27  43
ENDBRANCH  26  27
ENDBRANCH   1  26
TORSDOF 14
ENDMDL
MODEL 4
REMARK VINA RESULT:     -12.0      2.414      3.987
REMARK  Name = Indinavir
REMARK  17 active torsions:
REMARK  status: ('A' for Active; 'I' for Inactive)
REMARK    1  A    between atoms: C_1  and  C_2
REMARK    2  A    between atoms: C_2  and  C_3
REMARK    3  A    between atoms: C_2  and  C_4
REMARK    4  A    between atoms: C_2  and  N_5
REMARK    5  A    between atoms: C_6  and  C_8
REMARK    6  A    between atoms: N_10  and  C_11
REMARK    7  A    between atoms: C_11  and  C_12
REMARK    8  A    between atoms: N_20  and  C_21
REMARK    9  A    between atoms: C_21  and  C_22
REMARK   10  A    between atoms: C_22  and  O_23
REMARK   11  A    between atoms: C_22  and  C_24
REMARK   12  A    between atoms: C_24  and  C_25
REMARK   13  A    between atoms: C_25  and  C_26
REMARK   14  A    between atoms: C_25  and  C_33
REMARK   15  A    between atoms: C_26  and  C_27
REMARK   16  A    between atoms: N_35  and  C_36
REMARK   17  A    between atoms: C_37  and  O_38
REMARK                            x       y       z     vdW  Elec       q    Type
REMARK                         _______ _______ _______ _____ _____    ______ ____
ROOT
ATOM      1  C   UNL     1      -8.244   3.106 127.720  0.00  0.00    +0.000 C 
ENDROOT
BRANCH   1   2
ATOM      2  O   UNL     1      -8.077   1.809 128.538  0.00  0.00    +0.000 OA
ATOM      3  H   UNL     1      -8.937   1.482 128.915  0.00  0.00    +0.000 HD
ENDBRANCH   1   2
BRANCH   1   4
ATOM      4  C   UNL     1      -7.819   2.122 126.677  0.00  0.00    +0.000 C 
BRANCH   4  10
ATOM      5  C   UNL     1      -8.309   1.507 124.249  0.00  0.00    +0.000 C 
ATOM      6  C   UNL     1      -6.951   1.417 123.544  0.00  0.00    +0.000 C 
ATOM      7  N   UNL     1      -6.612   2.744 123.086  0.00  0.00    +0.000 NA
ATOM      8  C   UNL     1      -6.748   3.607 124.294  0.00  0.00    +0.000 C 
ATOM      9  C   UNL     1      -8.165   3.693 124.944  0.00  0.00    +0.000 C 
ATOM     10  N   UNL     1      -8.591   2.401 125.421  0.00  0.00    +0.000 NA
BRANCH   5  12
ATOM     11  N   UNL     1      -7.867  -1.109 124.306  0.00  0.00    +0.000 N 
ATOM     12  C   UNL     1      -8.808   0.175 124.574  0.00  0.00    +0.000 C 
ATOM     13  O   UNL     1      -9.916   0.438 125.039  0.00  0.00    +0.000 OA
ATOM     14  H   UNL     1      -6.832  -1.195 124.282  0.00  0.00    +0.000 HD
BRANCH  11  16
ATOM     15  C   UNL     1      -9.311  -3.462 124.186  0.00  0.00    +0.000 C 
ATOM     16  C   UNL     1      -7.798  -2.498 124.682  0.00  0.00    +0.000 C 
ATOM     17  C   UNL     1      -8.159  -2.839 126.703  0.00  0.00    +0.000 C 
ATOM     18  C   UNL     1      -5.888  -3.452 124.204  0.00  0.00    +0.000 C 
ENDBRANCH  11  16
ENDBRANCH   5  12
BRANCH   7  19
ATOM     19  C   UNL     1      -7.545   3.179 122.038  0.00  0.00    +0.000 C 
BRANCH  19  20
ATOM     20  C   UNL     1      -6.895   3.941 120.919  0.00  0.00    +0.000 A 
ATOM     21  C   UNL     1      -5.656   4.514 121.079  0.00  0.00    +0.000 A 
ATOM     22  N   UNL     1      -5.064   5.277 120.132  0.00  0.00    +0.000 NA
ATOM     23  C   UNL     1      -5.716   5.428 118.954  0.00  0.00    +0.000 A 
ATOM     24  C   UNL     1      -6.930   4.870 118.670  0.00  0.00    +0.000 A 
ATOM     25  C   UNL     1      -7.535   4.195 119.700  0.00  0.00    +0.000 A 
ENDBRANCH  19  20
ENDBRANCH   7  19
ENDBRANCH   4  10
ENDBRANCH   1   4
BRANCH   1  26
ATOM     26  C   UNL     1      -7.552   3.980 128.769  0.00  0.00    +0.000 C 
BRANCH  26  27
ATOM     27  C   UNL     1      -8.222   4.409 130.541  0.00  0.00    +0.000 C 
BRANCH  27  28
ATOM     28  C   UNL     1      -9.717   4.677 130.102  0.00  0.00    +0.000 C 
ATOM     29  O   UNL     1     -10.595   3.817 130.021  0.00  0.00    +0.000 OA
ATOM     30  N   UNL     1      -9.888   5.918 129.603  0.00  0.00    +0.000 N 
ATOM     31  H   UNL     1      -9.057   6.483 129.546  0.00  0.00    +0.000 HD
BRANCH  30  32
ATOM     32  C   UNL     1     -11.006   6.275 128.722  0.00  0.00    +0.000 C 
ATOM     33  C   UNL     1     -10.499   7.143 127.489  0.00  0.00    +0.000 C 
ATOM     34  C   UNL     1     -11.322   8.493 127.598  0.00  0.00    +0.000 C 
ATOM     35  C   UNL     1     -12.032   8.395 128.899  0.00  0.00    +0.000 A 
ATOM     36  C   UNL     1     -12.753   9.396 129.502  0.00  0.00    +0.000 A 
ATOM     37  C   UNL     1     -13.130   9.224 130.830  0.00  0.00    +0.000 A 
ATOM     38  C   UNL     1     -12.964   7.994 131.472  0.00  0.00    +0.000 A 
ATOM     39  C   UNL     1     -12.301   6.962 130.827  0.00  0.00    +0.000 A 
ATOM     40  C   UNL     1     -11.840   7.188 129.536  0.00  0.00    +0.000 A 
BRANCH  33  41
ATOM     41  O   UNL     1      -9.731   6.263 126.674  0.00  0.00    +0.000 OA
ATOM     42  H   UNL     1      -9.091   5.804 127.260  0.00  0.00    +0.000 HD
ENDBRANCH  33  41
ENDBRANCH  30  32
ENDBRANCH  27  28
BRANCH  27  43
ATOM     43  C   UNL     1      -7.353   5.661 131.990  0.00  0.00    +0.000 C 
BRANCH  43  44
ATOM     44  C   UNL     1      -5.413   6.371 131.333  0.00  0.00    +0.000 A 
ATOM     45  C   UNL     1      -5.248   7.550 130.487  0.00  0.00    +0.000 A 
ATOM     46  C   UNL     1      -4.125   7.406 129.838  0.00  0.00    +0.000 A 
ATOM     47  C   UNL     1      -2.975   7.140 130.665  0.00  0.00    +0.000 A 
ATOM     48  C   UNL     1      -2.900   6.838 132.036  0.00  0.00    +0.000 A 
ATOM     49  C   UNL     1      -4.128   6.607 132.451  0.00  0.00    +0.000 A 
ENDBRANCH  43  44
ENDBRANCH  27  43
ENDBRANCH  26  27
ENDBRANCH   1  26
TORSDOF 14
ENDMDL
MODEL 5
REMARK VINA RESULT:     -11.9      2.351      9.793
REMARK  Name = Indinavir
REMARK  17 active torsions:
REMARK  status: ('A' for Active; 'I' for Inactive)
REMARK    1  A    between atoms: C_1  and  C_2
REMARK    2  A    between atoms: C_2  and  C_3
REMARK    3  A    between atoms: C_2  and  C_4
REMARK    4  A    between atoms: C_2  and  N_5
REMARK    5  A    between atoms: C_6  and  C_8
REMARK    6  A    between atoms: N_10  and  C_11
REMARK    7  A    between atoms: C_11  and  C_12
REMARK    8  A    between atoms: N_20  and  C_21
REMARK    9  A    between atoms: C_21  and  C_22
REMARK   10  A    between atoms: C_22  and  O_23
REMARK   11  A    between atoms: C_22  and  C_24
REMARK   12  A    between atoms: C_24  and  C_25
REMARK   13  A    between atoms: C_25  and  C_26
REMARK   14  A    between atoms: C_25  and  C_33
REMARK   15  A    between atoms: C_26  and  C_27
REMARK   16  A    between atoms: N_35  and  C_36
REMARK   17  A    between atoms: C_37  and  O_38
REMARK                            x       y       z     vdW  Elec       q    Type
REMARK                         _______ _______ _______ _____ _____    ______ ____
ROOT
ATOM      1  C   UNL     1      -5.164   2.324 126.865  0.00  0.00    +0.000 C 
ENDROOT
BRANCH   1   2
ATOM      2  O   UNL     1      -4.934   0.810 127.050  0.00  0.00    +0.000 OA
ATOM      3  H   UNL     1      -3.969   0.568 127.062  0.00  0.00    +0.000 HD
ENDBRANCH   1   2
BRANCH   1   4
ATOM      4  C   UNL     1      -5.824   2.057 128.180  0.00  0.00    +0.000 C 
BRANCH   4  10
ATOM      5  C   UNL     1      -6.730   3.337 130.194  0.00  0.00    +0.000 C 
ATOM      6  C   UNL     1      -8.238   3.059 130.240  0.00  0.00    +0.000 C 
ATOM      7  N   UNL     1      -8.883   4.036 129.393  0.00  0.00    +0.000 NA
ATOM      8  C   UNL     1      -8.165   3.940 128.090  0.00  0.00    +0.000 C 
ATOM      9  C   UNL     1      -6.640   4.275 128.098  0.00  0.00    +0.000 C 
ATOM     10  N   UNL     1      -5.915   3.352 128.935  0.00  0.00    +0.000 NA
BRANCH   5  12
ATOM     11  N   UNL     1      -6.638   1.073 131.578  0.00  0.00    +0.000 N 
ATOM     12  C   UNL     1      -6.027   2.512 131.171  0.00  0.00    +0.000 C 
ATOM     13  O   UNL     1      -5.044   3.210 131.415  0.00  0.00    +0.000 OA
ATOM     14  H   UNL     1      -7.242   0.421 131.041  0.00  0.00    +0.000 HD
BRANCH  11  16
ATOM     15  C   UNL     1      -7.597  -1.357 132.478  0.00  0.00    +0.000 C 
ATOM     16  C   UNL     1      -6.214  -0.136 132.235  0.00  0.00    +0.000 C 
ATOM     17  C   UNL     1      -5.947   0.075 134.288  0.00  0.00    +0.000 C 
ATOM     18  C   UNL     1      -4.360  -0.976 131.432  0.00  0.00    +0.000 C 
ENDBRANCH  11  16
ENDBRANCH   5  12
BRANCH   7  19
ATOM     19  C   UNL     1      -8.737   5.383 129.961  0.00  0.00    +0.000 C 
BRANCH  19  20
ATOM     20  C   UNL     1     -10.041   6.091 130.197  0.00  0.00    +0.000 A 
ATOM     21  C   UNL     1     -10.828   5.781 131.279  0.00  0.00    +0.000 A 
ATOM     22  N   UNL     1     -12.047   6.330 131.491  0.00  0.00    +0.000 NA
ATOM     23  C   UNL     1     -12.470   7.269 130.612  0.00  0.00    +0.000 A 
ATOM     24  C   UNL     1     -11.752   7.685 129.527  0.00  0.00    +0.000 A 
ATOM     25  C   UNL     1     -10.573   7.022 129.297  0.00  0.00    +0.000 A 
ENDBRANCH  19  20
ENDBRANCH   7  19
ENDBRANCH   4  10
ENDBRANCH   1   4
BRANCH   1  26
ATOM     26  C   UNL     1      -5.540   2.193 125.388  0.00  0.00    +0.000 C 
BRANCH  26  27
ATOM     27  C   UNL     1      -7.292   1.747 124.675  0.00  0.00    +0.000 C 
BRANCH  27  28
ATOM     28  C   UNL     1      -6.996   0.213 124.433  0.00  0.00    +0.000 C 
ATOM     29  O   UNL     1      -6.664  -0.281 123.355  0.00  0.00    +0.000 OA
ATOM     30  N   UNL     1      -7.360  -0.550 125.483  0.00  0.00    +0.000 N 
ATOM     31  H   UNL     1      -7.792  -0.059 126.249  0.00  0.00    +0.000 HD
BRANCH  30  32
ATOM     32  C   UNL     1      -7.629  -1.988 125.369  0.00  0.00    +0.000 C 
ATOM     33  C   UNL     1      -9.149  -2.250 124.980  0.00  0.00    +0.000 C 
ATOM     34  C   UNL     1      -9.704  -3.148 126.161  0.00  0.00    +0.000 C 
ATOM     35  C   UNL     1      -8.611  -3.164 127.166  0.00  0.00    +0.000 A 
ATOM     36  C   UNL     1      -8.686  -3.690 128.432  0.00  0.00    +0.000 A 
ATOM     37  C   UNL     1      -7.666  -3.389 129.329  0.00  0.00    +0.000 A 
ATOM     38  C   UNL     1      -6.501  -2.745 128.905  0.00  0.00    +0.000 A 
ATOM     39  C   UNL     1      -6.402  -2.283 127.603  0.00  0.00    +0.000 A 
ATOM     40  C   UNL     1      -7.475  -2.503 126.748  0.00  0.00    +0.000 A 
BRANCH  33  41
ATOM     41  O   UNL     1      -9.297  -1.798 123.637  0.00  0.00    +0.000 OA
ATOM     42  H   UNL     1      -9.865  -2.449 123.170  0.00  0.00    +0.000 HD
ENDBRANCH  33  41
ENDBRANCH  30  32
ENDBRANCH  27  28
BRANCH  27  43
ATOM     43  C   UNL     1      -8.417   2.799 123.243  0.00  0.00    +0.000 C 
BRANCH  43  44
ATOM     44  C   UNL     1      -7.131   3.634 121.712  0.00  0.00    +0.000 A 
ATOM     45  C   UNL     1      -5.816   3.084 121.398  0.00  0.00    +0.000 A 
ATOM     46  C   UNL     1      -5.101   4.052 120.893  0.00  0.00    +0.000 A 
ATOM     47  C   UNL     1      -5.707   4.735 119.777  0.00  0.00    +0.000 A 
ATOM     48  C   UNL     1      -7.012   4.641 119.262  0.00  0.00    +0.000 A 
ATOM     49  C   UNL     1      -7.723   3.950 120.129  0.00  0.00    +0.000 A 
ENDBRANCH  43  44
ENDBRANCH  27  43
ENDBRANCH  26  27
ENDBRANCH   1  26
TORSDOF 14
ENDMDL
MODEL 6
REMARK VINA RESULT:     -11.8      2.531      5.989
REMARK  Name = Indinavir
REMARK  17 active torsions:
REMARK  status: ('A' for Active; 'I' for Inactive)
REMARK    1  A    between atoms: C_1  and  C_2
REMARK    2  A    between atoms: C_2  and  C_3
REMARK    3  A    between atoms: C_2  and  C_4
REMARK    4  A    between atoms: C_2  and  N_5
REMARK    5  A    between atoms: C_6  and  C_8
REMARK    6  A    between atoms: N_10  and  C_11
REMARK    7  A    between atoms: C_11  and  C_12
REMARK    8  A    between atoms: N_20  and  C_21
REMARK    9  A    between atoms: C_21  and  C_22
REMARK   10  A    between atoms: C_22  and  O_23
REMARK   11  A    between atoms: C_22  and  C_24
REMARK   12  A    between atoms: C_24  and  C_25
REMARK   13  A    between atoms: C_25  and  C_26
REMARK   14  A    between atoms: C_25  and  C_33
REMARK   15  A    between atoms: C_26  and  C_27
REMARK   16  A    between atoms: N_35  and  C_36
REMARK   17  A    between atoms: C_37  and  O_38
REMARK                            x       y       z     vdW  Elec       q    Type
REMARK                         _______ _______ _______ _____ _____    ______ ____
ROOT
ATOM      1  C   UNL     1      -8.648   2.329 128.418  0.00  0.00    +0.000 C 
ENDROOT
BRANCH   1   2
ATOM      2  O   UNL     1      -7.390   1.569 128.885  0.00  0.00    +0.000 OA
ATOM      3  H   UNL     1      -6.964   1.049 128.153  0.00  0.00    +0.000 HD
ENDBRANCH   1   2
BRANCH   1   4
ATOM      4  C   UNL     1      -7.738   2.461 127.239  0.00  0.00    +0.000 C 
BRANCH   4  10
ATOM      5  C   UNL     1      -8.257   1.560 124.908  0.00  0.00    +0.000 C 
ATOM      6  C   UNL     1      -6.923   1.521 124.153  0.00  0.00    +0.000 C 
ATOM      7  N   UNL     1      -6.728   2.820 123.552  0.00  0.00    +0.000 NA
ATOM      8  C   UNL     1      -6.901   3.786 124.674  0.00  0.00    +0.000 C 
ATOM      9  C   UNL     1      -8.295   3.809 125.378  0.00  0.00    +0.000 C 
ATOM     10  N   UNL     1      -8.579   2.539 125.998  0.00  0.00    +0.000 NA
BRANCH   5  12
ATOM     11  N   UNL     1      -7.554  -0.979 125.231  0.00  0.00    +0.000 N 
ATOM     12  C   UNL     1      -8.615   0.228 125.384  0.00  0.00    +0.000 C 
ATOM     13  O   UNL     1      -9.738   0.430 125.845  0.00  0.00    +0.000 OA
ATOM     14  H   UNL     1      -6.516  -0.964 125.192  0.00  0.00    +0.000 HD
BRANCH  11  16
ATOM     15  C   UNL     1      -5.641  -2.968 125.382  0.00  0.00    +0.000 C 
ATOM     16  C   UNL     1      -7.341  -2.306 125.750  0.00  0.00    +0.000 C 
ATOM     17  C   UNL     1      -8.243  -3.803 124.620  0.00  0.00    +0.000 C 
ATOM     18  C   UNL     1      -8.017  -2.568 127.814  0.00  0.00    +0.000 C 
ENDBRANCH  11  16
ENDBRANCH   5  12
BRANCH   7  19
ATOM     19  C   UNL     1      -7.737   3.061 122.510  0.00  0.00    +0.000 C 
BRANCH  19  20
ATOM     20  C   UNL     1      -7.203   3.761 121.294  0.00  0.00    +0.000 A 
ATOM     21  C   UNL     1      -7.997   3.972 120.193  0.00  0.00    +0.000 A 
ATOM     22  N   UNL     1      -7.541   4.524 119.044  0.00  0.00    +0.000 NA
ATOM     23  C   UNL     1      -6.250   4.931 119.017  0.00  0.00    +0.000 A 
ATOM     24  C   UNL     1      -5.383   4.811 120.066  0.00  0.00    +0.000 A 
ATOM     25  C   UNL     1      -5.863   4.149 121.168  0.00  0.00    +0.000 A 
ENDBRANCH  19  20
ENDBRANCH   7  19
ENDBRANCH   4  10
ENDBRANCH   1   4
BRANCH   1  26
ATOM     26  C   UNL     1      -8.842   3.045 129.756  0.00  0.00    +0.000 C 
BRANCH  26  27
ATOM     27  C   UNL     1      -8.245   4.839 130.205  0.00  0.00    +0.000 C 
BRANCH  27  28
ATOM     28  C   UNL     1      -6.836   4.413 130.782  0.00  0.00    +0.000 C 
ATOM     29  O   UNL     1      -6.563   4.313 131.979  0.00  0.00    +0.000 OA
ATOM     30  N   UNL     1      -5.881   4.385 129.830  0.00  0.00    +0.000 N 
ATOM     31  H   UNL     1      -6.176   4.663 128.909  0.00  0.00    +0.000 HD
BRANCH  30  32
ATOM     32  C   UNL     1      -4.449   4.479 130.134  0.00  0.00    +0.000 C 
ATOM     33  C   UNL     1      -3.970   5.996 130.139  0.00  0.00    +0.000 C 
ATOM     34  C   UNL     1      -2.828   6.047 129.041  0.00  0.00    +0.000 C 
ATOM     35  C   UNL     1      -2.872   4.713 128.391  0.00  0.00    +0.000 A 
ATOM     36  C   UNL     1      -2.169   4.336 127.274  0.00  0.00    +0.000 A 
ATOM     37  C   UNL     1      -2.523   3.146 126.647  0.00  0.00    +0.000 A 
ATOM     38  C   UNL     1      -3.422   2.257 127.243  0.00  0.00    +0.000 A 
ATOM     39  C   UNL     1      -4.072   2.614 128.413  0.00  0.00    +0.000 A 
ATOM     40  C   UNL     1      -3.782   3.854 128.970  0.00  0.00    +0.000 A 
BRANCH  33  41
ATOM     41  O   UNL     1      -4.571   6.597 131.282  0.00  0.00    +0.000 OA
ATOM     42  H   UNL     1      -4.730   7.542 131.066  0.00  0.00    +0.000 HD
ENDBRANCH  33  41
ENDBRANCH  30  32
ENDBRANCH  27  28
BRANCH  27  43
ATOM     43  C   UNL     1      -9.321   6.359 131.181  0.00  0.00    +0.000 C 
BRANCH  43  44
ATOM     44  C   UNL     1     -10.808   7.221 129.862  0.00  0.00    +0.000 A 
ATOM     45  C   UNL     1     -10.478   7.768 128.549  0.00  0.00    +0.000 A 
ATOM     46  C   UNL     1     -11.387   8.658 128.260  0.00  0.00    +0.000 A 
ATOM     47  C   UNL     1     -12.747   8.187 128.348  0.00  0.00    +0.000 A 
ATOM     48  C   UNL     1     -13.252   6.980 128.863  0.00  0.00    +0.000 A 
ATOM     49  C   UNL     1     -12.262   6.382 129.492  0.00  0.00    +0.000 A 
ENDBRANCH  43  44
ENDBRANCH  27  43
ENDBRANCH  26  27
ENDBRANCH   1  26
TORSDOF 14
ENDMDL
MODEL 7
REMARK VINA RESULT:     -11.8      4.223     10.402
REMARK  Name = Indinavir
REMARK  17 active torsions:
REMARK  status: ('A' for Active; 'I' for Inactive)
REMARK    1  A    between atoms: C_1  and  C_2
REMARK    2  A    between atoms: C_2  and  C_3
REMARK    3  A    between atoms: C_2  and  C_4
REMARK    4  A    between atoms: C_2  and  N_5
REMARK    5  A    between atoms: C_6  and  C_8
REMARK    6  A    between atoms: N_10  and  C_11
REMARK    7  A    between atoms: C_11  and  C_12
REMARK    8  A    between atoms: N_20  and  C_21
REMARK    9  A    between atoms: C_21  and  C_22
REMARK   10  A    between atoms: C_22  and  O_23
REMARK   11  A    between atoms: C_22  and  C_24
REMARK   12  A    between atoms: C_24  and  C_25
REMARK   13  A    between atoms: C_25  and  C_26
REMARK   14  A    between atoms: C_25  and  C_33
REMARK   15  A    between atoms: C_26  and  C_27
REMARK   16  A    between atoms: N_35  and  C_36
REMARK   17  A    between atoms: C_37  and  O_38
REMARK                            x       y       z     vdW  Elec       q    Type
REMARK                         _______ _______ _______ _____ _____    ______ ____
ROOT
ATOM      1  C   UNL     1      -5.885   3.134 126.548  0.00  0.00    +0.000 C 
ENDROOT
BRANCH   1   2
ATOM      2  O   UNL     1      -6.600   4.345 125.915  0.00  0.00    +0.000 OA
ATOM      3  H   UNL     1      -6.466   5.183 126.434  0.00  0.00    +0.000 HD
ENDBRANCH   1   2
BRANCH   1   4
ATOM      4  C   UNL     1      -5.070   4.285 127.046  0.00  0.00    +0.000 C 
BRANCH   4  10
ATOM      5  C   UNL     1      -4.876   4.749 129.548  0.00  0.00    +0.000 C 
ATOM      6  C   UNL     1      -4.550   6.241 129.687  0.00  0.00    +0.000 C 
ATOM      7  N   UNL     1      -3.115   6.380 129.602  0.00  0.00    +0.000 NA
ATOM      8  C   UNL     1      -2.739   5.666 128.348  0.00  0.00    +0.000 C 
ATOM      9  C   UNL     1      -3.059   4.139 128.282  0.00  0.00    +0.000 C 
ATOM     10  N   UNL     1      -4.479   3.906 128.373  0.00  0.00    +0.000 NA
BRANCH   5  12
ATOM     11  N   UNL     1      -6.778   3.023 130.219  0.00  0.00    +0.000 N 
ATOM     12  C   UNL     1      -6.291   4.508 129.812  0.00  0.00    +0.000 C 
ATOM     13  O   UNL     1      -6.761   5.634 129.661  0.00  0.00    +0.000 OA
ATOM     14  H   UNL     1      -6.268   2.251 130.692  0.00  0.00    +0.000 HD
BRANCH  11  16
ATOM     15  C   UNL     1      -7.687   1.926 132.588  0.00  0.00    +0.000 C 
ATOM     16  C   UNL     1      -7.930   2.383 130.800  0.00  0.00    +0.000 C 
ATOM     17  C   UNL     1      -8.147   0.387 130.249  0.00  0.00    +0.000 C 
ATOM     18  C   UNL     1      -9.822   3.381 130.342  0.00  0.00    +0.000 C 
ENDBRANCH  11  16
ENDBRANCH   5  12
BRANCH   7  19
ATOM     19  C   UNL     1      -2.469   5.750 130.762  0.00  0.00    +0.000 C 
BRANCH  19  20
ATOM     20  C   UNL     1      -1.879   6.728 131.738  0.00  0.00    +0.000 A 
ATOM     21  C   UNL     1      -2.579   7.842 132.133  0.00  0.00    +0.000 A 
ATOM     22  N   UNL     1      -2.062   8.793 132.944  0.00  0.00    +0.000 NA
ATOM     23  C   UNL     1      -0.811   8.593 133.424  0.00  0.00    +0.000 A 
ATOM     24  C   UNL     1      -0.042   7.502 133.133  0.00  0.00    +0.000 A 
ATOM     25  C   UNL     1      -0.570   6.621 132.223  0.00  0.00    +0.000 A 
ENDBRANCH  19  20
ENDBRANCH   7  19
ENDBRANCH   4  10
ENDBRANCH   1   4
BRANCH   1  26
ATOM     26  C   UNL     1      -5.954   2.293 125.272  0.00  0.00    +0.000 C 
BRANCH  26  27
ATOM     27  C   UNL     1      -7.565   1.725 124.345  0.00  0.00    +0.000 C 
BRANCH  27  28
ATOM     28  C   UNL     1      -7.153   0.206 124.198  0.00  0.00    +0.000 C 
ATOM     29  O   UNL     1      -6.718  -0.312 123.169  0.00  0.00    +0.000 OA
ATOM     30  N   UNL     1      -7.538  -0.533 125.258  0.00  0.00    +0.000 N 
ATOM     31  H   UNL     1      -8.052  -0.040 125.970  0.00  0.00    +0.000 HD
BRANCH  30  32
ATOM     32  C   UNL     1      -7.704  -1.990 125.197  0.00  0.00    +0.000 C 
ATOM     33  C   UNL     1      -9.207  -2.372 124.841  0.00  0.00    +0.000 C 
ATOM     34  C   UNL     1      -9.680  -3.267 126.061  0.00  0.00    +0.000 C 
ATOM     35  C   UNL     1      -8.575  -3.170 127.048  0.00  0.00    +0.000 A 
ATOM     36  C   UNL     1      -8.595  -3.655 128.332  0.00  0.00    +0.000 A 
ATOM     37  C   UNL     1      -7.588  -3.251 129.202  0.00  0.00    +0.000 A 
ATOM     38  C   UNL     1      -6.477  -2.542 128.738  0.00  0.00    +0.000 A 
ATOM     39  C   UNL     1      -6.429  -2.119 127.419  0.00  0.00    +0.000 A 
ATOM     40  C   UNL     1      -7.496  -2.444 126.590  0.00  0.00    +0.000 A 
BRANCH  33  41
ATOM     41  O   UNL     1      -9.406  -1.980 123.486  0.00  0.00    +0.000 OA
ATOM     42  H   UNL     1      -9.334  -2.788 122.933  0.00  0.00    +0.000 HD
ENDBRANCH  33  41
ENDBRANCH  30  32
ENDBRANCH  27  28
BRANCH  27  43
ATOM     43  C   UNL     1      -8.541   2.670 122.740  0.00  0.00    +0.000 C 
BRANCH  43  44
ATOM     44  C   UNL     1      -7.114   3.659 121.443  0.00  0.00    +0.000 A 
ATOM     45  C   UNL     1      -5.747   3.179 121.259  0.00  0.00    +0.000 A 
ATOM     46  C   UNL     1      -5.018   4.205 120.915  0.00  0.00    +0.000 A 
ATOM     47  C   UNL     1      -5.512   4.947 119.782  0.00  0.00    +0.000 A 
ATOM     48  C   UNL     1      -6.739   4.847 119.103  0.00  0.00    +0.000 A 
ATOM     49  C   UNL     1      -7.520   4.071 119.824  0.00  0.00    +0.000 A 
ENDBRANCH  43  44
ENDBRANCH  27  43
ENDBRANCH  26  27
ENDBRANCH   1  26
TORSDOF 14
ENDMDL
MODEL 8
REMARK VINA RESULT:     -11.7      2.669     11.032
REMARK  Name = Indinavir
REMARK  17 active torsions:
REMARK  status: ('A' for Active; 'I' for Inactive)
REMARK    1  A    between atoms: C_1  and  C_2
REMARK    2  A    between atoms: C_2  and  C_3
REMARK    3  A    between atoms: C_2  and  C_4
REMARK    4  A    between atoms: C_2  and  N_5
REMARK    5  A    between atoms: C_6  and  C_8
REMARK    6  A    between atoms: N_10  and  C_11
REMARK    7  A    between atoms: C_11  and  C_12
REMARK    8  A    between atoms: N_20  and  C_21
REMARK    9  A    between atoms: C_21  and  C_22
REMARK   10  A    between atoms: C_22  and  O_23
REMARK   11  A    between atoms: C_22  and  C_24
REMARK   12  A    between atoms: C_24  and  C_25
REMARK   13  A    between atoms: C_25  and  C_26
REMARK   14  A    between atoms: C_25  and  C_33
REMARK   15  A    between atoms: C_26  and  C_27
REMARK   16  A    between atoms: N_35  and  C_36
REMARK   17  A    between atoms: C_37  and  O_38
REMARK                            x       y       z     vdW  Elec       q    Type
REMARK                         _______ _______ _______ _____ _____    ______ ____
ROOT
ATOM      1  C   UNL     1      -7.602   2.653 128.343  0.00  0.00    +0.000 C 
ENDROOT
BRANCH   1   2
ATOM      2  O   UNL     1      -9.077   2.304 128.057  0.00  0.00    +0.000 OA
ATOM      3  H   UNL     1      -9.275   1.339 128.195  0.00  0.00    +0.000 HD
ENDBRANCH   1   2
BRANCH   1   4
ATOM      4  C   UNL     1      -8.322   3.863 128.849  0.00  0.00    +0.000 C 
BRANCH   4  10
ATOM      5  C   UNL     1      -9.572   4.662 130.925  0.00  0.00    +0.000 C 
ATOM      6  C   UNL     1      -8.812   5.890 131.441  0.00  0.00    +0.000 C 
ATOM      7  N   UNL     1      -7.766   5.414 132.316  0.00  0.00    +0.000 NA
ATOM      8  C   UNL     1      -7.037   4.391 131.513  0.00  0.00    +0.000 C 
ATOM      9  C   UNL     1      -7.853   3.143 131.051  0.00  0.00    +0.000 C 
ATOM     10  N   UNL     1      -8.933   3.529 130.178  0.00  0.00    +0.000 NA
BRANCH   5  12
ATOM     11  N   UNL     1     -10.895   6.600 129.684  0.00  0.00    +0.000 N 
ATOM     12  C   UNL     1     -10.761   5.071 130.184  0.00  0.00    +0.000 C 
ATOM     13  O   UNL     1     -11.381   4.010 130.118  0.00  0.00    +0.000 OA
ATOM     14  H   UNL     1     -10.165   7.300 129.450  0.00  0.00    +0.000 HD
BRANCH  11  16
ATOM     15  C   UNL     1     -12.335   8.951 129.488  0.00  0.00    +0.000 C 
ATOM     16  C   UNL     1     -11.683   7.369 128.754  0.00  0.00    +0.000 C 
ATOM     17  C   UNL     1     -13.606   6.628 128.471  0.00  0.00    +0.000 C 
ATOM     18  C   UNL     1     -10.775   7.566 126.774  0.00  0.00    +0.000 C 
ENDBRANCH  11  16
ENDBRANCH   5  12
BRANCH   7  19
ATOM     19  C   UNL     1      -8.343   4.802 133.521  0.00  0.00    +0.000 C 
BRANCH  19  20
ATOM     20  C   UNL     1      -7.508   4.982 134.757  0.00  0.00    +0.000 A 
ATOM     21  C   UNL     1      -6.448   4.149 135.022  0.00  0.00    +0.000 A 
ATOM     22  N   UNL     1      -5.718   4.218 136.159  0.00  0.00    +0.000 NA
ATOM     23  C   UNL     1      -6.027   5.196 137.042  0.00  0.00    +0.000 A 
ATOM     24  C   UNL     1      -7.031   6.105 136.862  0.00  0.00    +0.000 A 
ATOM     25  C   UNL     1      -7.809   5.926 135.746  0.00  0.00    +0.000 A 
ENDBRANCH  19  20
ENDBRANCH   7  19
ENDBRANCH   4  10
ENDBRANCH   1   4
BRANCH   1  26
ATOM     26  C   UNL     1      -7.108   2.141 126.989  0.00  0.00    +0.000 C 
BRANCH  26  27
ATOM     27  C   UNL     1      -7.075   3.133 125.319  0.00  0.00    +0.000 C 
BRANCH  27  28
ATOM     28  C   UNL     1      -8.080   2.194 124.539  0.00  0.00    +0.000 C 
ATOM     29  O   UNL     1      -9.235   2.494 124.233  0.00  0.00    +0.000 OA
ATOM     30  N   UNL     1      -7.621   0.931 124.433  0.00  0.00    +0.000 N 
ATOM     31  H   UNL     1      -6.738   0.749 124.881  0.00  0.00    +0.000 HD
BRANCH  30  32
ATOM     32  C   UNL     1      -8.500  -0.219 124.187  0.00  0.00    +0.000 C 
ATOM     33  C   UNL     1      -9.230  -0.668 125.527  0.00  0.00    +0.000 C 
ATOM     34  C   UNL     1      -8.794  -2.180 125.721  0.00  0.00    +0.000 C 
ATOM     35  C   UNL     1      -7.763  -2.409 124.677  0.00  0.00    +0.000 A 
ATOM     36  C   UNL     1      -6.980  -3.529 124.549  0.00  0.00    +0.000 A 
ATOM     37  C   UNL     1      -5.891  -3.473 123.685  0.00  0.00    +0.000 A 
ATOM     38  C   UNL     1      -5.712  -2.390 122.821  0.00  0.00    +0.000 A 
ATOM     39  C   UNL     1      -6.554  -1.293 122.905  0.00  0.00    +0.000 A 
ATOM     40  C   UNL     1      -7.575  -1.324 123.847  0.00  0.00    +0.000 A 
BRANCH  33  41
ATOM     41  O   UNL     1     -10.156   0.368 125.841  0.00  0.00    +0.000 OA
ATOM     42  H   UNL     1      -9.693   1.008 126.425  0.00  0.00    +0.000 HD
ENDBRANCH  33  41
ENDBRANCH  30  32
ENDBRANCH  27  28
BRANCH  27  43
ATOM     43  C   UNL     1      -5.405   3.899 124.295  0.00  0.00    +0.000 C 
BRANCH  43  44
ATOM     44  C   UNL     1      -5.855   4.195 122.196  0.00  0.00    +0.000 A 
ATOM     45  C   UNL     1      -4.876   3.966 121.138  0.00  0.00    +0.000 A 
ATOM     46  C   UNL     1      -5.218   4.714 120.125  0.00  0.00    +0.000 A 
ATOM     47  C   UNL     1      -6.579   4.549 119.680  0.00  0.00    +0.000 A 
ATOM     48  C   UNL     1      -7.642   3.843 120.269  0.00  0.00    +0.000 A 
ATOM     49  C   UNL     1      -7.256   3.501 121.481  0.00  0.00    +0.000 A 
ENDBRANCH  43  44
ENDBRANCH  27  43
ENDBRANCH  26  27
ENDBRANCH   1  26
TORSDOF 14
ENDMDL
MODEL 9
REMARK VINA RESULT:     -11.7      2.871      8.988
REMARK  Name = Indinavir
REMARK  17 active torsions:
REMARK  status: ('A' for Active; 'I' for Inactive)
REMARK    1  A    between atoms: C_1  and  C_2
REMARK    2  A    between atoms: C_2  and  C_3
REMARK    3  A    between atoms: C_2  and  C_4
REMARK    4  A    between atoms: C_2  and  N_5
REMARK    5  A    between atoms: C_6  and  C_8
REMARK    6  A    between atoms: N_10  and  C_11
REMARK    7  A    between atoms: C_11  and  C_12
REMARK    8  A    between atoms: N_20  and  C_21
REMARK    9  A    between atoms: C_21  and  C_22
REMARK   10  A    between atoms: C_22  and  O_23
REMARK   11  A    between atoms: C_22  and  C_24
REMARK   12  A    between atoms: C_24  and  C_25
REMARK   13  A    between atoms: C_25  and  C_26
REMARK   14  A    between atoms: C_25  and  C_33
REMARK   15  A    between atoms: C_26  and  C_27
REMARK   16  A    between atoms: N_35  and  C_36
REMARK   17  A    between atoms: C_37  and  O_38
REMARK                            x       y       z     vdW  Elec       q    Type
REMARK                         _______ _______ _______ _____ _____    ______ ____
ROOT
ATOM      1  C   UNL     1      -6.675   2.014 130.263  0.00  0.00    +0.000 C 
ENDROOT
BRANCH   1   2
ATOM      2  O   UNL     1      -6.474   1.311 131.621  0.00  0.00    +0.000 OA
ATOM      3  H   UNL     1      -5.515   1.166 131.839  0.00  0.00    +0.000 HD
ENDBRANCH   1   2
BRANCH   1   4
ATOM      4  C   UNL     1      -6.972   3.109 131.238  0.00  0.00    +0.000 C 
BRANCH   4  10
ATOM      5  C   UNL     1      -7.033   5.658 131.341  0.00  0.00    +0.000 C 
ATOM      6  C   UNL     1      -8.247   6.026 132.203  0.00  0.00    +0.000 C 
ATOM      7  N   UNL     1      -9.395   6.085 131.328  0.00  0.00    +0.000 NA
ATOM      8  C   UNL     1      -9.386   4.783 130.603  0.00  0.00    +0.000 C 
ATOM      9  C   UNL     1      -8.142   4.481 129.709  0.00  0.00    +0.000 C 
ATOM     10  N   UNL     1      -6.941   4.417 130.503  0.00  0.00    +0.000 NA
BRANCH   5  12
ATOM     11  N   UNL     1      -4.379   5.676 131.363  0.00  0.00    +0.000 N 
ATOM     12  C   UNL     1      -5.803   5.763 132.119  0.00  0.00    +0.000 C 
ATOM     13  O   UNL     1      -6.247   5.936 133.253  0.00  0.00    +0.000 OA
ATOM     14  H   UNL     1      -4.116   5.919 130.387  0.00  0.00    +0.000 HD
BRANCH  11  16
ATOM     15  C   UNL     1      -2.735   7.690 132.301  0.00  0.00    +0.000 C 
ATOM     16  C   UNL     1      -2.994   5.975 131.624  0.00  0.00    +0.000 C 
ATOM     17  C   UNL     1      -1.892   6.410 129.913  0.00  0.00    +0.000 C 
ATOM     18  C   UNL     1      -1.929   4.384 132.683  0.00  0.00    +0.000 C 
ENDBRANCH  11  16
ENDBRANCH   5  12
BRANCH   7  19
ATOM     19  C   UNL     1      -9.262   7.200 130.380  0.00  0.00    +0.000 C 
BRANCH  19  20
ATOM     20  C   UNL     1     -10.537   7.551 129.668  0.00  0.00    +0.000 A 
ATOM     21  C   UNL     1     -11.757   7.373 130.272  0.00  0.00    +0.000 A 
ATOM     22  N   UNL     1     -12.935   7.597 129.645  0.00  0.00    +0.000 NA
ATOM     23  C   UNL     1     -12.888   8.073 128.378  0.00  0.00    +0.000 A 
ATOM     24  C   UNL     1     -11.732   8.327 127.696  0.00  0.00    +0.000 A 
ATOM     25  C   UNL     1     -10.569   7.983 128.336  0.00  0.00    +0.000 A 
ENDBRANCH  19  20
ENDBRANCH   7  19
ENDBRANCH   4  10
ENDBRANCH   1   4
BRANCH   1  26
ATOM     26  C   UNL     1      -7.437   0.838 129.648  0.00  0.00    +0.000 C 
BRANCH  26  27
ATOM     27  C   UNL     1      -7.388   0.272 127.790  0.00  0.00    +0.000 C 
BRANCH  27  28
ATOM     28  C   UNL     1      -8.194   1.504 127.213  0.00  0.00    +0.000 C 
ATOM     29  O   UNL     1      -9.248   1.940 127.678  0.00  0.00    +0.000 OA
ATOM     30  N   UNL     1      -7.728   1.902 126.012  0.00  0.00    +0.000 N 
ATOM     31  H   UNL     1      -6.970   1.356 125.636  0.00  0.00    +0.000 HD
BRANCH  30  32
ATOM     32  C   UNL     1      -8.533   2.680 125.062  0.00  0.00    +0.000 C 
ATOM     33  C   UNL     1      -9.442   1.722 124.175  0.00  0.00    +0.000 C 
ATOM     34  C   UNL     1      -9.003   2.038 122.686  0.00  0.00    +0.000 C 
ATOM     35  C   UNL     1      -7.823   2.930 122.823  0.00  0.00    +0.000 A 
ATOM     36  C   UNL     1      -7.003   3.346 121.804  0.00  0.00    +0.000 A 
ATOM     37  C   UNL     1      -5.801   3.959 122.139  0.00  0.00    +0.000 A 
ATOM     38  C   UNL     1      -5.522   4.327 123.458  0.00  0.00    +0.000 A 
ATOM     39  C   UNL     1      -6.393   3.968 124.474  0.00  0.00    +0.000 A 
ATOM     40  C   UNL     1      -7.542   3.264 124.131  0.00  0.00    +0.000 A 
BRANCH  33  41
ATOM     41  O   UNL     1     -10.428   1.188 125.053  0.00  0.00    +0.000 OA
ATOM     42  H   UNL     1     -11.204   1.789 125.023  0.00  0.00    +0.000 HD
ENDBRANCH  33  41
ENDBRANCH  30  32
ENDBRANCH  27  28
BRANCH  27  43
ATOM     43  C   UNL     1      -7.766  -1.642 127.005  0.00  0.00    +0.000 C 
BRANCH  43  44
ATOM     44  C   UNL     1      -6.919  -1.843 125.021  0.00  0.00    +0.000 A 
ATOM     45  C   UNL     1      -6.582  -0.694 124.185  0.00  0.00    +0.000 A 
ATOM     46  C   UNL     1      -6.633  -1.090 122.943  0.00  0.00    +0.000 A 
ATOM     47  C   UNL     1      -5.840  -2.256 122.644  0.00  0.00    +0.000 A 
ATOM     48  C   UNL     1      -5.163  -3.133 123.510  0.00  0.00    +0.000 A 
ATOM     49  C   UNL     1      -5.553  -2.848 124.735  0.00  0.00    +0.000 A 
ENDBRANCH  43  44
ENDBRANCH  27  43
ENDBRANCH  26  27
ENDBRANCH   1  26
TORSDOF 14
ENDMDL
