MODEL 1
REMARK VINA RESULT:      -7.9      0.000      0.000
REMARK  Name = Indigotindisulfonic acid
REMARK  4 active torsions:
REMARK  status: ('A' for Active; 'I' for Inactive)
REMARK    1  A    between atoms: O_1  and  S_2
REMARK    2  A    between atoms: S_2  and  C_5
REMARK    3  A    between atoms: C_18  and  S_21
REMARK    4  A    between atoms: S_21  and  O_22
REMARK                            x       y       z     vdW  Elec       q    Type
REMARK                         _______ _______ _______ _____ _____    ______ ____
ROOT
ATOM      1  C   UNL     1     -11.758   7.743 129.835  0.00  0.00    +0.000 A 
ATOM      2  C   UNL     1     -10.393   7.435 129.782  0.00  0.00    +0.000 A 
ATOM      3  C   UNL     1      -9.883   6.673 130.822  0.00  0.00    +0.000 A 
ATOM      4  C   UNL     1     -10.679   6.170 131.864  0.00  0.00    +0.000 A 
ATOM      5  N   UNL     1      -9.949   5.330 132.695  0.00  0.00    +0.000 N 
ATOM      6  C   UNL     1      -8.624   5.301 132.309  0.00  0.00    +0.000 C 
ATOM      7  C   UNL     1      -8.508   6.188 131.083  0.00  0.00    +0.000 C 
ATOM      8  O   UNL     1      -7.522   6.402 130.401  0.00  0.00    +0.000 OA
ATOM      9  C   UNL     1      -7.564   4.613 132.758  0.00  0.00    +0.000 C 
ATOM     10  N   UNL     1      -6.210   4.777 132.544  0.00  0.00    +0.000 N 
ATOM     11  C   UNL     1      -5.491   3.769 133.173  0.00  0.00    +0.000 A 
ATOM     12  C   UNL     1      -6.349   2.830 133.766  0.00  0.00    +0.000 A 
ATOM     13  C   UNL     1      -5.894   1.663 134.358  0.00  0.00    +0.000 A 
ATOM     14  C   UNL     1      -4.508   1.468 134.386  0.00  0.00    +0.000 A 
ATOM     15  C   UNL     1      -3.623   2.431 133.848  0.00  0.00    +0.000 A 
ATOM     16  C   UNL     1      -4.123   3.591 133.232  0.00  0.00    +0.000 A 
ATOM     17  C   UNL     1      -7.726   3.350 133.583  0.00  0.00    +0.000 C 
ATOM     18  O   UNL     1      -8.757   2.820 133.953  0.00  0.00    +0.000 OA
ATOM     19  C   UNL     1     -12.006   6.541 131.953  0.00  0.00    +0.000 A 
ATOM     20  C   UNL     1     -12.549   7.344 130.936  0.00  0.00    +0.000 A 
ATOM     21  H   UNL     1     -10.289   4.808 133.492  0.00  0.00    +0.000 HD
ATOM     22  H   UNL     1      -5.841   5.591 132.071  0.00  0.00    +0.000 HD
ENDROOT
BRANCH   1  23
ATOM     23  S   UNL     1     -12.503   8.646 128.491  0.00  0.00    +0.000 S 
ATOM     24  O   UNL     1     -12.947   9.926 128.992  0.00  0.00    +0.000 OA
ATOM     25  O   UNL     1     -13.406   7.766 127.781  0.00  0.00    +0.000 OA
BRANCH  23  26
ATOM     26  O   UNL     1     -11.275   8.941 127.484  0.00  0.00    +0.000 OA
ATOM     27  H   UNL     1     -11.288   8.268 126.771  0.00  0.00    +0.000 HD
ENDBRANCH  23  26
ENDBRANCH   1  23
BRANCH  14  28
ATOM     28  S   UNL     1      -3.829   0.003 135.149  0.00  0.00    +0.000 S 
ATOM     29  O   UNL     1      -3.636   0.310 136.547  0.00  0.00    +0.000 OA
ATOM     30  O   UNL     1      -4.607  -1.137 134.710  0.00  0.00    +0.000 OA
BRANCH  28  31
ATOM     31  O   UNL     1      -2.359  -0.128 134.491  0.00  0.00    +0.000 OA
ATOM     32  H   UNL     1      -2.225   0.574 133.824  0.00  0.00    +0.000 HD
ENDBRANCH  28  31
ENDBRANCH  14  28
TORSDOF 4
ENDMDL
MODEL 2
REMARK VINA RESULT:      -7.8      8.258     12.647
REMARK  Name = Indigotindisulfonic acid
REMARK  4 active torsions:
REMARK  status: ('A' for Active; 'I' for Inactive)
REMARK    1  A    between atoms: O_1  and  S_2
REMARK    2  A    between atoms: S_2  and  C_5
REMARK    3  A    between atoms: C_18  and  S_21
REMARK    4  A    between atoms: S_21  and  O_22
REMARK                            x       y       z     vdW  Elec       q    Type
REMARK                         _______ _______ _______ _____ _____    ______ ____
ROOT
ATOM      1  C   UNL     1      -1.844  -3.670 134.695  0.00  0.00    +0.000 A 
ATOM      2  C   UNL     1      -2.854  -4.341 133.994  0.00  0.00    +0.000 A 
ATOM      3  C   UNL     1      -3.577  -3.596 133.074  0.00  0.00    +0.000 A 
ATOM      4  C   UNL     1      -3.300  -2.250 132.793  0.00  0.00    +0.000 A 
ATOM      5  N   UNL     1      -4.078  -1.783 131.740  0.00  0.00    +0.000 N 
ATOM      6  C   UNL     1      -4.967  -2.756 131.330  0.00  0.00    +0.000 C 
ATOM      7  C   UNL     1      -4.701  -3.979 132.189  0.00  0.00    +0.000 C 
ATOM      8  O   UNL     1      -5.233  -5.073 132.124  0.00  0.00    +0.000 OA
ATOM      9  C   UNL     1      -5.869  -2.799 130.339  0.00  0.00    +0.000 C 
ATOM     10  N   UNL     1      -6.921  -3.659 130.098  0.00  0.00    +0.000 N 
ATOM     11  C   UNL     1      -7.543  -3.344 128.897  0.00  0.00    +0.000 A 
ATOM     12  C   UNL     1      -6.870  -2.305 128.236  0.00  0.00    +0.000 A 
ATOM     13  C   UNL     1      -7.212  -1.875 126.963  0.00  0.00    +0.000 A 
ATOM     14  C   UNL     1      -8.311  -2.499 126.360  0.00  0.00    +0.000 A 
ATOM     15  C   UNL     1      -9.040  -3.506 127.034  0.00  0.00    +0.000 A 
ATOM     16  C   UNL     1      -8.648  -3.934 128.314  0.00  0.00    +0.000 A 
ATOM     17  C   UNL     1      -5.793  -1.858 129.151  0.00  0.00    +0.000 C 
ATOM     18  O   UNL     1      -4.980  -0.976 128.941  0.00  0.00    +0.000 OA
ATOM     19  C   UNL     1      -2.356  -1.573 133.541  0.00  0.00    +0.000 A 
ATOM     20  C   UNL     1      -1.629  -2.286 134.509  0.00  0.00    +0.000 A 
ATOM     21  H   UNL     1      -4.047  -0.867 131.314  0.00  0.00    +0.000 HD
ATOM     22  H   UNL     1      -7.218  -4.343 130.781  0.00  0.00    +0.000 HD
ENDROOT
BRANCH   1  23
ATOM     23  S   UNL     1      -0.817  -4.581 135.831  0.00  0.00    +0.000 S 
ATOM     24  O   UNL     1      -1.182  -5.977 135.757  0.00  0.00    +0.000 OA
ATOM     25  O   UNL     1      -0.787  -3.881 137.098  0.00  0.00    +0.000 OA
BRANCH  23  26
ATOM     26  O   UNL     1       0.669  -4.455 135.211  0.00  0.00    +0.000 OA
ATOM     27  H   UNL     1       0.821  -5.214 134.610  0.00  0.00    +0.000 HD
ENDBRANCH  23  26
ENDBRANCH   1  23
BRANCH  14  28
ATOM     28  S   UNL     1      -8.839  -1.995 124.731  0.00  0.00    +0.000 S 
ATOM     29  O   UNL     1      -9.583  -0.768 124.892  0.00  0.00    +0.000 OA
ATOM     30  O   UNL     1      -7.704  -2.096 123.837  0.00  0.00    +0.000 OA
BRANCH  28  31
ATOM     31  O   UNL     1      -9.902  -3.133 124.301  0.00  0.00    +0.000 OA
ATOM     32  H   UNL     1      -9.884  -3.262 123.332  0.00  0.00    +0.000 HD
ENDBRANCH  28  31
ENDBRANCH  14  28
TORSDOF 4
ENDMDL
MODEL 3
REMARK VINA RESULT:      -7.7      7.750     12.210
REMARK  Name = Indigotindisulfonic acid
REMARK  4 active torsions:
REMARK  status: ('A' for Active; 'I' for Inactive)
REMARK    1  A    between atoms: O_1  and  S_2
REMARK    2  A    between atoms: S_2  and  C_5
REMARK    3  A    between atoms: C_18  and  S_21
REMARK    4  A    between atoms: S_21  and  O_22
REMARK                            x       y       z     vdW  Elec       q    Type
REMARK                         _______ _______ _______ _____ _____    ______ ____
ROOT
ATOM      1  C   UNL     1      -4.035  -4.056 132.731  0.00  0.00    +0.000 A 
ATOM      2  C   UNL     1      -3.912  -2.948 131.883  0.00  0.00    +0.000 A 
ATOM      3  C   UNL     1      -4.668  -2.965 130.721  0.00  0.00    +0.000 A 
ATOM      4  C   UNL     1      -5.565  -3.997 130.406  0.00  0.00    +0.000 A 
ATOM      5  N   UNL     1      -6.292  -3.702 129.259  0.00  0.00    +0.000 N 
ATOM      6  C   UNL     1      -5.858  -2.514 128.705  0.00  0.00    +0.000 C 
ATOM      7  C   UNL     1      -4.766  -1.982 129.616  0.00  0.00    +0.000 C 
ATOM      8  O   UNL     1      -4.149  -0.937 129.519  0.00  0.00    +0.000 OA
ATOM      9  C   UNL     1      -6.274  -1.802 127.648  0.00  0.00    +0.000 C 
ATOM     10  N   UNL     1      -5.681  -0.766 126.954  0.00  0.00    +0.000 N 
ATOM     11  C   UNL     1      -6.531  -0.296 125.961  0.00  0.00    +0.000 A 
ATOM     12  C   UNL     1      -7.773  -0.947 126.008  0.00  0.00    +0.000 A 
ATOM     13  C   UNL     1      -8.843  -0.587 125.204  0.00  0.00    +0.000 A 
ATOM     14  C   UNL     1      -8.623   0.447 124.286  0.00  0.00    +0.000 A 
ATOM     15  C   UNL     1      -7.360   1.075 124.181  0.00  0.00    +0.000 A 
ATOM     16  C   UNL     1      -6.306   0.700 125.030  0.00  0.00    +0.000 A 
ATOM     17  C   UNL     1      -7.658  -1.989 127.056  0.00  0.00    +0.000 C 
ATOM     18  O   UNL     1      -8.526  -2.767 127.406  0.00  0.00    +0.000 OA
ATOM     19  C   UNL     1      -5.625  -5.122 131.206  0.00  0.00    +0.000 A 
ATOM     20  C   UNL     1      -4.844  -5.157 132.374  0.00  0.00    +0.000 A 
ATOM     21  H   UNL     1      -7.028  -4.254 128.840  0.00  0.00    +0.000 HD
ATOM     22  H   UNL     1      -4.722  -0.493 127.121  0.00  0.00    +0.000 HD
ENDROOT
BRANCH   1  23
ATOM     23  S   UNL     1      -3.160  -4.068 134.284  0.00  0.00    +0.000 S 
ATOM     24  O   UNL     1      -3.871  -4.928 135.202  0.00  0.00    +0.000 OA
ATOM     25  O   UNL     1      -2.824  -2.707 134.642  0.00  0.00    +0.000 OA
BRANCH  23  26
ATOM     26  O   UNL     1      -1.763  -4.803 133.945  0.00  0.00    +0.000 OA
ATOM     27  H   UNL     1      -1.031  -4.168 134.095  0.00  0.00    +0.000 HD
ENDBRANCH  23  26
ENDBRANCH   1  23
BRANCH  14  28
ATOM     28  S   UNL     1      -9.937   0.963 123.193  0.00  0.00    +0.000 S 
ATOM     29  O   UNL     1      -9.477   2.156 122.519  0.00  0.00    +0.000 OA
ATOM     30  O   UNL     1     -10.405  -0.200 122.468  0.00  0.00    +0.000 OA
BRANCH  28  31
ATOM     31  O   UNL     1     -11.118   1.420 124.197  0.00  0.00    +0.000 OA
ATOM     32  H   UNL     1     -11.042   0.940 125.046  0.00  0.00    +0.000 HD
ENDBRANCH  28  31
ENDBRANCH  14  28
TORSDOF 4
ENDMDL
MODEL 4
REMARK VINA RESULT:      -7.7      3.841      4.377
REMARK  Name = Indigotindisulfonic acid
REMARK  4 active torsions:
REMARK  status: ('A' for Active; 'I' for Inactive)
REMARK    1  A    between atoms: O_1  and  S_2
REMARK    2  A    between atoms: S_2  and  C_5
REMARK    3  A    between atoms: C_18  and  S_21
REMARK    4  A    between atoms: S_21  and  O_22
REMARK                            x       y       z     vdW  Elec       q    Type
REMARK                         _______ _______ _______ _____ _____    ______ ____
ROOT
ATOM      1  C   UNL     1     -11.189   6.096 130.959  0.00  0.00    +0.000 A 
ATOM      2  C   UNL     1     -10.783   5.046 130.126  0.00  0.00    +0.000 A 
ATOM      3  C   UNL     1      -9.834   4.174 130.637  0.00  0.00    +0.000 A 
ATOM      4  C   UNL     1      -9.326   4.275 131.941  0.00  0.00    +0.000 A 
ATOM      5  N   UNL     1      -8.498   3.201 132.245  0.00  0.00    +0.000 N 
ATOM      6  C   UNL     1      -8.340   2.387 131.141  0.00  0.00    +0.000 C 
ATOM      7  C   UNL     1      -9.185   2.987 130.032  0.00  0.00    +0.000 C 
ATOM      8  O   UNL     1      -9.365   2.556 128.908  0.00  0.00    +0.000 OA
ATOM      9  C   UNL     1      -7.691   1.229 130.956  0.00  0.00    +0.000 C 
ATOM     10  N   UNL     1      -7.323   0.561 129.804  0.00  0.00    +0.000 N 
ATOM     11  C   UNL     1      -6.719  -0.650 130.115  0.00  0.00    +0.000 A 
ATOM     12  C   UNL     1      -6.737  -0.885 131.499  0.00  0.00    +0.000 A 
ATOM     13  C   UNL     1      -6.303  -2.072 132.067  0.00  0.00    +0.000 A 
ATOM     14  C   UNL     1      -5.791  -3.040 131.195  0.00  0.00    +0.000 A 
ATOM     15  C   UNL     1      -5.708  -2.798 129.803  0.00  0.00    +0.000 A 
ATOM     16  C   UNL     1      -6.180  -1.592 129.260  0.00  0.00    +0.000 A 
ATOM     17  C   UNL     1      -7.309   0.334 132.120  0.00  0.00    +0.000 C 
ATOM     18  O   UNL     1      -7.499   0.523 133.307  0.00  0.00    +0.000 OA
ATOM     19  C   UNL     1      -9.671   5.355 132.730  0.00  0.00    +0.000 A 
ATOM     20  C   UNL     1     -10.602   6.281 132.230  0.00  0.00    +0.000 A 
ATOM     21  H   UNL     1      -8.038   3.011 133.125  0.00  0.00    +0.000 HD
ATOM     22  H   UNL     1      -7.414   0.985 128.891  0.00  0.00    +0.000 HD
ENDROOT
BRANCH   1  23
ATOM     23  S   UNL     1     -12.467   7.208 130.403  0.00  0.00    +0.000 S 
ATOM     24  O   UNL     1     -11.839   8.401 129.885  0.00  0.00    +0.000 OA
ATOM     25  O   UNL     1     -13.494   7.284 131.419  0.00  0.00    +0.000 OA
BRANCH  23  26
ATOM     26  O   UNL     1     -13.133   6.447 129.144  0.00  0.00    +0.000 OA
ATOM     27  H   UNL     1     -14.027   6.819 128.992  0.00  0.00    +0.000 HD
ENDBRANCH  23  26
ENDBRANCH   1  23
BRANCH  14  28
ATOM     28  S   UNL     1      -5.188  -4.592 131.839  0.00  0.00    +0.000 S 
ATOM     29  O   UNL     1      -5.591  -5.618 130.905  0.00  0.00    +0.000 OA
ATOM     30  O   UNL     1      -3.808  -4.410 132.236  0.00  0.00    +0.000 OA
BRANCH  28  31
ATOM     31  O   UNL     1      -6.058  -4.815 133.182  0.00  0.00    +0.000 OA
ATOM     32  H   UNL     1      -6.543  -5.663 133.133  0.00  0.00    +0.000 HD
ENDBRANCH  28  31
ENDBRANCH  14  28
TORSDOF 4
ENDMDL
MODEL 5
REMARK VINA RESULT:      -7.7      8.029      8.734
REMARK  Name = Indigotindisulfonic acid
REMARK  4 active torsions:
REMARK  status: ('A' for Active; 'I' for Inactive)
REMARK    1  A    between atoms: O_1  and  S_2
REMARK    2  A    between atoms: S_2  and  C_5
REMARK    3  A    between atoms: C_18  and  S_21
REMARK    4  A    between atoms: S_21  and  O_22
REMARK                            x       y       z     vdW  Elec       q    Type
REMARK                         _______ _______ _______ _____ _____    ______ ____
ROOT
ATOM      1  C   UNL     1      -8.613  -2.303 125.386  0.00  0.00    +0.000 A 
ATOM      2  C   UNL     1      -7.560  -1.649 126.040  0.00  0.00    +0.000 A 
ATOM      3  C   UNL     1      -7.280  -2.058 127.335  0.00  0.00    +0.000 A 
ATOM      4  C   UNL     1      -7.959  -3.109 127.969  0.00  0.00    +0.000 A 
ATOM      5  N   UNL     1      -7.393  -3.403 129.204  0.00  0.00    +0.000 N 
ATOM      6  C   UNL     1      -6.378  -2.514 129.493  0.00  0.00    +0.000 C 
ATOM      7  C   UNL     1      -6.264  -1.580 128.301  0.00  0.00    +0.000 C 
ATOM      8  O   UNL     1      -5.464  -0.680 128.126  0.00  0.00    +0.000 OA
ATOM      9  C   UNL     1      -5.520  -2.421 130.519  0.00  0.00    +0.000 C 
ATOM     10  N   UNL     1      -4.691  -1.395 130.927  0.00  0.00    +0.000 N 
ATOM     11  C   UNL     1      -3.929  -1.789 132.020  0.00  0.00    +0.000 A 
ATOM     12  C   UNL     1      -4.155  -3.138 132.334  0.00  0.00    +0.000 A 
ATOM     13  C   UNL     1      -3.437  -3.816 133.307  0.00  0.00    +0.000 A 
ATOM     14  C   UNL     1      -2.482  -3.077 134.015  0.00  0.00    +0.000 A 
ATOM     15  C   UNL     1      -2.281  -1.702 133.755  0.00  0.00    +0.000 A 
ATOM     16  C   UNL     1      -3.011  -1.054 132.744  0.00  0.00    +0.000 A 
ATOM     17  C   UNL     1      -5.232  -3.603 131.426  0.00  0.00    +0.000 C 
ATOM     18  O   UNL     1      -5.711  -4.720 131.380  0.00  0.00    +0.000 OA
ATOM     19  C   UNL     1      -9.045  -3.697 127.350  0.00  0.00    +0.000 A 
ATOM     20  C   UNL     1      -9.383  -3.282 126.051  0.00  0.00    +0.000 A 
ATOM     21  H   UNL     1      -7.664  -4.138 129.843  0.00  0.00    +0.000 HD
ATOM     22  H   UNL     1      -4.744  -0.473 130.517  0.00  0.00    +0.000 HD
ENDROOT
BRANCH   1  23
ATOM     23  S   UNL     1      -8.977  -1.891 123.690  0.00  0.00    +0.000 S 
ATOM     24  O   UNL     1      -7.803  -2.165 122.893  0.00  0.00    +0.000 OA
ATOM     25  O   UNL     1      -9.622  -0.596 123.652  0.00  0.00    +0.000 OA
BRANCH  23  26
ATOM     26  O   UNL     1     -10.098  -2.967 123.253  0.00  0.00    +0.000 OA
ATOM     27  H   UNL     1      -9.891  -3.285 122.349  0.00  0.00    +0.000 HD
ENDBRANCH  23  26
ENDBRANCH   1  23
BRANCH  14  28
ATOM     28  S   UNL     1      -1.524  -3.861 135.302  0.00  0.00    +0.000 S 
ATOM     29  O   UNL     1      -1.290  -2.861 136.318  0.00  0.00    +0.000 OA
ATOM     30  O   UNL     1      -2.135  -5.139 135.605  0.00  0.00    +0.000 OA
BRANCH  28  31
ATOM     31  O   UNL     1      -0.100  -4.155 134.598  0.00  0.00    +0.000 OA
ATOM     32  H   UNL     1      -0.222  -4.734 133.820  0.00  0.00    +0.000 HD
ENDBRANCH  28  31
ENDBRANCH  14  28
TORSDOF 4
ENDMDL
MODEL 6
REMARK VINA RESULT:      -7.6      7.712      8.369
REMARK  Name = Indigotindisulfonic acid
REMARK  4 active torsions:
REMARK  status: ('A' for Active; 'I' for Inactive)
REMARK    1  A    between atoms: O_1  and  S_2
REMARK    2  A    between atoms: S_2  and  C_5
REMARK    3  A    between atoms: C_18  and  S_21
REMARK    4  A    between atoms: S_21  and  O_22
REMARK                            x       y       z     vdW  Elec       q    Type
REMARK                         _______ _______ _______ _____ _____    ______ ____
ROOT
ATOM      1  C   UNL     1      -8.508   0.428 124.313  0.00  0.00    +0.000 A 
ATOM      2  C   UNL     1      -8.704  -0.624 125.217  0.00  0.00    +0.000 A 
ATOM      3  C   UNL     1      -7.638  -0.943 126.044  0.00  0.00    +0.000 A 
ATOM      4  C   UNL     1      -6.428  -0.232 126.042  0.00  0.00    +0.000 A 
ATOM      5  N   UNL     1      -5.585  -0.668 127.056  0.00  0.00    +0.000 N 
ATOM      6  C   UNL     1      -6.144  -1.741 127.721  0.00  0.00    +0.000 C 
ATOM      7  C   UNL     1      -7.500  -1.989 127.085  0.00  0.00    +0.000 C 
ATOM      8  O   UNL     1      -8.339  -2.812 127.401  0.00  0.00    +0.000 OA
ATOM      9  C   UNL     1      -5.745  -2.457 128.781  0.00  0.00    +0.000 C 
ATOM     10  N   UNL     1      -6.171  -3.674 129.275  0.00  0.00    +0.000 N 
ATOM     11  C   UNL     1      -5.497  -3.988 130.448  0.00  0.00    +0.000 A 
ATOM     12  C   UNL     1      -4.647  -2.941 130.839  0.00  0.00    +0.000 A 
ATOM     13  C   UNL     1      -3.947  -2.946 132.035  0.00  0.00    +0.000 A 
ATOM     14  C   UNL     1      -4.084  -4.081 132.842  0.00  0.00    +0.000 A 
ATOM     15  C   UNL     1      -4.888  -5.173 132.438  0.00  0.00    +0.000 A 
ATOM     16  C   UNL     1      -5.604  -5.122 131.230  0.00  0.00    +0.000 A 
ATOM     17  C   UNL     1      -4.715  -1.925 129.761  0.00  0.00    +0.000 C 
ATOM     18  O   UNL     1      -4.125  -0.862 129.727  0.00  0.00    +0.000 OA
ATOM     19  C   UNL     1      -6.213   0.753 125.097  0.00  0.00    +0.000 A 
ATOM     20  C   UNL     1      -7.259   1.078 124.216  0.00  0.00    +0.000 A 
ATOM     21  H   UNL     1      -4.676  -0.298 127.299  0.00  0.00    +0.000 HD
ATOM     22  H   UNL     1      -6.814  -4.261 128.761  0.00  0.00    +0.000 HD
ENDROOT
BRANCH   1  23
ATOM     23  S   UNL     1      -9.861   0.951 123.276  0.00  0.00    +0.000 S 
ATOM     24  O   UNL     1     -10.360  -0.202 122.562  0.00  0.00    +0.000 OA
ATOM     25  O   UNL     1      -9.473   2.156 122.575  0.00  0.00    +0.000 OA
BRANCH  23  26
ATOM     26  O   UNL     1     -11.014   1.386 124.320  0.00  0.00    +0.000 OA
ATOM     27  H   UNL     1     -10.931   0.834 125.125  0.00  0.00    +0.000 HD
ENDBRANCH  23  26
ENDBRANCH   1  23
BRANCH  14  28
ATOM     28  S   UNL     1      -3.202  -4.186 134.391  0.00  0.00    +0.000 S 
ATOM     29  O   UNL     1      -3.108  -2.842 134.911  0.00  0.00    +0.000 OA
ATOM     30  O   UNL     1      -3.770  -5.272 135.161  0.00  0.00    +0.000 OA
BRANCH  28  31
ATOM     31  O   UNL     1      -1.709  -4.624 133.955  0.00  0.00    +0.000 OA
ATOM     32  H   UNL     1      -1.048  -4.053 134.395  0.00  0.00    +0.000 HD
ENDBRANCH  28  31
ENDBRANCH  14  28
TORSDOF 4
ENDMDL
MODEL 7
REMARK VINA RESULT:      -7.6      2.426      2.553
REMARK  Name = Indigotindisulfonic acid
REMARK  4 active torsions:
REMARK  status: ('A' for Active; 'I' for Inactive)
REMARK    1  A    between atoms: O_1  and  S_2
REMARK    2  A    between atoms: S_2  and  C_5
REMARK    3  A    between atoms: C_18  and  S_21
REMARK    4  A    between atoms: S_21  and  O_22
REMARK                            x       y       z     vdW  Elec       q    Type
REMARK                         _______ _______ _______ _____ _____    ______ ____
ROOT
ATOM      1  C   UNL     1     -11.512   7.373 129.774  0.00  0.00    +0.000 A 
ATOM      2  C   UNL     1     -10.376   6.740 129.253  0.00  0.00    +0.000 A 
ATOM      3  C   UNL     1      -9.771   5.785 130.056  0.00  0.00    +0.000 A 
ATOM      4  C   UNL     1     -10.278   5.406 131.309  0.00  0.00    +0.000 A 
ATOM      5  N   UNL     1      -9.564   4.339 131.840  0.00  0.00    +0.000 N 
ATOM      6  C   UNL     1      -8.501   4.014 131.021  0.00  0.00    +0.000 C 
ATOM      7  C   UNL     1      -8.569   4.950 129.828  0.00  0.00    +0.000 C 
ATOM      8  O   UNL     1      -7.847   4.971 128.848  0.00  0.00    +0.000 OA
ATOM      9  C   UNL     1      -7.576   3.045 131.079  0.00  0.00    +0.000 C 
ATOM     10  N   UNL     1      -6.379   2.884 130.411  0.00  0.00    +0.000 N 
ATOM     11  C   UNL     1      -5.786   1.676 130.756  0.00  0.00    +0.000 A 
ATOM     12  C   UNL     1      -6.615   0.932 131.611  0.00  0.00    +0.000 A 
ATOM     13  C   UNL     1      -6.316  -0.360 132.013  0.00  0.00    +0.000 A 
ATOM     14  C   UNL     1      -5.105  -0.897 131.561  0.00  0.00    +0.000 A 
ATOM     15  C   UNL     1      -4.227  -0.141 130.749  0.00  0.00    +0.000 A 
ATOM     16  C   UNL     1      -4.575   1.157 130.341  0.00  0.00    +0.000 A 
ATOM     17  C   UNL     1      -7.783   1.794 131.912  0.00  0.00    +0.000 C 
ATOM     18  O   UNL     1      -8.734   1.508 132.616  0.00  0.00    +0.000 OA
ATOM     19  C   UNL     1     -11.351   6.087 131.850  0.00  0.00    +0.000 A 
ATOM     20  C   UNL     1     -11.967   7.089 131.080  0.00  0.00    +0.000 A 
ATOM     21  H   UNL     1      -9.746   3.850 132.706  0.00  0.00    +0.000 HD
ATOM     22  H   UNL     1      -5.985   3.619 129.838  0.00  0.00    +0.000 HD
ENDROOT
BRANCH   1  23
ATOM     23  S   UNL     1     -12.393   8.551 128.766  0.00  0.00    +0.000 S 
ATOM     24  O   UNL     1     -12.762   9.674 129.595  0.00  0.00    +0.000 OA
ATOM     25  O   UNL     1     -13.381   7.845 127.979  0.00  0.00    +0.000 OA
BRANCH  23  26
ATOM     26  O   UNL     1     -11.284   9.087 127.722  0.00  0.00    +0.000 OA
ATOM     27  H   UNL     1     -11.743   9.425 126.925  0.00  0.00    +0.000 HD
ENDBRANCH  23  26
ENDBRANCH   1  23
BRANCH  14  28
ATOM     28  S   UNL     1      -4.625  -2.548 132.047  0.00  0.00    +0.000 S 
ATOM     29  O   UNL     1      -4.962  -2.687 133.444  0.00  0.00    +0.000 OA
ATOM     30  O   UNL     1      -5.108  -3.472 131.042  0.00  0.00    +0.000 OA
BRANCH  28  31
ATOM     31  O   UNL     1      -3.013  -2.524 131.954  0.00  0.00    +0.000 OA
ATOM     32  H   UNL     1      -2.696  -1.607 131.829  0.00  0.00    +0.000 HD
ENDBRANCH  28  31
ENDBRANCH  14  28
TORSDOF 4
ENDMDL
MODEL 8
REMARK VINA RESULT:      -7.6      3.582     10.046
REMARK  Name = Indigotindisulfonic acid
REMARK  4 active torsions:
REMARK  status: ('A' for Active; 'I' for Inactive)
REMARK    1  A    between atoms: O_1  and  S_2
REMARK    2  A    between atoms: S_2  and  C_5
REMARK    3  A    between atoms: C_18  and  S_21
REMARK    4  A    between atoms: S_21  and  O_22
REMARK                            x       y       z     vdW  Elec       q    Type
REMARK                         _______ _______ _______ _____ _____    ______ ____
ROOT
ATOM      1  C   UNL     1      -5.311  -2.701 131.454  0.00  0.00    +0.000 A 
ATOM      2  C   UNL     1      -5.884  -1.723 132.278  0.00  0.00    +0.000 A 
ATOM      3  C   UNL     1      -6.385  -0.593 131.650  0.00  0.00    +0.000 A 
ATOM      4  C   UNL     1      -6.387  -0.429 130.257  0.00  0.00    +0.000 A 
ATOM      5  N   UNL     1      -7.067   0.724 129.885  0.00  0.00    +0.000 N 
ATOM      6  C   UNL     1      -7.471   1.427 131.002  0.00  0.00    +0.000 C 
ATOM      7  C   UNL     1      -7.032   0.617 132.209  0.00  0.00    +0.000 C 
ATOM      8  O   UNL     1      -7.230   0.856 133.386  0.00  0.00    +0.000 OA
ATOM      9  C   UNL     1      -8.189   2.549 131.155  0.00  0.00    +0.000 C 
ATOM     10  N   UNL     1      -8.366   3.378 132.245  0.00  0.00    +0.000 N 
ATOM     11  C   UNL     1      -9.262   4.396 131.943  0.00  0.00    +0.000 A 
ATOM     12  C   UNL     1      -9.792   4.236 130.653  0.00  0.00    +0.000 A 
ATOM     13  C   UNL     1     -10.796   5.047 130.146  0.00  0.00    +0.000 A 
ATOM     14  C   UNL     1     -11.243   6.087 130.968  0.00  0.00    +0.000 A 
ATOM     15  C   UNL     1     -10.678   6.302 132.247  0.00  0.00    +0.000 A 
ATOM     16  C   UNL     1      -9.680   5.444 132.739  0.00  0.00    +0.000 A 
ATOM     17  C   UNL     1      -9.090   3.075 130.054  0.00  0.00    +0.000 C 
ATOM     18  O   UNL     1      -9.271   2.611 128.944  0.00  0.00    +0.000 OA
ATOM     19  C   UNL     1      -5.752  -1.359 129.456  0.00  0.00    +0.000 A 
ATOM     20  C   UNL     1      -5.199  -2.500 130.061  0.00  0.00    +0.000 A 
ATOM     21  H   UNL     1      -7.249   1.053 128.946  0.00  0.00    +0.000 HD
ATOM     22  H   UNL     1      -7.820   3.272 133.090  0.00  0.00    +0.000 HD
ENDROOT
BRANCH   1  23
ATOM     23  S   UNL     1      -4.722  -4.218 132.181  0.00  0.00    +0.000 S 
ATOM     24  O   UNL     1      -3.284  -4.142 132.293  0.00  0.00    +0.000 OA
ATOM     25  O   UNL     1      -5.363  -5.333 131.517  0.00  0.00    +0.000 OA
BRANCH  23  26
ATOM     26  O   UNL     1      -5.308  -4.191 133.685  0.00  0.00    +0.000 OA
ATOM     27  H   UNL     1      -5.531  -5.108 133.950  0.00  0.00    +0.000 HD
ENDBRANCH  23  26
ENDBRANCH   1  23
BRANCH  14  28
ATOM     28  S   UNL     1     -12.517   7.197 130.390  0.00  0.00    +0.000 S 
ATOM     29  O   UNL     1     -13.555   7.202 131.394  0.00  0.00    +0.000 OA
ATOM     30  O   UNL     1     -11.881   8.414 129.932  0.00  0.00    +0.000 OA
BRANCH  28  31
ATOM     31  O   UNL     1     -13.123   6.445 129.094  0.00  0.00    +0.000 OA
ATOM     32  H   UNL     1     -13.989   6.046 129.311  0.00  0.00    +0.000 HD
ENDBRANCH  28  31
ENDBRANCH  14  28
TORSDOF 4
ENDMDL
MODEL 9
REMARK VINA RESULT:      -7.5      7.153      7.993
REMARK  Name = Indigotindisulfonic acid
REMARK  4 active torsions:
REMARK  status: ('A' for Active; 'I' for Inactive)
REMARK    1  A    between atoms: O_1  and  S_2
REMARK    2  A    between atoms: S_2  and  C_5
REMARK    3  A    between atoms: C_18  and  S_21
REMARK    4  A    between atoms: S_21  and  O_22
REMARK                            x       y       z     vdW  Elec       q    Type
REMARK                         _______ _______ _______ _____ _____    ______ ____
ROOT
ATOM      1  C   UNL     1      -9.265   0.678 124.679  0.00  0.00    +0.000 A 
ATOM      2  C   UNL     1      -8.868  -0.598 125.101  0.00  0.00    +0.000 A 
ATOM      3  C   UNL     1      -8.253  -0.681 126.341  0.00  0.00    +0.000 A 
ATOM      4  C   UNL     1      -8.073   0.427 127.182  0.00  0.00    +0.000 A 
ATOM      5  N   UNL     1      -7.558   0.046 128.415  0.00  0.00    +0.000 N 
ATOM      6  C   UNL     1      -7.286  -1.307 128.428  0.00  0.00    +0.000 C 
ATOM      7  C   UNL     1      -7.706  -1.848 127.072  0.00  0.00    +0.000 C 
ATOM      8  O   UNL     1      -7.680  -3.001 126.683  0.00  0.00    +0.000 OA
ATOM      9  C   UNL     1      -6.838  -2.132 129.384  0.00  0.00    +0.000 C 
ATOM     10  N   UNL     1      -6.328  -3.414 129.320  0.00  0.00    +0.000 N 
ATOM     11  C   UNL     1      -6.054  -3.893 130.594  0.00  0.00    +0.000 A 
ATOM     12  C   UNL     1      -6.455  -2.976 131.578  0.00  0.00    +0.000 A 
ATOM     13  C   UNL     1      -6.403  -3.255 132.935  0.00  0.00    +0.000 A 
ATOM     14  C   UNL     1      -5.880  -4.500 133.303  0.00  0.00    +0.000 A 
ATOM     15  C   UNL     1      -5.413  -5.414 132.330  0.00  0.00    +0.000 A 
ATOM     16  C   UNL     1      -5.505  -5.107 130.962  0.00  0.00    +0.000 A 
ATOM     17  C   UNL     1      -6.928  -1.771 130.855  0.00  0.00    +0.000 C 
ATOM     18  O   UNL     1      -7.366  -0.750 131.353  0.00  0.00    +0.000 OA
ATOM     19  C   UNL     1      -8.395   1.692 126.729  0.00  0.00    +0.000 A 
ATOM     20  C   UNL     1      -8.986   1.820 125.461  0.00  0.00    +0.000 A 
ATOM     21  H   UNL     1      -7.373   0.640 129.213  0.00  0.00    +0.000 HD
ATOM     22  H   UNL     1      -6.111  -3.857 128.438  0.00  0.00    +0.000 HD
ENDROOT
BRANCH   1  23
ATOM     23  S   UNL     1     -10.138   0.853 123.134  0.00  0.00    +0.000 S 
ATOM     24  O   UNL     1     -10.247  -0.450 122.522  0.00  0.00    +0.000 OA
ATOM     25  O   UNL     1      -9.584   1.977 122.410  0.00  0.00    +0.000 OA
BRANCH  23  26
ATOM     26  O   UNL     1     -11.630   1.289 123.570  0.00  0.00    +0.000 OA
ATOM     27  H   UNL     1     -12.271   0.856 122.967  0.00  0.00    +0.000 HD
ENDBRANCH  23  26
ENDBRANCH   1  23
BRANCH  14  28
ATOM     28  S   UNL     1      -5.753  -4.938 135.030  0.00  0.00    +0.000 S 
ATOM     29  O   UNL     1      -4.572  -5.759 135.168  0.00  0.00    +0.000 OA
ATOM     30  O   UNL     1      -5.954  -3.738 135.816  0.00  0.00    +0.000 OA
BRANCH  28  31
ATOM     31  O   UNL     1      -7.025  -5.902 135.278  0.00  0.00    +0.000 OA
ATOM     32  H   UNL     1      -7.091  -6.136 136.225  0.00  0.00    +0.000 HD
ENDBRANCH  28  31
ENDBRANCH  14  28
TORSDOF 4
ENDMDL
