MODEL 1
REMARK VINA RESULT:      -8.6      0.000      0.000
REMARK  Name = Indoramin
REMARK  5 active torsions:
REMARK  status: ('A' for Active; 'I' for Inactive)
REMARK    1  A    between atoms: C_2  and  C_21
REMARK    2  A    between atoms: N_3  and  C_4
REMARK    3  A    between atoms: N_7  and  C_8
REMARK    4  A    between atoms: C_8  and  C_9
REMARK    5  A    between atoms: C_9  and  C_10
REMARK                            x       y       z     vdW  Elec       q    Type
REMARK                         _______ _______ _______ _____ _____    ______ ____
ROOT
ATOM      1  C   UNL     1      -9.749   0.034 124.308  0.00  0.00    +0.000 C 
ATOM      2  C   UNL     1     -10.023   0.953 123.084  0.00  0.00    +0.000 C 
ATOM      3  C   UNL     1      -8.954   2.026 122.890  0.00  0.00    +0.000 C 
ATOM      4  N   UNL     1      -8.730   2.799 124.131  0.00  0.00    +0.000 NA
ATOM      5  C   UNL     1      -8.537   1.890 125.261  0.00  0.00    +0.000 C 
ATOM      6  C   UNL     1      -9.794   1.009 125.464  0.00  0.00    +0.000 C 
ENDROOT
BRANCH   1   9
ATOM      7  O   UNL     1      -8.810  -2.218 122.593  0.00  0.00    +0.000 OA
ATOM      8  C   UNL     1      -8.121  -1.777 123.541  0.00  0.00    +0.000 C 
ATOM      9  N   UNL     1      -8.456  -0.739 124.440  0.00  0.00    +0.000 N 
ATOM     10  H   UNL     1      -7.750  -0.427 125.101  0.00  0.00    +0.000 HD
BRANCH   8  11
ATOM     11  C   UNL     1      -6.936  -2.578 123.656  0.00  0.00    +0.000 A 
ATOM     12  C   UNL     1      -6.910  -3.778 124.346  0.00  0.00    +0.000 A 
ATOM     13  C   UNL     1      -5.699  -4.453 124.392  0.00  0.00    +0.000 A 
ATOM     14  C   UNL     1      -4.591  -3.989 123.661  0.00  0.00    +0.000 A 
ATOM     15  C   UNL     1      -4.677  -2.858 122.857  0.00  0.00    +0.000 A 
ATOM     16  C   UNL     1      -5.856  -2.157 122.854  0.00  0.00    +0.000 A 
ENDBRANCH   8  11
ENDBRANCH   1   9
BRANCH   4  17
ATOM     17  C   UNL     1      -7.520   3.622 123.965  0.00  0.00    +0.000 C 
BRANCH  17  18
ATOM     18  C   UNL     1      -6.430   2.917 123.137  0.00  0.00    +0.000 C 
BRANCH  18  19
ATOM     19  C   UNL     1      -5.752   3.845 122.203  0.00  0.00    +0.000 A 
ATOM     20  C   UNL     1      -4.579   4.532 122.427  0.00  0.00    +0.000 A 
ATOM     21  N   UNL     1      -4.303   5.259 121.302  0.00  0.00    +0.000 N 
ATOM     22  C   UNL     1      -5.299   5.085 120.368  0.00  0.00    +0.000 A 
ATOM     23  C   UNL     1      -6.221   4.197 120.911  0.00  0.00    +0.000 A 
ATOM     24  C   UNL     1      -7.360   3.839 120.163  0.00  0.00    +0.000 A 
ATOM     25  C   UNL     1      -7.550   4.384 118.899  0.00  0.00    +0.000 A 
ATOM     26  C   UNL     1      -6.623   5.284 118.382  0.00  0.00    +0.000 A 
ATOM     27  C   UNL     1      -5.474   5.645 119.099  0.00  0.00    +0.000 A 
ATOM     28  H   UNL     1      -3.497   5.856 121.185  0.00  0.00    +0.000 HD
ENDBRANCH  18  19
ENDBRANCH  17  18
ENDBRANCH   4  17
TORSDOF 5
ENDMDL
MODEL 2
REMARK VINA RESULT:      -8.6      2.496      8.111
REMARK  Name = Indoramin
REMARK  5 active torsions:
REMARK  status: ('A' for Active; 'I' for Inactive)
REMARK    1  A    between atoms: C_2  and  C_21
REMARK    2  A    between atoms: N_3  and  C_4
REMARK    3  A    between atoms: N_7  and  C_8
REMARK    4  A    between atoms: C_8  and  C_9
REMARK    5  A    between atoms: C_9  and  C_10
REMARK                            x       y       z     vdW  Elec       q    Type
REMARK                         _______ _______ _______ _____ _____    ______ ____
ROOT
ATOM      1  C   UNL     1      -8.008   2.818 124.312  0.00  0.00    +0.000 C 
ATOM      2  C   UNL     1      -6.978   1.798 124.876  0.00  0.00    +0.000 C 
ATOM      3  C   UNL     1      -6.951   0.482 124.101  0.00  0.00    +0.000 C 
ATOM      4  N   UNL     1      -8.305  -0.101 123.977  0.00  0.00    +0.000 NA
ATOM      5  C   UNL     1      -9.247   0.912 123.501  0.00  0.00    +0.000 C 
ATOM      6  C   UNL     1      -9.321   2.091 124.502  0.00  0.00    +0.000 C 
ENDROOT
BRANCH   1   9
ATOM      7  O   UNL     1      -5.603   3.644 122.753  0.00  0.00    +0.000 OA
ATOM      8  C   UNL     1      -6.745   3.613 122.240  0.00  0.00    +0.000 C 
ATOM      9  N   UNL     1      -7.963   3.266 122.869  0.00  0.00    +0.000 N 
ATOM     10  H   UNL     1      -8.798   3.196 122.295  0.00  0.00    +0.000 HD
BRANCH   8  11
ATOM     11  C   UNL     1      -6.654   4.100 120.894  0.00  0.00    +0.000 A 
ATOM     12  C   UNL     1      -7.709   4.032 120.001  0.00  0.00    +0.000 A 
ATOM     13  C   UNL     1      -7.490   4.529 118.724  0.00  0.00    +0.000 A 
ATOM     14  C   UNL     1      -6.285   5.180 118.406  0.00  0.00    +0.000 A 
ATOM     15  C   UNL     1      -5.290   5.366 119.359  0.00  0.00    +0.000 A 
ATOM     16  C   UNL     1      -5.481   4.827 120.606  0.00  0.00    +0.000 A 
ENDBRANCH   8  11
ENDBRANCH   1   9
BRANCH   4  17
ATOM     17  C   UNL     1      -8.258  -1.207 123.007  0.00  0.00    +0.000 C 
BRANCH  17  18
ATOM     18  C   UNL     1      -7.605  -2.477 123.583  0.00  0.00    +0.000 C 
BRANCH  18  19
ATOM     19  C   UNL     1      -8.088  -2.782 124.948  0.00  0.00    +0.000 A 
ATOM     20  C   UNL     1      -9.347  -3.215 125.303  0.00  0.00    +0.000 A 
ATOM     21  N   UNL     1      -9.360  -3.390 126.659  0.00  0.00    +0.000 N 
ATOM     22  C   UNL     1      -8.141  -3.039 127.194  0.00  0.00    +0.000 A 
ATOM     23  C   UNL     1      -7.323  -2.655 126.137  0.00  0.00    +0.000 A 
ATOM     24  C   UNL     1      -6.004  -2.237 126.400  0.00  0.00    +0.000 A 
ATOM     25  C   UNL     1      -5.543  -2.205 127.711  0.00  0.00    +0.000 A 
ATOM     26  C   UNL     1      -6.384  -2.577 128.754  0.00  0.00    +0.000 A 
ATOM     27  C   UNL     1      -7.696  -3.011 128.519  0.00  0.00    +0.000 A 
ATOM     28  H   UNL     1     -10.157  -3.707 127.192  0.00  0.00    +0.000 HD
ENDBRANCH  18  19
ENDBRANCH  17  18
ENDBRANCH   4  17
TORSDOF 5
ENDMDL
MODEL 3
REMARK VINA RESULT:      -8.3      3.116      3.975
REMARK  Name = Indoramin
REMARK  5 active torsions:
REMARK  status: ('A' for Active; 'I' for Inactive)
REMARK    1  A    between atoms: C_2  and  C_21
REMARK    2  A    between atoms: N_3  and  C_4
REMARK    3  A    between atoms: N_7  and  C_8
REMARK    4  A    between atoms: C_8  and  C_9
REMARK    5  A    between atoms: C_9  and  C_10
REMARK                            x       y       z     vdW  Elec       q    Type
REMARK                         _______ _______ _______ _____ _____    ______ ____
ROOT
ATOM      1  C   UNL     1      -7.661  -2.418 124.793  0.00  0.00    +0.000 C 
ATOM      2  C   UNL     1      -6.803  -1.809 123.648  0.00  0.00    +0.000 C 
ATOM      3  C   UNL     1      -6.795  -0.282 123.653  0.00  0.00    +0.000 C 
ATOM      4  N   UNL     1      -8.168   0.268 123.676  0.00  0.00    +0.000 NA
ATOM      5  C   UNL     1      -8.949  -0.379 124.730  0.00  0.00    +0.000 C 
ATOM      6  C   UNL     1      -9.046  -1.903 124.471  0.00  0.00    +0.000 C 
ENDROOT
BRANCH   1   9
ATOM      7  O   UNL     1      -8.755  -3.800 127.200  0.00  0.00    +0.000 OA
ATOM      8  C   UNL     1      -7.964  -2.832 127.294  0.00  0.00    +0.000 C 
ATOM      9  N   UNL     1      -7.395  -2.079 126.242  0.00  0.00    +0.000 N 
ATOM     10  H   UNL     1      -6.694  -1.382 126.474  0.00  0.00    +0.000 HD
BRANCH   8  11
ATOM     11  C   UNL     1      -7.792  -2.518 128.683  0.00  0.00    +0.000 A 
ATOM     12  C   UNL     1      -7.421  -3.464 129.623  0.00  0.00    +0.000 A 
ATOM     13  C   UNL     1      -7.298  -3.035 130.937  0.00  0.00    +0.000 A 
ATOM     14  C   UNL     1      -7.428  -1.673 131.261  0.00  0.00    +0.000 A 
ATOM     15  C   UNL     1      -7.660  -0.715 130.281  0.00  0.00    +0.000 A 
ATOM     16  C   UNL     1      -7.838  -1.143 128.989  0.00  0.00    +0.000 A 
ENDBRANCH   8  11
ENDBRANCH   1   9
BRANCH   4  17
ATOM     17  C   UNL     1      -8.095   1.712 123.950  0.00  0.00    +0.000 C 
BRANCH  17  18
ATOM     18  C   UNL     1      -8.385   2.570 122.704  0.00  0.00    +0.000 C 
BRANCH  18  19
ATOM     19  C   UNL     1      -7.184   3.298 122.237  0.00  0.00    +0.000 A 
ATOM     20  C   UNL     1      -6.033   3.543 122.956  0.00  0.00    +0.000 A 
ATOM     21  N   UNL     1      -5.174   4.230 122.144  0.00  0.00    +0.000 N 
ATOM     22  C   UNL     1      -5.765   4.469 120.923  0.00  0.00    +0.000 A 
ATOM     23  C   UNL     1      -7.028   3.890 120.957  0.00  0.00    +0.000 A 
ATOM     24  C   UNL     1      -7.864   3.988 119.827  0.00  0.00    +0.000 A 
ATOM     25  C   UNL     1      -7.418   4.669 118.700  0.00  0.00    +0.000 A 
ATOM     26  C   UNL     1      -6.157   5.255 118.695  0.00  0.00    +0.000 A 
ATOM     27  C   UNL     1      -5.299   5.160 119.800  0.00  0.00    +0.000 A 
ATOM     28  H   UNL     1      -4.250   4.537 122.411  0.00  0.00    +0.000 HD
ENDBRANCH  18  19
ENDBRANCH  17  18
ENDBRANCH   4  17
TORSDOF 5
ENDMDL
MODEL 4
REMARK VINA RESULT:      -8.3      8.130     10.719
REMARK  Name = Indoramin
REMARK  5 active torsions:
REMARK  status: ('A' for Active; 'I' for Inactive)
REMARK    1  A    between atoms: C_2  and  C_21
REMARK    2  A    between atoms: N_3  and  C_4
REMARK    3  A    between atoms: N_7  and  C_8
REMARK    4  A    between atoms: C_8  and  C_9
REMARK    5  A    between atoms: C_9  and  C_10
REMARK                            x       y       z     vdW  Elec       q    Type
REMARK                         _______ _______ _______ _____ _____    ______ ____
ROOT
ATOM      1  C   UNL     1     -10.145   4.593 131.192  0.00  0.00    +0.000 C 
ATOM      2  C   UNL     1      -9.541   5.090 132.537  0.00  0.00    +0.000 C 
ATOM      3  C   UNL     1      -8.490   6.182 132.354  0.00  0.00    +0.000 C 
ATOM      4  N   UNL     1      -7.445   5.773 131.390  0.00  0.00    +0.000 NA
ATOM      5  C   UNL     1      -8.064   5.260 130.168  0.00  0.00    +0.000 C 
ATOM      6  C   UNL     1      -8.936   4.020 130.486  0.00  0.00    +0.000 C 
ENDROOT
BRANCH   1   9
ATOM      7  O   UNL     1     -12.387   6.477 131.759  0.00  0.00    +0.000 OA
ATOM      8  C   UNL     1     -11.850   6.408 130.629  0.00  0.00    +0.000 C 
ATOM      9  N   UNL     1     -10.803   5.548 130.224  0.00  0.00    +0.000 N 
ATOM     10  H   UNL     1     -10.407   5.677 129.297  0.00  0.00    +0.000 HD
BRANCH   8  11
ATOM     11  C   UNL     1     -12.547   7.290 129.739  0.00  0.00    +0.000 A 
ATOM     12  C   UNL     1     -12.459   8.668 129.832  0.00  0.00    +0.000 A 
ATOM     13  C   UNL     1     -13.191   9.411 128.916  0.00  0.00    +0.000 A 
ATOM     14  C   UNL     1     -13.887   8.777 127.872  0.00  0.00    +0.000 A 
ATOM     15  C   UNL     1     -13.847   7.397 127.709  0.00  0.00    +0.000 A 
ATOM     16  C   UNL     1     -13.171   6.656 128.645  0.00  0.00    +0.000 A 
ENDBRANCH   8  11
ENDBRANCH   1   9
BRANCH   4  17
ATOM     17  C   UNL     1      -6.624   6.949 131.055  0.00  0.00    +0.000 C 
BRANCH  17  18
ATOM     18  C   UNL     1      -5.133   6.746 131.382  0.00  0.00    +0.000 C 
BRANCH  18  19
ATOM     19  C   UNL     1      -4.310   6.595 130.161  0.00  0.00    +0.000 A 
ATOM     20  C   UNL     1      -3.758   7.606 129.405  0.00  0.00    +0.000 A 
ATOM     21  N   UNL     1      -3.064   7.027 128.379  0.00  0.00    +0.000 N 
ATOM     22  C   UNL     1      -3.190   5.657 128.435  0.00  0.00    +0.000 A 
ATOM     23  C   UNL     1      -3.967   5.361 129.549  0.00  0.00    +0.000 A 
ATOM     24  C   UNL     1      -4.263   4.016 129.848  0.00  0.00    +0.000 A 
ATOM     25  C   UNL     1      -3.782   3.008 129.021  0.00  0.00    +0.000 A 
ATOM     26  C   UNL     1      -3.020   3.328 127.903  0.00  0.00    +0.000 A 
ATOM     27  C   UNL     1      -2.699   4.656 127.591  0.00  0.00    +0.000 A 
ATOM     28  H   UNL     1      -2.553   7.534 127.670  0.00  0.00    +0.000 HD
ENDBRANCH  18  19
ENDBRANCH  17  18
ENDBRANCH   4  17
TORSDOF 5
ENDMDL
MODEL 5
REMARK VINA RESULT:      -8.2      8.612     11.324
REMARK  Name = Indoramin
REMARK  5 active torsions:
REMARK  status: ('A' for Active; 'I' for Inactive)
REMARK    1  A    between atoms: C_2  and  C_21
REMARK    2  A    between atoms: N_3  and  C_4
REMARK    3  A    between atoms: N_7  and  C_8
REMARK    4  A    between atoms: C_8  and  C_9
REMARK    5  A    between atoms: C_9  and  C_10
REMARK                            x       y       z     vdW  Elec       q    Type
REMARK                         _______ _______ _______ _____ _____    ______ ____
ROOT
ATOM      1  C   UNL     1      -9.525   5.735 131.999  0.00  0.00    +0.000 C 
ATOM      2  C   UNL     1      -8.059   6.110 132.359  0.00  0.00    +0.000 C 
ATOM      3  C   UNL     1      -7.096   5.959 131.183  0.00  0.00    +0.000 C 
ATOM      4  N   UNL     1      -7.196   4.616 130.571  0.00  0.00    +0.000 NA
ATOM      5  C   UNL     1      -8.596   4.287 130.307  0.00  0.00    +0.000 C 
ATOM      6  C   UNL     1      -9.404   4.274 131.628  0.00  0.00    +0.000 C 
ENDROOT
BRANCH   1   9
ATOM      7  O   UNL     1     -12.384   6.583 131.945  0.00  0.00    +0.000 OA
ATOM      8  C   UNL     1     -11.616   6.785 130.977  0.00  0.00    +0.000 C 
ATOM      9  N   UNL     1     -10.256   6.415 130.864  0.00  0.00    +0.000 N 
ATOM     10  H   UNL     1      -9.736   6.734 130.052  0.00  0.00    +0.000 HD
BRANCH   8  11
ATOM     11  C   UNL     1     -12.371   7.378 129.911  0.00  0.00    +0.000 A 
ATOM     12  C   UNL     1     -12.435   8.746 129.712  0.00  0.00    +0.000 A 
ATOM     13  C   UNL     1     -13.209   9.195 128.651  0.00  0.00    +0.000 A 
ATOM     14  C   UNL     1     -13.794   8.283 127.755  0.00  0.00    +0.000 A 
ATOM     15  C   UNL     1     -13.600   6.913 127.888  0.00  0.00    +0.000 A 
ATOM     16  C   UNL     1     -12.883   6.464 128.968  0.00  0.00    +0.000 A 
ENDBRANCH   8  11
ENDBRANCH   1   9
BRANCH   4  17
ATOM     17  C   UNL     1      -6.455   4.620 129.298  0.00  0.00    +0.000 C 
BRANCH  17  18
ATOM     18  C   UNL     1      -5.058   3.984 129.420  0.00  0.00    +0.000 C 
BRANCH  18  19
ATOM     19  C   UNL     1      -3.996   5.000 129.595  0.00  0.00    +0.000 A 
ATOM     20  C   UNL     1      -3.710   6.050 128.749  0.00  0.00    +0.000 A 
ATOM     21  N   UNL     1      -2.669   6.750 129.294  0.00  0.00    +0.000 N 
ATOM     22  C   UNL     1      -2.250   6.147 130.459  0.00  0.00    +0.000 A 
ATOM     23  C   UNL     1      -3.072   5.045 130.671  0.00  0.00    +0.000 A 
ATOM     24  C   UNL     1      -2.862   4.233 131.802  0.00  0.00    +0.000 A 
ATOM     25  C   UNL     1      -1.833   4.539 132.685  0.00  0.00    +0.000 A 
ATOM     26  C   UNL     1      -1.013   5.636 132.445  0.00  0.00    +0.000 A 
ATOM     27  C   UNL     1      -1.209   6.469 131.335  0.00  0.00    +0.000 A 
ATOM     28  H   UNL     1      -2.253   7.575 128.887  0.00  0.00    +0.000 HD
ENDBRANCH  18  19
ENDBRANCH  17  18
ENDBRANCH   4  17
TORSDOF 5
ENDMDL
MODEL 6
REMARK VINA RESULT:      -8.1      5.475      8.538
REMARK  Name = Indoramin
REMARK  5 active torsions:
REMARK  status: ('A' for Active; 'I' for Inactive)
REMARK    1  A    between atoms: C_2  and  C_21
REMARK    2  A    between atoms: N_3  and  C_4
REMARK    3  A    between atoms: N_7  and  C_8
REMARK    4  A    between atoms: C_8  and  C_9
REMARK    5  A    between atoms: C_9  and  C_10
REMARK                            x       y       z     vdW  Elec       q    Type
REMARK                         _______ _______ _______ _____ _____    ______ ____
ROOT
ATOM      1  C   UNL     1      -8.002   4.263 130.515  0.00  0.00    +0.000 C 
ATOM      2  C   UNL     1      -6.655   4.357 129.743  0.00  0.00    +0.000 C 
ATOM      3  C   UNL     1      -6.787   3.999 128.264  0.00  0.00    +0.000 C 
ATOM      4  N   UNL     1      -7.445   2.687 128.081  0.00  0.00    +0.000 NA
ATOM      5  C   UNL     1      -8.674   2.627 128.873  0.00  0.00    +0.000 C 
ATOM      6  C   UNL     1      -8.352   2.797 130.378  0.00  0.00    +0.000 C 
ENDROOT
BRANCH   1   9
ATOM      7  O   UNL     1      -8.373   7.221 130.599  0.00  0.00    +0.000 OA
ATOM      8  C   UNL     1      -9.257   6.456 130.150  0.00  0.00    +0.000 C 
ATOM      9  N   UNL     1      -9.219   5.045 130.076  0.00  0.00    +0.000 N 
ATOM     10  H   UNL     1      -9.977   4.567 129.597  0.00  0.00    +0.000 HD
BRANCH   8  11
ATOM     11  C   UNL     1     -10.406   7.242 129.802  0.00  0.00    +0.000 A 
ATOM     12  C   UNL     1     -10.478   7.983 128.636  0.00  0.00    +0.000 A 
ATOM     13  C   UNL     1     -11.641   8.710 128.420  0.00  0.00    +0.000 A 
ATOM     14  C   UNL     1     -12.734   8.588 129.295  0.00  0.00    +0.000 A 
ATOM     15  C   UNL     1     -12.696   7.726 130.386  0.00  0.00    +0.000 A 
ATOM     16  C   UNL     1     -11.528   7.050 130.633  0.00  0.00    +0.000 A 
ENDBRANCH   8  11
ENDBRANCH   1   9
BRANCH   4  17
ATOM     17  C   UNL     1      -7.783   2.521 126.658  0.00  0.00    +0.000 C 
BRANCH  17  18
ATOM     18  C   UNL     1      -7.119   3.583 125.761  0.00  0.00    +0.000 C 
BRANCH  18  19
ATOM     19  C   UNL     1      -7.455   3.394 124.332  0.00  0.00    +0.000 A 
ATOM     20  C   UNL     1      -8.601   2.826 123.820  0.00  0.00    +0.000 A 
ATOM     21  N   UNL     1      -8.511   2.865 122.456  0.00  0.00    +0.000 N 
ATOM     22  C   UNL     1      -7.306   3.413 122.076  0.00  0.00    +0.000 A 
ATOM     23  C   UNL     1      -6.625   3.756 123.238  0.00  0.00    +0.000 A 
ATOM     24  C   UNL     1      -5.347   4.339 123.144  0.00  0.00    +0.000 A 
ATOM     25  C   UNL     1      -4.781   4.555 121.893  0.00  0.00    +0.000 A 
ATOM     26  C   UNL     1      -5.473   4.189 120.744  0.00  0.00    +0.000 A 
ATOM     27  C   UNL     1      -6.753   3.620 120.809  0.00  0.00    +0.000 A 
ATOM     28  H   UNL     1      -9.216   2.519 121.821  0.00  0.00    +0.000 HD
ENDBRANCH  18  19
ENDBRANCH  17  18
ENDBRANCH   4  17
TORSDOF 5
ENDMDL
MODEL 7
REMARK VINA RESULT:      -8.1     11.166     14.433
REMARK  Name = Indoramin
REMARK  5 active torsions:
REMARK  status: ('A' for Active; 'I' for Inactive)
REMARK    1  A    between atoms: C_2  and  C_21
REMARK    2  A    between atoms: N_3  and  C_4
REMARK    3  A    between atoms: N_7  and  C_8
REMARK    4  A    between atoms: C_8  and  C_9
REMARK    5  A    between atoms: C_9  and  C_10
REMARK                            x       y       z     vdW  Elec       q    Type
REMARK                         _______ _______ _______ _____ _____    ______ ____
ROOT
ATOM      1  C   UNL     1      -9.304   3.813 132.020  0.00  0.00    +0.000 C 
ATOM      2  C   UNL     1      -9.183   3.160 133.426  0.00  0.00    +0.000 C 
ATOM      3  C   UNL     1      -8.556   4.087 134.465  0.00  0.00    +0.000 C 
ATOM      4  N   UNL     1      -7.268   4.639 133.992  0.00  0.00    +0.000 NA
ATOM      5  C   UNL     1      -7.420   5.187 132.645  0.00  0.00    +0.000 C 
ATOM      6  C   UNL     1      -7.858   4.076 131.659  0.00  0.00    +0.000 C 
ENDROOT
BRANCH   1   9
ATOM      7  O   UNL     1     -11.162   4.500 129.790  0.00  0.00    +0.000 OA
ATOM      8  C   UNL     1     -10.920   5.303 130.720  0.00  0.00    +0.000 C 
ATOM      9  N   UNL     1     -10.047   5.114 131.816  0.00  0.00    +0.000 N 
ATOM     10  H   UNL     1     -10.028   5.822 132.544  0.00  0.00    +0.000 HD
BRANCH   8  11
ATOM     11  C   UNL     1     -11.603   6.535 130.449  0.00  0.00    +0.000 A 
ATOM     12  C   UNL     1     -12.493   7.108 131.340  0.00  0.00    +0.000 A 
ATOM     13  C   UNL     1     -13.096   8.296 130.954  0.00  0.00    +0.000 A 
ATOM     14  C   UNL     1     -12.716   8.939 129.763  0.00  0.00    +0.000 A 
ATOM     15  C   UNL     1     -11.716   8.421 128.948  0.00  0.00    +0.000 A 
ATOM     16  C   UNL     1     -11.157   7.218 129.298  0.00  0.00    +0.000 A 
ENDBRANCH   8  11
ENDBRANCH   1   9
BRANCH   4  17
ATOM     17  C   UNL     1      -6.851   5.717 134.904  0.00  0.00    +0.000 C 
BRANCH  17  18
ATOM     18  C   UNL     1      -7.781   5.859 136.123  0.00  0.00    +0.000 C 
BRANCH  18  19
ATOM     19  C   UNL     1      -7.336   6.930 137.042  0.00  0.00    +0.000 A 
ATOM     20  C   UNL     1      -6.064   7.118 137.540  0.00  0.00    +0.000 A 
ATOM     21  N   UNL     1      -6.089   8.230 138.335  0.00  0.00    +0.000 N 
ATOM     22  C   UNL     1      -7.365   8.744 138.392  0.00  0.00    +0.000 A 
ATOM     23  C   UNL     1      -8.167   7.944 137.585  0.00  0.00    +0.000 A 
ATOM     24  C   UNL     1      -9.538   8.242 137.461  0.00  0.00    +0.000 A 
ATOM     25  C   UNL     1     -10.071   9.323 138.154  0.00  0.00    +0.000 A 
ATOM     26  C   UNL     1      -9.254  10.098 138.970  0.00  0.00    +0.000 A 
ATOM     27  C   UNL     1      -7.883   9.833 139.098  0.00  0.00    +0.000 A 
ATOM     28  H   UNL     1      -5.291   8.604 138.827  0.00  0.00    +0.000 HD
ENDBRANCH  18  19
ENDBRANCH  17  18
ENDBRANCH   4  17
TORSDOF 5
ENDMDL
MODEL 8
REMARK VINA RESULT:      -8.0      5.591      9.611
REMARK  Name = Indoramin
REMARK  5 active torsions:
REMARK  status: ('A' for Active; 'I' for Inactive)
REMARK    1  A    between atoms: C_2  and  C_21
REMARK    2  A    between atoms: N_3  and  C_4
REMARK    3  A    between atoms: N_7  and  C_8
REMARK    4  A    between atoms: C_8  and  C_9
REMARK    5  A    between atoms: C_9  and  C_10
REMARK                            x       y       z     vdW  Elec       q    Type
REMARK                         _______ _______ _______ _____ _____    ______ ____
ROOT
ATOM      1  C   UNL     1      -7.804   4.358 130.630  0.00  0.00    +0.000 C 
ATOM      2  C   UNL     1      -6.586   4.506 129.675  0.00  0.00    +0.000 C 
ATOM      3  C   UNL     1      -6.881   4.036 128.252  0.00  0.00    +0.000 C 
ATOM      4  N   UNL     1      -7.439   2.666 128.238  0.00  0.00    +0.000 NA
ATOM      5  C   UNL     1      -8.541   2.564 129.195  0.00  0.00    +0.000 C 
ATOM      6  C   UNL     1      -8.038   2.864 130.629  0.00  0.00    +0.000 C 
ENDROOT
BRANCH   1   9
ATOM      7  O   UNL     1      -8.376   7.277 130.400  0.00  0.00    +0.000 OA
ATOM      8  C   UNL     1      -9.264   6.412 130.218  0.00  0.00    +0.000 C 
ATOM      9  N   UNL     1      -9.133   5.008 130.319  0.00  0.00    +0.000 N 
ATOM     10  H   UNL     1      -9.923   4.431 130.047  0.00  0.00    +0.000 HD
BRANCH   8  11
ATOM     11  C   UNL     1     -10.511   7.082 129.983  0.00  0.00    +0.000 A 
ATOM     12  C   UNL     1     -11.576   7.008 130.863  0.00  0.00    +0.000 A 
ATOM     13  C   UNL     1     -12.731   7.693 130.516  0.00  0.00    +0.000 A 
ATOM     14  C   UNL     1     -12.759   8.520 129.379  0.00  0.00    +0.000 A 
ATOM     15  C   UNL     1     -11.633   8.695 128.583  0.00  0.00    +0.000 A 
ATOM     16  C   UNL     1     -10.507   7.975 128.892  0.00  0.00    +0.000 A 
ENDBRANCH   8  11
ENDBRANCH   1   9
BRANCH   4  17
ATOM     17  C   UNL     1      -7.947   2.375 126.888  0.00  0.00    +0.000 C 
BRANCH  17  18
ATOM     18  C   UNL     1      -8.835   1.117 126.844  0.00  0.00    +0.000 C 
BRANCH  18  19
ATOM     19  C   UNL     1      -8.895   0.525 125.489  0.00  0.00    +0.000 A 
ATOM     20  C   UNL     1      -8.936   1.204 124.290  0.00  0.00    +0.000 A 
ATOM     21  N   UNL     1      -8.968   0.275 123.287  0.00  0.00    +0.000 N 
ATOM     22  C   UNL     1      -8.987  -0.996 123.818  0.00  0.00    +0.000 A 
ATOM     23  C   UNL     1      -8.939  -0.864 125.201  0.00  0.00    +0.000 A 
ATOM     24  C   UNL     1      -8.952  -2.020 126.006  0.00  0.00    +0.000 A 
ATOM     25  C   UNL     1      -9.022  -3.273 125.408  0.00  0.00    +0.000 A 
ATOM     26  C   UNL     1      -9.086  -3.380 124.023  0.00  0.00    +0.000 A 
ATOM     27  C   UNL     1      -9.060  -2.247 123.198  0.00  0.00    +0.000 A 
ATOM     28  H   UNL     1      -8.997   0.491 122.301  0.00  0.00    +0.000 HD
ENDBRANCH  18  19
ENDBRANCH  17  18
ENDBRANCH   4  17
TORSDOF 5
ENDMDL
MODEL 9
REMARK VINA RESULT:      -8.0      2.476      3.322
REMARK  Name = Indoramin
REMARK  5 active torsions:
REMARK  status: ('A' for Active; 'I' for Inactive)
REMARK    1  A    between atoms: C_2  and  C_21
REMARK    2  A    between atoms: N_3  and  C_4
REMARK    3  A    between atoms: N_7  and  C_8
REMARK    4  A    between atoms: C_8  and  C_9
REMARK    5  A    between atoms: C_9  and  C_10
REMARK                            x       y       z     vdW  Elec       q    Type
REMARK                         _______ _______ _______ _____ _____    ______ ____
ROOT
ATOM      1  C   UNL     1      -6.494   1.691 127.594  0.00  0.00    +0.000 C 
ATOM      2  C   UNL     1      -7.215   3.070 127.565  0.00  0.00    +0.000 C 
ATOM      3  C   UNL     1      -7.050   3.803 126.235  0.00  0.00    +0.000 C 
ATOM      4  N   UNL     1      -5.627   3.907 125.846  0.00  0.00    +0.000 NA
ATOM      5  C   UNL     1      -4.981   2.598 125.947  0.00  0.00    +0.000 C 
ATOM      6  C   UNL     1      -5.044   2.079 127.405  0.00  0.00    +0.000 C 
ENDROOT
BRANCH   1   9
ATOM      7  O   UNL     1      -7.602  -1.031 128.101  0.00  0.00    +0.000 OA
ATOM      8  C   UNL     1      -7.344  -0.627 126.944  0.00  0.00    +0.000 C 
ATOM      9  N   UNL     1      -6.797   0.622 126.570  0.00  0.00    +0.000 N 
ATOM     10  H   UNL     1      -6.734   0.842 125.580  0.00  0.00    +0.000 HD
BRANCH   8  11
ATOM     11  C   UNL     1      -7.595  -1.696 126.021  0.00  0.00    +0.000 A 
ATOM     12  C   UNL     1      -6.580  -2.375 125.370  0.00  0.00    +0.000 A 
ATOM     13  C   UNL     1      -6.956  -3.383 124.493  0.00  0.00    +0.000 A 
ATOM     14  C   UNL     1      -8.303  -3.766 124.377  0.00  0.00    +0.000 A 
ATOM     15  C   UNL     1      -9.295  -3.168 125.146  0.00  0.00    +0.000 A 
ATOM     16  C   UNL     1      -8.935  -2.133 125.972  0.00  0.00    +0.000 A 
ENDBRANCH   8  11
ENDBRANCH   1   9
BRANCH   4  17
ATOM     17  C   UNL     1      -5.550   4.374 124.452  0.00  0.00    +0.000 C 
BRANCH  17  18
ATOM     18  C   UNL     1      -6.186   3.385 123.457  0.00  0.00    +0.000 C 
BRANCH  18  19
ATOM     19  C   UNL     1      -6.039   3.835 122.054  0.00  0.00    +0.000 A 
ATOM     20  C   UNL     1      -4.886   4.280 121.444  0.00  0.00    +0.000 A 
ATOM     21  N   UNL     1      -5.192   4.577 120.145  0.00  0.00    +0.000 N 
ATOM     22  C   UNL     1      -6.533   4.368 119.913  0.00  0.00    +0.000 A 
ATOM     23  C   UNL     1      -7.087   3.899 121.099  0.00  0.00    +0.000 A 
ATOM     24  C   UNL     1      -8.463   3.604 121.150  0.00  0.00    +0.000 A 
ATOM     25  C   UNL     1      -9.248   3.795 120.019  0.00  0.00    +0.000 A 
ATOM     26  C   UNL     1      -8.676   4.282 118.849  0.00  0.00    +0.000 A 
ATOM     27  C   UNL     1      -7.306   4.569 118.766  0.00  0.00    +0.000 A 
ATOM     28  H   UNL     1      -4.532   4.922 119.462  0.00  0.00    +0.000 HD
ENDBRANCH  18  19
ENDBRANCH  17  18
ENDBRANCH   4  17
TORSDOF 5
ENDMDL
