MODEL 1
REMARK VINA RESULT:      -7.5      0.000      0.000
REMARK  Name = Indomethacin
REMARK  7 active torsions:
REMARK  status: ('A' for Active; 'I' for Inactive)
REMARK    1  A    between atoms: C_1  and  O_2
REMARK    2  A    between atoms: O_2  and  C_3
REMARK    3  A    between atoms: C_10  and  C_12
REMARK    4  A    between atoms: C_19  and  C_20
REMARK    5  A    between atoms: C_21  and  C_22
REMARK    6  A    between atoms: C_22  and  C_23
REMARK    7  A    between atoms: C_23  and  O_24
REMARK                            x       y       z     vdW  Elec       q    Type
REMARK                         _______ _______ _______ _____ _____    ______ ____
ROOT
ATOM      1  C   UNL     1      -5.761   4.331 121.164  0.00  0.00    +0.000 A 
ATOM      2  C   UNL     1      -6.900   3.535 121.395  0.00  0.00    +0.000 A 
ATOM      3  C   UNL     1      -7.213   3.036 122.699  0.00  0.00    +0.000 A 
ATOM      4  C   UNL     1      -6.336   3.356 123.741  0.00  0.00    +0.000 A 
ATOM      5  C   UNL     1      -5.172   4.105 123.471  0.00  0.00    +0.000 A 
ATOM      6  C   UNL     1      -4.915   4.626 122.210  0.00  0.00    +0.000 A 
ATOM      7  N   UNL     1      -6.840   2.815 124.933  0.00  0.00    +0.000 N 
ATOM      8  C   UNL     1      -6.277   2.945 126.241  0.00  0.00    +0.000 C 
ATOM      9  O   UNL     1      -6.738   2.336 127.203  0.00  0.00    +0.000 OA
ATOM     10  C   UNL     1      -8.003   2.096 124.627  0.00  0.00    +0.000 A 
ATOM     11  C   UNL     1      -8.720   1.384 125.747  0.00  0.00    +0.000 C 
ATOM     12  C   UNL     1      -8.281   2.202 123.242  0.00  0.00    +0.000 A 
ENDROOT
BRANCH   8  13
ATOM     13  C   UNL     1      -5.122   3.737 126.595  0.00  0.00    +0.000 A 
ATOM     14  C   UNL     1      -3.898   3.104 126.780  0.00  0.00    +0.000 A 
ATOM     15  C   UNL     1      -2.915   3.803 127.464  0.00  0.00    +0.000 A 
ATOM     16  C   UNL     1      -3.107   5.157 127.758  0.00  0.00    +0.000 A 
ATOM     17 CL   UNL     1      -1.924   5.989 128.685  0.00  0.00    +0.000 Cl
ATOM     18  C   UNL     1      -4.266   5.829 127.362  0.00  0.00    +0.000 A 
ATOM     19  C   UNL     1      -5.314   5.102 126.823  0.00  0.00    +0.000 A 
ENDBRANCH   8  13
BRANCH   1  21
ATOM     20  C   UNL     1      -6.737   4.746 119.051  0.00  0.00    +0.000 C 
ATOM     21  O   UNL     1      -5.590   4.828 119.899  0.00  0.00    +0.000 OA
ENDBRANCH   1  21
BRANCH  12  22
ATOM     22  C   UNL     1      -9.400   1.646 122.294  0.00  0.00    +0.000 C 
BRANCH  22  23
ATOM     23  C   UNL     1     -10.294   0.424 122.571  0.00  0.00    +0.000 C 
ATOM     24  O   UNL     1      -9.912  -0.721 122.590  0.00  0.00    +0.000 OA
BRANCH  23  25
ATOM     25  O   UNL     1     -11.580   0.681 122.805  0.00  0.00    +0.000 OA
ATOM     26  H   UNL     1     -11.525   1.626 122.882  0.00  0.00    +0.000 HD
ENDBRANCH  23  25
ENDBRANCH  22  23
ENDBRANCH  12  22
TORSDOF 5
ENDMDL
MODEL 2
REMARK VINA RESULT:      -7.3      3.864      6.688
REMARK  Name = Indomethacin
REMARK  7 active torsions:
REMARK  status: ('A' for Active; 'I' for Inactive)
REMARK    1  A    between atoms: C_1  and  O_2
REMARK    2  A    between atoms: O_2  and  C_3
REMARK    3  A    between atoms: C_10  and  C_12
REMARK    4  A    between atoms: C_19  and  C_20
REMARK    5  A    between atoms: C_21  and  C_22
REMARK    6  A    between atoms: C_22  and  C_23
REMARK    7  A    between atoms: C_23  and  O_24
REMARK                            x       y       z     vdW  Elec       q    Type
REMARK                         _______ _______ _______ _____ _____    ______ ____
ROOT
ATOM      1  C   UNL     1      -6.495   3.096 123.089  0.00  0.00    +0.000 A 
ATOM      2  C   UNL     1      -5.716   3.595 124.151  0.00  0.00    +0.000 A 
ATOM      3  C   UNL     1      -5.529   2.849 125.358  0.00  0.00    +0.000 A 
ATOM      4  C   UNL     1      -6.161   1.605 125.454  0.00  0.00    +0.000 A 
ATOM      5  C   UNL     1      -6.984   1.155 124.400  0.00  0.00    +0.000 A 
ATOM      6  C   UNL     1      -7.108   1.868 123.215  0.00  0.00    +0.000 A 
ATOM      7  N   UNL     1      -5.820   1.022 126.683  0.00  0.00    +0.000 N 
ATOM      8  C   UNL     1      -6.215  -0.267 127.161  0.00  0.00    +0.000 C 
ATOM      9  O   UNL     1      -5.951  -0.637 128.303  0.00  0.00    +0.000 OA
ATOM     10  C   UNL     1      -5.023   1.932 127.389  0.00  0.00    +0.000 A 
ATOM     11  C   UNL     1      -4.550   1.547 128.769  0.00  0.00    +0.000 C 
ATOM     12  C   UNL     1      -4.810   3.091 126.605  0.00  0.00    +0.000 A 
ENDROOT
BRANCH   8  13
ATOM     13  C   UNL     1      -6.974  -1.251 126.426  0.00  0.00    +0.000 A 
ATOM     14  C   UNL     1      -6.321  -2.056 125.499  0.00  0.00    +0.000 A 
ATOM     15  C   UNL     1      -7.103  -2.714 124.562  0.00  0.00    +0.000 A 
ATOM     16  C   UNL     1      -8.495  -2.712 124.699  0.00  0.00    +0.000 A 
ATOM     17 CL   UNL     1      -9.457  -3.452 123.483  0.00  0.00    +0.000 Cl
ATOM     18  C   UNL     1      -9.118  -2.073 125.773  0.00  0.00    +0.000 A 
ATOM     19  C   UNL     1      -8.357  -1.283 126.619  0.00  0.00    +0.000 A 
ENDBRANCH   8  13
BRANCH   1  21
ATOM     20  C   UNL     1      -5.281   4.199 121.386  0.00  0.00    +0.000 C 
ATOM     21  O   UNL     1      -6.549   3.846 121.944  0.00  0.00    +0.000 OA
ENDBRANCH   1  21
BRANCH  12  22
ATOM     22  C   UNL     1      -4.033   4.439 126.812  0.00  0.00    +0.000 C 
BRANCH  22  23
ATOM     23  C   UNL     1      -2.631   4.587 127.432  0.00  0.00    +0.000 C 
ATOM     24  O   UNL     1      -2.311   5.444 128.219  0.00  0.00    +0.000 OA
BRANCH  23  25
ATOM     25  O   UNL     1      -1.726   3.686 127.052  0.00  0.00    +0.000 OA
ATOM     26  H   UNL     1      -0.971   4.043 127.503  0.00  0.00    +0.000 HD
ENDBRANCH  23  25
ENDBRANCH  22  23
ENDBRANCH  12  22
TORSDOF 5
ENDMDL
MODEL 3
REMARK VINA RESULT:      -7.1      4.278      6.515
REMARK  Name = Indomethacin
REMARK  7 active torsions:
REMARK  status: ('A' for Active; 'I' for Inactive)
REMARK    1  A    between atoms: C_1  and  O_2
REMARK    2  A    between atoms: O_2  and  C_3
REMARK    3  A    between atoms: C_10  and  C_12
REMARK    4  A    between atoms: C_19  and  C_20
REMARK    5  A    between atoms: C_21  and  C_22
REMARK    6  A    between atoms: C_22  and  C_23
REMARK    7  A    between atoms: C_23  and  O_24
REMARK                            x       y       z     vdW  Elec       q    Type
REMARK                         _______ _______ _______ _____ _____    ______ ____
ROOT
ATOM      1  C   UNL     1      -8.038   2.852 127.768  0.00  0.00    +0.000 A 
ATOM      2  C   UNL     1      -7.871   2.802 126.370  0.00  0.00    +0.000 A 
ATOM      3  C   UNL     1      -7.501   1.591 125.703  0.00  0.00    +0.000 A 
ATOM      4  C   UNL     1      -7.296   0.455 126.492  0.00  0.00    +0.000 A 
ATOM      5  C   UNL     1      -7.413   0.547 127.895  0.00  0.00    +0.000 A 
ATOM      6  C   UNL     1      -7.826   1.717 128.519  0.00  0.00    +0.000 A 
ATOM      7  N   UNL     1      -6.988  -0.625 125.652  0.00  0.00    +0.000 N 
ATOM      8  C   UNL     1      -6.750  -1.979 126.046  0.00  0.00    +0.000 C 
ATOM      9  O   UNL     1      -6.376  -2.827 125.239  0.00  0.00    +0.000 OA
ATOM     10  C   UNL     1      -6.933  -0.150 124.336  0.00  0.00    +0.000 A 
ATOM     11  C   UNL     1      -6.582  -1.123 123.238  0.00  0.00    +0.000 C 
ATOM     12  C   UNL     1      -7.247   1.231 124.311  0.00  0.00    +0.000 A 
ENDROOT
BRANCH   8  13
ATOM     13  C   UNL     1      -6.869  -2.509 127.385  0.00  0.00    +0.000 A 
ATOM     14  C   UNL     1      -8.112  -2.944 127.832  0.00  0.00    +0.000 A 
ATOM     15  C   UNL     1      -8.281  -3.094 129.199  0.00  0.00    +0.000 A 
ATOM     16  C   UNL     1      -7.173  -3.004 130.048  0.00  0.00    +0.000 A 
ATOM     17 CL   UNL     1      -7.407  -3.101 131.747  0.00  0.00    +0.000 Cl
ATOM     18  C   UNL     1      -5.889  -2.782 129.543  0.00  0.00    +0.000 A 
ATOM     19  C   UNL     1      -5.737  -2.474 128.202  0.00  0.00    +0.000 A 
ENDBRANCH   8  13
BRANCH   1  21
ATOM     20  C   UNL     1      -8.641   4.035 129.725  0.00  0.00    +0.000 C 
ATOM     21  O   UNL     1      -8.472   4.035 128.305  0.00  0.00    +0.000 OA
ENDBRANCH   1  21
BRANCH  12  22
ATOM     22  C   UNL     1      -7.355   2.320 123.187  0.00  0.00    +0.000 C 
BRANCH  22  23
ATOM     23  C   UNL     1      -8.631   2.693 122.410  0.00  0.00    +0.000 C 
ATOM     24  O   UNL     1      -9.634   2.023 122.367  0.00  0.00    +0.000 OA
BRANCH  23  25
ATOM     25  O   UNL     1      -8.595   3.848 121.748  0.00  0.00    +0.000 OA
ATOM     26  H   UNL     1      -8.478   3.506 120.870  0.00  0.00    +0.000 HD
ENDBRANCH  23  25
ENDBRANCH  22  23
ENDBRANCH  12  22
TORSDOF 5
ENDMDL
MODEL 4
REMARK VINA RESULT:      -7.0      3.844      6.528
REMARK  Name = Indomethacin
REMARK  7 active torsions:
REMARK  status: ('A' for Active; 'I' for Inactive)
REMARK    1  A    between atoms: C_1  and  O_2
REMARK    2  A    between atoms: O_2  and  C_3
REMARK    3  A    between atoms: C_10  and  C_12
REMARK    4  A    between atoms: C_19  and  C_20
REMARK    5  A    between atoms: C_21  and  C_22
REMARK    6  A    between atoms: C_22  and  C_23
REMARK    7  A    between atoms: C_23  and  O_24
REMARK                            x       y       z     vdW  Elec       q    Type
REMARK                         _______ _______ _______ _____ _____    ______ ____
ROOT
ATOM      1  C   UNL     1      -6.570  -2.174 124.124  0.00  0.00    +0.000 A 
ATOM      2  C   UNL     1      -6.835  -1.759 125.444  0.00  0.00    +0.000 A 
ATOM      3  C   UNL     1      -7.109  -0.390 125.758  0.00  0.00    +0.000 A 
ATOM      4  C   UNL     1      -7.094   0.530 124.704  0.00  0.00    +0.000 A 
ATOM      5  C   UNL     1      -6.769   0.097 123.402  0.00  0.00    +0.000 A 
ATOM      6  C   UNL     1      -6.558  -1.244 123.109  0.00  0.00    +0.000 A 
ATOM      7  N   UNL     1      -7.428   1.795 125.209  0.00  0.00    +0.000 N 
ATOM      8  C   UNL     1      -7.570   3.008 124.463  0.00  0.00    +0.000 C 
ATOM      9  O   UNL     1      -7.757   4.087 125.021  0.00  0.00    +0.000 OA
ATOM     10  C   UNL     1      -7.590   1.682 126.595  0.00  0.00    +0.000 A 
ATOM     11  C   UNL     1      -7.922   2.925 127.381  0.00  0.00    +0.000 C 
ATOM     12  C   UNL     1      -7.402   0.335 126.990  0.00  0.00    +0.000 A 
ENDROOT
BRANCH   8  13
ATOM     13  C   UNL     1      -7.480   3.138 123.027  0.00  0.00    +0.000 A 
ATOM     14  C   UNL     1      -6.245   3.412 122.449  0.00  0.00    +0.000 A 
ATOM     15  C   UNL     1      -6.241   3.891 121.149  0.00  0.00    +0.000 A 
ATOM     16  C   UNL     1      -7.428   3.892 120.409  0.00  0.00    +0.000 A 
ATOM     17 CL   UNL     1      -7.432   4.573 118.831  0.00  0.00    +0.000 Cl
ATOM     18  C   UNL     1      -8.620   3.403 120.948  0.00  0.00    +0.000 A 
ATOM     19  C   UNL     1      -8.665   3.073 122.292  0.00  0.00    +0.000 A 
ENDBRANCH   8  13
BRANCH   1  21
ATOM     20  C   UNL     1      -5.040  -3.959 123.873  0.00  0.00    +0.000 C 
ATOM     21  O   UNL     1      -6.398  -3.517 123.912  0.00  0.00    +0.000 OA
ENDBRANCH   1  21
BRANCH  12  22
ATOM     22  C   UNL     1      -7.443  -0.432 128.359  0.00  0.00    +0.000 C 
BRANCH  22  23
ATOM     23  C   UNL     1      -6.253  -1.138 129.035  0.00  0.00    +0.000 C 
ATOM     24  O   UNL     1      -5.119  -1.129 128.621  0.00  0.00    +0.000 OA
BRANCH  23  25
ATOM     25  O   UNL     1      -6.527  -1.798 130.159  0.00  0.00    +0.000 OA
ATOM     26  H   UNL     1      -6.300  -2.674 129.870  0.00  0.00    +0.000 HD
ENDBRANCH  23  25
ENDBRANCH  22  23
ENDBRANCH  12  22
TORSDOF 5
ENDMDL
MODEL 5
REMARK VINA RESULT:      -7.0      1.685      2.091
REMARK  Name = Indomethacin
REMARK  7 active torsions:
REMARK  status: ('A' for Active; 'I' for Inactive)
REMARK    1  A    between atoms: C_1  and  O_2
REMARK    2  A    between atoms: O_2  and  C_3
REMARK    3  A    between atoms: C_10  and  C_12
REMARK    4  A    between atoms: C_19  and  C_20
REMARK    5  A    between atoms: C_21  and  C_22
REMARK    6  A    between atoms: C_22  and  C_23
REMARK    7  A    between atoms: C_23  and  O_24
REMARK                            x       y       z     vdW  Elec       q    Type
REMARK                         _______ _______ _______ _____ _____    ______ ____
ROOT
ATOM      1  C   UNL     1      -6.870   3.363 122.222  0.00  0.00    +0.000 A 
ATOM      2  C   UNL     1      -7.544   2.214 122.679  0.00  0.00    +0.000 A 
ATOM      3  C   UNL     1      -7.293   1.664 123.977  0.00  0.00    +0.000 A 
ATOM      4  C   UNL     1      -6.339   2.303 124.776  0.00  0.00    +0.000 A 
ATOM      5  C   UNL     1      -5.636   3.417 124.271  0.00  0.00    +0.000 A 
ATOM      6  C   UNL     1      -5.933   3.968 123.031  0.00  0.00    +0.000 A 
ATOM      7  N   UNL     1      -6.274   1.643 126.011  0.00  0.00    +0.000 N 
ATOM      8  C   UNL     1      -5.461   1.998 127.133  0.00  0.00    +0.000 C 
ATOM      9  O   UNL     1      -5.397   1.284 128.132  0.00  0.00    +0.000 OA
ATOM     10  C   UNL     1      -7.143   0.545 125.964  0.00  0.00    +0.000 A 
ATOM     11  C   UNL     1      -7.228  -0.352 127.173  0.00  0.00    +0.000 C 
ATOM     12  C   UNL     1      -7.806   0.513 124.713  0.00  0.00    +0.000 A 
ENDROOT
BRANCH   8  13
ATOM     13  C   UNL     1      -4.612   3.163 127.234  0.00  0.00    +0.000 A 
ATOM     14  C   UNL     1      -3.247   3.027 127.006  0.00  0.00    +0.000 A 
ATOM     15  C   UNL     1      -2.421   4.043 127.460  0.00  0.00    +0.000 A 
ATOM     16  C   UNL     1      -2.983   5.232 127.936  0.00  0.00    +0.000 A 
ATOM     17 CL   UNL     1      -1.954   6.446 128.581  0.00  0.00    +0.000 Cl
ATOM     18  C   UNL     1      -4.366   5.426 127.950  0.00  0.00    +0.000 A 
ATOM     19  C   UNL     1      -5.198   4.361 127.649  0.00  0.00    +0.000 A 
ENDBRANCH   8  13
BRANCH   1  21
ATOM     20  C   UNL     1      -8.630   3.762 120.694  0.00  0.00    +0.000 C 
ATOM     21  O   UNL     1      -7.237   3.860 120.999  0.00  0.00    +0.000 OA
ENDBRANCH   1  21
BRANCH  12  22
ATOM     22  C   UNL     1      -8.868  -0.432 124.049  0.00  0.00    +0.000 C 
BRANCH  22  23
ATOM     23  C   UNL     1      -8.766  -1.963 123.930  0.00  0.00    +0.000 C 
ATOM     24  O   UNL     1      -9.701  -2.707 123.760  0.00  0.00    +0.000 OA
BRANCH  23  25
ATOM     25  O   UNL     1      -7.539  -2.476 124.023  0.00  0.00    +0.000 OA
ATOM     26  H   UNL     1      -7.420  -2.727 123.115  0.00  0.00    +0.000 HD
ENDBRANCH  23  25
ENDBRANCH  22  23
ENDBRANCH  12  22
TORSDOF 5
ENDMDL
MODEL 6
REMARK VINA RESULT:      -6.9      4.839      6.377
REMARK  Name = Indomethacin
REMARK  7 active torsions:
REMARK  status: ('A' for Active; 'I' for Inactive)
REMARK    1  A    between atoms: C_1  and  O_2
REMARK    2  A    between atoms: O_2  and  C_3
REMARK    3  A    between atoms: C_10  and  C_12
REMARK    4  A    between atoms: C_19  and  C_20
REMARK    5  A    between atoms: C_21  and  C_22
REMARK    6  A    between atoms: C_22  and  C_23
REMARK    7  A    between atoms: C_23  and  O_24
REMARK                            x       y       z     vdW  Elec       q    Type
REMARK                         _______ _______ _______ _____ _____    ______ ____
ROOT
ATOM      1  C   UNL     1      -5.414   1.477 126.383  0.00  0.00    +0.000 A 
ATOM      2  C   UNL     1      -6.384   1.066 125.449  0.00  0.00    +0.000 A 
ATOM      3  C   UNL     1      -7.217  -0.074 125.687  0.00  0.00    +0.000 A 
ATOM      4  C   UNL     1      -7.025  -0.777 126.881  0.00  0.00    +0.000 A 
ATOM      5  C   UNL     1      -6.007  -0.379 127.771  0.00  0.00    +0.000 A 
ATOM      6  C   UNL     1      -5.246   0.761 127.548  0.00  0.00    +0.000 A 
ATOM      7  N   UNL     1      -7.960  -1.820 126.942  0.00  0.00    +0.000 N 
ATOM      8  C   UNL     1      -8.139  -2.752 128.012  0.00  0.00    +0.000 C 
ATOM      9  O   UNL     1      -8.915  -3.700 127.916  0.00  0.00    +0.000 OA
ATOM     10  C   UNL     1      -8.700  -1.812 125.752  0.00  0.00    +0.000 A 
ATOM     11  C   UNL     1      -9.757  -2.870 125.560  0.00  0.00    +0.000 C 
ATOM     12  C   UNL     1      -8.275  -0.739 124.932  0.00  0.00    +0.000 A 
ENDROOT
BRANCH   8  13
ATOM     13  C   UNL     1      -7.441  -2.739 129.277  0.00  0.00    +0.000 A 
ATOM     14  C   UNL     1      -6.362  -3.596 129.463  0.00  0.00    +0.000 A 
ATOM     15  C   UNL     1      -5.953  -3.832 130.766  0.00  0.00    +0.000 A 
ATOM     16  C   UNL     1      -6.487  -3.068 131.809  0.00  0.00    +0.000 A 
ATOM     17 CL   UNL     1      -6.042  -3.431 133.428  0.00  0.00    +0.000 Cl
ATOM     18  C   UNL     1      -7.417  -2.055 131.563  0.00  0.00    +0.000 A 
ATOM     19  C   UNL     1      -7.946  -1.922 130.290  0.00  0.00    +0.000 A 
ENDBRANCH   8  13
BRANCH   1  21
ATOM     20  C   UNL     1      -5.489   3.668 125.498  0.00  0.00    +0.000 C 
ATOM     21  O   UNL     1      -4.721   2.626 126.103  0.00  0.00    +0.000 OA
ENDBRANCH   1  21
BRANCH  12  22
ATOM     22  C   UNL     1      -8.686  -0.198 123.518  0.00  0.00    +0.000 C 
BRANCH  22  23
ATOM     23  C   UNL     1      -9.909   0.684 123.208  0.00  0.00    +0.000 C 
ATOM     24  O   UNL     1     -10.801   0.388 122.450  0.00  0.00    +0.000 OA
BRANCH  23  25
ATOM     25  O   UNL     1      -9.960   1.855 123.841  0.00  0.00    +0.000 OA
ATOM     26  H   UNL     1      -9.689   2.417 123.125  0.00  0.00    +0.000 HD
ENDBRANCH  23  25
ENDBRANCH  22  23
ENDBRANCH  12  22
TORSDOF 5
ENDMDL
MODEL 7
REMARK VINA RESULT:      -6.9      3.305      5.665
REMARK  Name = Indomethacin
REMARK  7 active torsions:
REMARK  status: ('A' for Active; 'I' for Inactive)
REMARK    1  A    between atoms: C_1  and  O_2
REMARK    2  A    between atoms: O_2  and  C_3
REMARK    3  A    between atoms: C_10  and  C_12
REMARK    4  A    between atoms: C_19  and  C_20
REMARK    5  A    between atoms: C_21  and  C_22
REMARK    6  A    between atoms: C_22  and  C_23
REMARK    7  A    between atoms: C_23  and  O_24
REMARK                            x       y       z     vdW  Elec       q    Type
REMARK                         _______ _______ _______ _____ _____    ______ ____
ROOT
ATOM      1  C   UNL     1      -5.793  -2.102 128.469  0.00  0.00    +0.000 A 
ATOM      2  C   UNL     1      -6.435  -2.284 127.228  0.00  0.00    +0.000 A 
ATOM      3  C   UNL     1      -6.532  -1.224 126.272  0.00  0.00    +0.000 A 
ATOM      4  C   UNL     1      -5.976   0.012 126.619  0.00  0.00    +0.000 A 
ATOM      5  C   UNL     1      -5.392   0.184 127.892  0.00  0.00    +0.000 A 
ATOM      6  C   UNL     1      -5.259  -0.872 128.783  0.00  0.00    +0.000 A 
ATOM      7  N   UNL     1      -6.135   0.895 125.541  0.00  0.00    +0.000 N 
ATOM      8  C   UNL     1      -5.671   2.245 125.460  0.00  0.00    +0.000 C 
ATOM      9  O   UNL     1      -5.962   2.969 124.510  0.00  0.00    +0.000 OA
ATOM     10  C   UNL     1      -6.852   0.230 124.538  0.00  0.00    +0.000 A 
ATOM     11  C   UNL     1      -7.184   0.986 123.275  0.00  0.00    +0.000 C 
ATOM     12  C   UNL     1      -7.125  -1.099 124.944  0.00  0.00    +0.000 A 
ENDROOT
BRANCH   8  13
ATOM     13  C   UNL     1      -4.870   2.930 126.448  0.00  0.00    +0.000 A 
ATOM     14  C   UNL     1      -5.487   3.816 127.324  0.00  0.00    +0.000 A 
ATOM     15  C   UNL     1      -4.676   4.717 127.996  0.00  0.00    +0.000 A 
ATOM     16  C   UNL     1      -3.286   4.580 127.931  0.00  0.00    +0.000 A 
ATOM     17 CL   UNL     1      -2.291   5.755 128.691  0.00  0.00    +0.000 Cl
ATOM     18  C   UNL     1      -2.693   3.538 127.214  0.00  0.00    +0.000 A 
ATOM     19  C   UNL     1      -3.487   2.733 126.414  0.00  0.00    +0.000 A 
ENDBRANCH   8  13
BRANCH   1  21
ATOM     20  C   UNL     1      -6.866  -3.552 129.998  0.00  0.00    +0.000 C 
ATOM     21  O   UNL     1      -5.680  -3.198 129.283  0.00  0.00    +0.000 OA
ENDBRANCH   1  21
BRANCH  12  22
ATOM     22  C   UNL     1      -7.868  -2.321 124.300  0.00  0.00    +0.000 C 
BRANCH  22  23
ATOM     23  C   UNL     1      -9.306  -2.773 124.617  0.00  0.00    +0.000 C 
ATOM     24  O   UNL     1      -9.854  -2.636 125.683  0.00  0.00    +0.000 OA
BRANCH  23  25
ATOM     25  O   UNL     1      -9.969  -3.354 123.618  0.00  0.00    +0.000 OA
ATOM     26  H   UNL     1     -10.789  -3.518 124.067  0.00  0.00    +0.000 HD
ENDBRANCH  23  25
ENDBRANCH  22  23
ENDBRANCH  12  22
TORSDOF 5
ENDMDL
MODEL 8
REMARK VINA RESULT:      -6.8      4.624      6.826
REMARK  Name = Indomethacin
REMARK  7 active torsions:
REMARK  status: ('A' for Active; 'I' for Inactive)
REMARK    1  A    between atoms: C_1  and  O_2
REMARK    2  A    between atoms: O_2  and  C_3
REMARK    3  A    between atoms: C_10  and  C_12
REMARK    4  A    between atoms: C_19  and  C_20
REMARK    5  A    between atoms: C_21  and  C_22
REMARK    6  A    between atoms: C_22  and  C_23
REMARK    7  A    between atoms: C_23  and  O_24
REMARK                            x       y       z     vdW  Elec       q    Type
REMARK                         _______ _______ _______ _____ _____    ______ ____
ROOT
ATOM      1  C   UNL     1      -9.063  -1.300 124.621  0.00  0.00    +0.000 A 
ATOM      2  C   UNL     1      -8.793   0.080 124.686  0.00  0.00    +0.000 A 
ATOM      3  C   UNL     1      -8.112   0.659 125.804  0.00  0.00    +0.000 A 
ATOM      4  C   UNL     1      -7.734  -0.196 126.844  0.00  0.00    +0.000 A 
ATOM      5  C   UNL     1      -8.069  -1.565 126.781  0.00  0.00    +0.000 A 
ATOM      6  C   UNL     1      -8.681  -2.117 125.663  0.00  0.00    +0.000 A 
ATOM      7  N   UNL     1      -7.049   0.551 127.813  0.00  0.00    +0.000 N 
ATOM      8  C   UNL     1      -6.453   0.057 129.016  0.00  0.00    +0.000 C 
ATOM      9  O   UNL     1      -5.973   0.817 129.854  0.00  0.00    +0.000 OA
ATOM     10  C   UNL     1      -7.054   1.893 127.411  0.00  0.00    +0.000 A 
ATOM     11  C   UNL     1      -6.402   2.912 128.312  0.00  0.00    +0.000 C 
ATOM     12  C   UNL     1      -7.707   2.015 126.160  0.00  0.00    +0.000 A 
ENDROOT
BRANCH   8  13
ATOM     13  C   UNL     1      -6.371  -1.328 129.418  0.00  0.00    +0.000 A 
ATOM     14  C   UNL     1      -7.349  -1.847 130.260  0.00  0.00    +0.000 A 
ATOM     15  C   UNL     1      -7.060  -3.033 130.917  0.00  0.00    +0.000 A 
ATOM     16  C   UNL     1      -5.914  -3.756 130.570  0.00  0.00    +0.000 A 
ATOM     17 CL   UNL     1      -5.518  -5.175 131.453  0.00  0.00    +0.000 Cl
ATOM     18  C   UNL     1      -5.057  -3.315 129.558  0.00  0.00    +0.000 A 
ATOM     19  C   UNL     1      -5.253  -2.058 129.011  0.00  0.00    +0.000 A 
ENDBRANCH   8  13
BRANCH   1  21
ATOM     20  C   UNL     1      -9.515  -3.179 123.259  0.00  0.00    +0.000 C 
ATOM     21  O   UNL     1      -9.646  -1.772 123.475  0.00  0.00    +0.000 OA
ENDBRANCH   1  21
BRANCH  12  22
ATOM     22  C   UNL     1      -8.039   3.210 125.199  0.00  0.00    +0.000 C 
BRANCH  22  23
ATOM     23  C   UNL     1      -8.107   4.696 125.596  0.00  0.00    +0.000 C 
ATOM     24  O   UNL     1      -9.057   5.229 126.116  0.00  0.00    +0.000 OA
BRANCH  23  25
ATOM     25  O   UNL     1      -7.021   5.422 125.333  0.00  0.00    +0.000 OA
ATOM     26  H   UNL     1      -6.603   5.366 126.183  0.00  0.00    +0.000 HD
ENDBRANCH  23  25
ENDBRANCH  22  23
ENDBRANCH  12  22
TORSDOF 5
ENDMDL
MODEL 9
REMARK VINA RESULT:      -6.7      7.633      9.131
REMARK  Name = Indomethacin
REMARK  7 active torsions:
REMARK  status: ('A' for Active; 'I' for Inactive)
REMARK    1  A    between atoms: C_1  and  O_2
REMARK    2  A    between atoms: O_2  and  C_3
REMARK    3  A    between atoms: C_10  and  C_12
REMARK    4  A    between atoms: C_19  and  C_20
REMARK    5  A    between atoms: C_21  and  C_22
REMARK    6  A    between atoms: C_22  and  C_23
REMARK    7  A    between atoms: C_23  and  O_24
REMARK                            x       y       z     vdW  Elec       q    Type
REMARK                         _______ _______ _______ _____ _____    ______ ____
ROOT
ATOM      1  C   UNL     1      -5.531   6.495 131.357  0.00  0.00    +0.000 A 
ATOM      2  C   UNL     1      -5.595   5.090 131.433  0.00  0.00    +0.000 A 
ATOM      3  C   UNL     1      -6.823   4.384 131.229  0.00  0.00    +0.000 A 
ATOM      4  C   UNL     1      -7.968   5.141 130.963  0.00  0.00    +0.000 A 
ATOM      5  C   UNL     1      -7.888   6.550 130.950  0.00  0.00    +0.000 A 
ATOM      6  C   UNL     1      -6.677   7.214 131.096  0.00  0.00    +0.000 A 
ATOM      7  N   UNL     1      -9.045   4.268 130.752  0.00  0.00    +0.000 N 
ATOM      8  C   UNL     1     -10.387   4.626 130.408  0.00  0.00    +0.000 C 
ATOM      9  O   UNL     1     -11.282   3.786 130.356  0.00  0.00    +0.000 OA
ATOM     10  C   UNL     1      -8.589   2.959 130.951  0.00  0.00    +0.000 A 
ATOM     11  C   UNL     1      -9.578   1.828 130.814  0.00  0.00    +0.000 C 
ATOM     12  C   UNL     1      -7.205   2.975 131.252  0.00  0.00    +0.000 A 
ENDROOT
BRANCH   8  13
ATOM     13  C   UNL     1     -10.866   5.959 130.127  0.00  0.00    +0.000 A 
ATOM     14  C   UNL     1     -11.653   6.609 131.071  0.00  0.00    +0.000 A 
ATOM     15  C   UNL     1     -12.392   7.700 130.644  0.00  0.00    +0.000 A 
ATOM     16  C   UNL     1     -12.175   8.226 129.366  0.00  0.00    +0.000 A 
ATOM     17 CL   UNL     1     -13.159   9.520 128.813  0.00  0.00    +0.000 Cl
ATOM     18  C   UNL     1     -11.212   7.682 128.512  0.00  0.00    +0.000 A 
ATOM     19  C   UNL     1     -10.586   6.500 128.870  0.00  0.00    +0.000 A 
ENDBRANCH   8  13
BRANCH   1  21
ATOM     20  C   UNL     1      -3.913   7.939 130.415  0.00  0.00    +0.000 C 
ATOM     21  O   UNL     1      -4.297   7.074 131.486  0.00  0.00    +0.000 OA
ENDBRANCH   1  21
BRANCH  12  22
ATOM     22  C   UNL     1      -6.131   1.877 131.572  0.00  0.00    +0.000 C 
BRANCH  22  23
ATOM     23  C   UNL     1      -6.254   0.778 132.644  0.00  0.00    +0.000 C 
ATOM     24  O   UNL     1      -5.571  -0.216 132.696  0.00  0.00    +0.000 OA
BRANCH  23  25
ATOM     25  O   UNL     1      -7.194   0.967 133.569  0.00  0.00    +0.000 OA
ATOM     26  H   UNL     1      -7.900   1.248 133.001  0.00  0.00    +0.000 HD
ENDBRANCH  23  25
ENDBRANCH  22  23
ENDBRANCH  12  22
TORSDOF 5
ENDMDL
