MODEL 1
REMARK VINA RESULT:      -8.5      0.000      0.000
REMARK  Name = Infigratinib
REMARK  11 active torsions:
REMARK  status: ('A' for Active; 'I' for Inactive)
REMARK    1  A    between atoms: C_1  and  C_2
REMARK    2  A    between atoms: C_2  and  N_3
REMARK    3  A    between atoms: N_6  and  C_9
REMARK    4  A    between atoms: C_12  and  N_13
REMARK    5  A    between atoms: N_13  and  C_14
REMARK    6  A    between atoms: N_20  and  C_21
REMARK    7  A    between atoms: N_24  and  C_25
REMARK    8  A    between atoms: C_28  and  O_29
REMARK    9  A    between atoms: O_29  and  C_30
REMARK   10  A    between atoms: C_32  and  O_33
REMARK   11  A    between atoms: O_33  and  C_34
REMARK                            x       y       z     vdW  Elec       q    Type
REMARK                         _______ _______ _______ _____ _____    ______ ____
ROOT
ATOM      1  C   UNL     1      -7.663   1.468 132.893  0.00  0.00    +0.000 A 
ATOM      2  C   UNL     1      -7.336   0.954 131.654  0.00  0.00    +0.000 A 
ATOM      3  C   UNL     1      -6.100   0.384 131.437  0.00  0.00    +0.000 A 
ATOM      4  N   UNL     1      -5.201   0.378 132.443  0.00  0.00    +0.000 NA
ATOM      5  C   UNL     1      -5.598   0.907 133.622  0.00  0.00    +0.000 A 
ATOM      6  N   UNL     1      -6.787   1.469 133.902  0.00  0.00    +0.000 NA
ATOM      7  N   UNL     1      -5.749  -0.187 130.149  0.00  0.00    +0.000 N 
ATOM      8  C   UNL     1      -4.367  -0.599 129.956  0.00  0.00    +0.000 C 
ATOM      9  C   UNL     1      -6.732  -0.416 129.169  0.00  0.00    +0.000 C 
ATOM     10  O   UNL     1      -7.934  -0.341 129.371  0.00  0.00    +0.000 OA
ATOM     11  N   UNL     1      -6.279  -0.715 127.878  0.00  0.00    +0.000 N 
ATOM     12  H   UNL     1      -5.461  -1.288 127.752  0.00  0.00    +0.000 HD
ENDROOT
BRANCH  11  13
ATOM     13  C   UNL     1      -7.215  -0.631 126.779  0.00  0.00    +0.000 A 
ATOM     14  C   UNL     1      -8.090  -1.691 126.454  0.00  0.00    +0.000 A 
ATOM     15 CL   UNL     1      -8.209  -3.057 127.521  0.00  0.00    +0.000 Cl
ATOM     16  C   UNL     1      -8.931  -1.617 125.316  0.00  0.00    +0.000 A 
ATOM     17  C   UNL     1      -8.975  -0.422 124.594  0.00  0.00    +0.000 A 
ATOM     18  C   UNL     1      -8.106   0.648 124.885  0.00  0.00    +0.000 A 
ATOM     19  C   UNL     1      -7.196   0.522 125.955  0.00  0.00    +0.000 A 
ATOM     20 CL   UNL     1      -5.858   1.635 126.206  0.00  0.00    +0.000 Cl
BRANCH  16  21
ATOM     21  O   UNL     1      -9.653  -2.737 124.962  0.00  0.00    +0.000 OA
ATOM     22  C   UNL     1      -9.361  -3.345 123.699  0.00  0.00    +0.000 C 
ENDBRANCH  16  21
BRANCH  18  23
ATOM     23  O   UNL     1      -8.258   1.680 123.990  0.00  0.00    +0.000 OA
ATOM     24  C   UNL     1      -8.792   2.904 124.471  0.00  0.00    +0.000 C 
ENDBRANCH  18  23
ENDBRANCH  11  13
BRANCH   1  25
ATOM     25  N   UNL     1      -8.967   2.002 133.049  0.00  0.00    +0.000 N 
ATOM     26  H   UNL     1      -9.662   1.267 133.012  0.00  0.00    +0.000 HD
BRANCH  25  30
ATOM     27  C   UNL     1     -10.437   5.547 131.199  0.00  0.00    +0.000 A 
ATOM     28  C   UNL     1     -10.558   4.296 130.582  0.00  0.00    +0.000 A 
ATOM     29  C   UNL     1     -10.100   3.129 131.205  0.00  0.00    +0.000 A 
ATOM     30  C   UNL     1      -9.428   3.197 132.430  0.00  0.00    +0.000 A 
ATOM     31  C   UNL     1      -9.317   4.458 133.037  0.00  0.00    +0.000 A 
ATOM     32  C   UNL     1      -9.806   5.613 132.432  0.00  0.00    +0.000 A 
BRANCH  27  36
ATOM     33  N   UNL     1     -12.483   7.999 128.477  0.00  0.00    +0.000 NA
ATOM     34  C   UNL     1     -11.122   7.466 128.256  0.00  0.00    +0.000 C 
ATOM     35  C   UNL     1     -10.254   7.268 129.526  0.00  0.00    +0.000 C 
ATOM     36  N   UNL     1     -11.012   6.662 130.631  0.00  0.00    +0.000 N 
ATOM     37  C   UNL     1     -12.444   6.955 130.791  0.00  0.00    +0.000 C 
ATOM     38  C   UNL     1     -13.169   7.116 129.444  0.00  0.00    +0.000 C 
BRANCH  33  40
ATOM     39  C   UNL     1     -13.808  10.214 128.691  0.00  0.00    +0.000 C 
ATOM     40  C   UNL     1     -12.512   9.423 128.862  0.00  0.00    +0.000 C 
ENDBRANCH  33  40
ENDBRANCH  27  36
ENDBRANCH  25  30
ENDBRANCH   1  25
TORSDOF 7
ENDMDL
MODEL 2
REMARK VINA RESULT:      -8.5      1.832      2.666
REMARK  Name = Infigratinib
REMARK  11 active torsions:
REMARK  status: ('A' for Active; 'I' for Inactive)
REMARK    1  A    between atoms: C_1  and  C_2
REMARK    2  A    between atoms: C_2  and  N_3
REMARK    3  A    between atoms: N_6  and  C_9
REMARK    4  A    between atoms: C_12  and  N_13
REMARK    5  A    between atoms: N_13  and  C_14
REMARK    6  A    between atoms: N_20  and  C_21
REMARK    7  A    between atoms: N_24  and  C_25
REMARK    8  A    between atoms: C_28  and  O_29
REMARK    9  A    between atoms: O_29  and  C_30
REMARK   10  A    between atoms: C_32  and  O_33
REMARK   11  A    between atoms: O_33  and  C_34
REMARK                            x       y       z     vdW  Elec       q    Type
REMARK                         _______ _______ _______ _____ _____    ______ ____
ROOT
ATOM      1  C   UNL     1      -6.433  -0.562 132.405  0.00  0.00    +0.000 A 
ATOM      2  C   UNL     1      -6.483  -0.565 131.025  0.00  0.00    +0.000 A 
ATOM      3  C   UNL     1      -5.788  -1.511 130.302  0.00  0.00    +0.000 A 
ATOM      4  N   UNL     1      -5.023  -2.403 130.965  0.00  0.00    +0.000 NA
ATOM      5  C   UNL     1      -5.023  -2.327 132.315  0.00  0.00    +0.000 A 
ATOM      6  N   UNL     1      -5.683  -1.439 133.079  0.00  0.00    +0.000 NA
ATOM      7  N   UNL     1      -5.851  -1.547 128.853  0.00  0.00    +0.000 N 
ATOM      8  C   UNL     1      -4.946  -2.458 128.168  0.00  0.00    +0.000 C 
ATOM      9  C   UNL     1      -6.817  -0.801 128.153  0.00  0.00    +0.000 C 
ATOM     10  O   UNL     1      -7.763  -0.237 128.680  0.00  0.00    +0.000 OA
ATOM     11  N   UNL     1      -6.644  -0.683 126.768  0.00  0.00    +0.000 N 
ATOM     12  H   UNL     1      -6.293  -1.464 126.238  0.00  0.00    +0.000 HD
ENDROOT
BRANCH  11  13
ATOM     13  C   UNL     1      -7.398   0.326 126.060  0.00  0.00    +0.000 A 
ATOM     14  C   UNL     1      -8.623   0.038 125.417  0.00  0.00    +0.000 A 
ATOM     15 CL   UNL     1      -9.364  -1.514 125.653  0.00  0.00    +0.000 Cl
ATOM     16  C   UNL     1      -9.292   1.025 124.653  0.00  0.00    +0.000 A 
ATOM     17  C   UNL     1      -8.787   2.328 124.652  0.00  0.00    +0.000 A 
ATOM     18  C   UNL     1      -7.563   2.644 125.273  0.00  0.00    +0.000 A 
ATOM     19  C   UNL     1      -6.849   1.628 125.940  0.00  0.00    +0.000 A 
ATOM     20 CL   UNL     1      -5.180   1.818 126.461  0.00  0.00    +0.000 Cl
BRANCH  16  21
ATOM     21  O   UNL     1     -10.402   0.648 123.926  0.00  0.00    +0.000 OA
ATOM     22  C   UNL     1     -10.250   0.491 122.511  0.00  0.00    +0.000 C 
ENDBRANCH  16  21
BRANCH  18  23
ATOM     23  O   UNL     1      -7.216   3.958 125.065  0.00  0.00    +0.000 OA
ATOM     24  C   UNL     1      -7.968   4.958 125.736  0.00  0.00    +0.000 C 
ENDBRANCH  18  23
ENDBRANCH  11  13
BRANCH   1  25
ATOM     25  N   UNL     1      -7.206   0.417 133.079  0.00  0.00    +0.000 N 
ATOM     26  H   UNL     1      -7.769  -0.009 133.805  0.00  0.00    +0.000 HD
BRANCH  25  30
ATOM     27  C   UNL     1      -9.197   3.611 131.083  0.00  0.00    +0.000 A 
ATOM     28  C   UNL     1      -7.853   3.712 131.467  0.00  0.00    +0.000 A 
ATOM     29  C   UNL     1      -7.194   2.650 132.097  0.00  0.00    +0.000 A 
ATOM     30  C   UNL     1      -7.891   1.486 132.437  0.00  0.00    +0.000 A 
ATOM     31  C   UNL     1      -9.235   1.399 132.044  0.00  0.00    +0.000 A 
ATOM     32  C   UNL     1      -9.879   2.443 131.385  0.00  0.00    +0.000 A 
BRANCH  27  36
ATOM     33  N   UNL     1     -11.016   7.264 130.106  0.00  0.00    +0.000 NA
ATOM     34  C   UNL     1     -11.680   6.181 130.862  0.00  0.00    +0.000 C 
ATOM     35  C   UNL     1     -11.245   4.736 130.504  0.00  0.00    +0.000 C 
ATOM     36  N   UNL     1      -9.788   4.614 130.347  0.00  0.00    +0.000 N 
ATOM     37  C   UNL     1      -9.007   5.740 129.815  0.00  0.00    +0.000 C 
ATOM     38  C   UNL     1      -9.555   7.105 130.265  0.00  0.00    +0.000 C 
BRANCH  33  40
ATOM     39  C   UNL     1     -10.741   8.348 127.771  0.00  0.00    +0.000 C 
ATOM     40  C   UNL     1     -11.445   7.359 128.698  0.00  0.00    +0.000 C 
ENDBRANCH  33  40
ENDBRANCH  27  36
ENDBRANCH  25  30
ENDBRANCH   1  25
TORSDOF 7
ENDMDL
MODEL 3
REMARK VINA RESULT:      -8.3      1.802      3.357
REMARK  Name = Infigratinib
REMARK  11 active torsions:
REMARK  status: ('A' for Active; 'I' for Inactive)
REMARK    1  A    between atoms: C_1  and  C_2
REMARK    2  A    between atoms: C_2  and  N_3
REMARK    3  A    between atoms: N_6  and  C_9
REMARK    4  A    between atoms: C_12  and  N_13
REMARK    5  A    between atoms: N_13  and  C_14
REMARK    6  A    between atoms: N_20  and  C_21
REMARK    7  A    between atoms: N_24  and  C_25
REMARK    8  A    between atoms: C_28  and  O_29
REMARK    9  A    between atoms: O_29  and  C_30
REMARK   10  A    between atoms: C_32  and  O_33
REMARK   11  A    between atoms: O_33  and  C_34
REMARK                            x       y       z     vdW  Elec       q    Type
REMARK                         _______ _______ _______ _____ _____    ______ ____
ROOT
ATOM      1  C   UNL     1      -6.416  -0.407 132.520  0.00  0.00    +0.000 A 
ATOM      2  C   UNL     1      -6.459  -0.440 131.140  0.00  0.00    +0.000 A 
ATOM      3  C   UNL     1      -5.812  -1.438 130.443  0.00  0.00    +0.000 A 
ATOM      4  N   UNL     1      -5.100  -2.354 131.131  0.00  0.00    +0.000 NA
ATOM      5  C   UNL     1      -5.102  -2.246 132.479  0.00  0.00    +0.000 A 
ATOM      6  N   UNL     1      -5.717  -1.307 133.218  0.00  0.00    +0.000 NA
ATOM      7  N   UNL     1      -5.870  -1.506 128.995  0.00  0.00    +0.000 N 
ATOM      8  C   UNL     1      -5.012  -2.479 128.337  0.00  0.00    +0.000 C 
ATOM      9  C   UNL     1      -6.791  -0.726 128.272  0.00  0.00    +0.000 C 
ATOM     10  O   UNL     1      -7.708  -0.099 128.780  0.00  0.00    +0.000 OA
ATOM     11  N   UNL     1      -6.605  -0.650 126.886  0.00  0.00    +0.000 N 
ATOM     12  H   UNL     1      -6.295  -1.461 126.376  0.00  0.00    +0.000 HD
ENDROOT
BRANCH  11  13
ATOM     13  C   UNL     1      -7.301   0.382 126.150  0.00  0.00    +0.000 A 
ATOM     14  C   UNL     1      -6.856   1.723 126.130  0.00  0.00    +0.000 A 
ATOM     15 CL   UNL     1      -5.317   2.120 126.829  0.00  0.00    +0.000 Cl
ATOM     16  C   UNL     1      -7.609   2.729 125.477  0.00  0.00    +0.000 A 
ATOM     17  C   UNL     1      -8.734   2.350 124.739  0.00  0.00    +0.000 A 
ATOM     18  C   UNL     1      -9.209   1.025 124.749  0.00  0.00    +0.000 A 
ATOM     19  C   UNL     1      -8.512   0.050 125.493  0.00  0.00    +0.000 A 
ATOM     20 CL   UNL     1      -9.178  -1.538 125.846  0.00  0.00    +0.000 Cl
BRANCH  16  21
ATOM     21  O   UNL     1      -7.207   4.041 125.616  0.00  0.00    +0.000 OA
ATOM     22  C   UNL     1      -8.216   5.020 125.891  0.00  0.00    +0.000 C 
ENDBRANCH  16  21
BRANCH  18  23
ATOM     23  O   UNL     1     -10.378   0.902 124.035  0.00  0.00    +0.000 OA
ATOM     24  C   UNL     1     -10.281   0.649 122.642  0.00  0.00    +0.000 C 
ENDBRANCH  18  23
ENDBRANCH  11  13
BRANCH   1  25
ATOM     25  N   UNL     1      -7.138   0.629 133.166  0.00  0.00    +0.000 N 
ATOM     26  H   UNL     1      -7.661   0.263 133.952  0.00  0.00    +0.000 HD
BRANCH  25  30
ATOM     27  C   UNL     1      -9.209   3.705 131.068  0.00  0.00    +0.000 A 
ATOM     28  C   UNL     1      -7.871   3.856 131.457  0.00  0.00    +0.000 A 
ATOM     29  C   UNL     1      -7.185   2.832 132.120  0.00  0.00    +0.000 A 
ATOM     30  C   UNL     1      -7.849   1.659 132.490  0.00  0.00    +0.000 A 
ATOM     31  C   UNL     1      -9.188   1.520 132.092  0.00  0.00    +0.000 A 
ATOM     32  C   UNL     1      -9.859   2.526 131.400  0.00  0.00    +0.000 A 
BRANCH  27  36
ATOM     33  N   UNL     1     -11.077   7.297 129.967  0.00  0.00    +0.000 NA
ATOM     34  C   UNL     1     -11.715   6.245 130.788  0.00  0.00    +0.000 C 
ATOM     35  C   UNL     1     -11.278   4.788 130.487  0.00  0.00    +0.000 C 
ATOM     36  N   UNL     1      -9.824   4.669 130.301  0.00  0.00    +0.000 N 
ATOM     37  C   UNL     1      -9.064   5.774 129.700  0.00  0.00    +0.000 C 
ATOM     38  C   UNL     1      -9.611   7.154 130.099  0.00  0.00    +0.000 C 
BRANCH  33  40
ATOM     39  C   UNL     1     -10.830   8.233 127.566  0.00  0.00    +0.000 C 
ATOM     40  C   UNL     1     -11.540   7.324 128.567  0.00  0.00    +0.000 C 
ENDBRANCH  33  40
ENDBRANCH  27  36
ENDBRANCH  25  30
ENDBRANCH   1  25
TORSDOF 7
ENDMDL
MODEL 4
REMARK VINA RESULT:      -8.2      3.708      7.647
REMARK  Name = Infigratinib
REMARK  11 active torsions:
REMARK  status: ('A' for Active; 'I' for Inactive)
REMARK    1  A    between atoms: C_1  and  C_2
REMARK    2  A    between atoms: C_2  and  N_3
REMARK    3  A    between atoms: N_6  and  C_9
REMARK    4  A    between atoms: C_12  and  N_13
REMARK    5  A    between atoms: N_13  and  C_14
REMARK    6  A    between atoms: N_20  and  C_21
REMARK    7  A    between atoms: N_24  and  C_25
REMARK    8  A    between atoms: C_28  and  O_29
REMARK    9  A    between atoms: O_29  and  C_30
REMARK   10  A    between atoms: C_32  and  O_33
REMARK   11  A    between atoms: O_33  and  C_34
REMARK                            x       y       z     vdW  Elec       q    Type
REMARK                         _______ _______ _______ _____ _____    ______ ____
ROOT
ATOM      1  C   UNL     1      -5.770  -3.707 131.975  0.00  0.00    +0.000 A 
ATOM      2  C   UNL     1      -5.955  -2.343 132.083  0.00  0.00    +0.000 A 
ATOM      3  C   UNL     1      -5.689  -1.693 133.270  0.00  0.00    +0.000 A 
ATOM      4  N   UNL     1      -5.289  -2.420 134.333  0.00  0.00    +0.000 NA
ATOM      5  C   UNL     1      -5.139  -3.750 134.146  0.00  0.00    +0.000 A 
ATOM      6  N   UNL     1      -5.372  -4.443 133.017  0.00  0.00    +0.000 NA
ATOM      7  N   UNL     1      -5.850  -0.256 133.394  0.00  0.00    +0.000 N 
ATOM      8  C   UNL     1      -5.724   0.317 134.725  0.00  0.00    +0.000 C 
ATOM      9  C   UNL     1      -6.024   0.552 132.255  0.00  0.00    +0.000 C 
ATOM     10  O   UNL     1      -5.870   0.164 131.108  0.00  0.00    +0.000 OA
ATOM     11  N   UNL     1      -6.433   1.873 132.475  0.00  0.00    +0.000 N 
ATOM     12  H   UNL     1      -6.078   2.385 133.266  0.00  0.00    +0.000 HD
ENDROOT
BRANCH  11  13
ATOM     13  C   UNL     1      -6.942   2.635 131.356  0.00  0.00    +0.000 A 
ATOM     14  C   UNL     1      -6.094   3.374 130.501  0.00  0.00    +0.000 A 
ATOM     15 CL   UNL     1      -4.372   3.202 130.652  0.00  0.00    +0.000 Cl
ATOM     16  C   UNL     1      -6.628   4.185 129.470  0.00  0.00    +0.000 A 
ATOM     17  C   UNL     1      -8.004   4.140 129.229  0.00  0.00    +0.000 A 
ATOM     18  C   UNL     1      -8.877   3.424 130.071  0.00  0.00    +0.000 A 
ATOM     19  C   UNL     1      -8.344   2.706 131.162  0.00  0.00    +0.000 A 
ATOM     20 CL   UNL     1      -9.341   2.056 132.455  0.00  0.00    +0.000 Cl
BRANCH  16  21
ATOM     21  O   UNL     1      -5.767   4.997 128.763  0.00  0.00    +0.000 OA
ATOM     22  C   UNL     1      -5.333   4.547 127.475  0.00  0.00    +0.000 C 
ENDBRANCH  16  21
BRANCH  18  23
ATOM     23  O   UNL     1     -10.190   3.599 129.704  0.00  0.00    +0.000 OA
ATOM     24  C   UNL     1     -10.950   4.574 130.401  0.00  0.00    +0.000 C 
ENDBRANCH  18  23
ENDBRANCH  11  13
BRANCH   1  25
ATOM     25  N   UNL     1      -6.027  -4.298 130.712  0.00  0.00    +0.000 N 
ATOM     26  H   UNL     1      -5.310  -4.973 130.480  0.00  0.00    +0.000 HD
BRANCH  25  30
ATOM     27  C   UNL     1      -7.420  -2.109 127.332  0.00  0.00    +0.000 A 
ATOM     28  C   UNL     1      -8.289  -2.884 128.111  0.00  0.00    +0.000 A 
ATOM     29  C   UNL     1      -7.834  -3.578 129.239  0.00  0.00    +0.000 A 
ATOM     30  C   UNL     1      -6.474  -3.585 129.564  0.00  0.00    +0.000 A 
ATOM     31  C   UNL     1      -5.616  -2.802 128.776  0.00  0.00    +0.000 A 
ATOM     32  C   UNL     1      -6.078  -2.083 127.676  0.00  0.00    +0.000 A 
BRANCH  27  36
ATOM     33  N   UNL     1      -8.050  -0.554 123.486  0.00  0.00    +0.000 NA
ATOM     34  C   UNL     1      -6.817  -0.347 124.275  0.00  0.00    +0.000 C 
ATOM     35  C   UNL     1      -6.996  -0.290 125.814  0.00  0.00    +0.000 C 
ATOM     36  N   UNL     1      -7.911  -1.329 126.309  0.00  0.00    +0.000 N 
ATOM     37  C   UNL     1      -9.043  -1.770 125.481  0.00  0.00    +0.000 C 
ATOM     38  C   UNL     1      -8.708  -1.782 123.980  0.00  0.00    +0.000 C 
BRANCH  33  40
ATOM     39  C   UNL     1     -10.197   0.577 122.583  0.00  0.00    +0.000 C 
ATOM     40  C   UNL     1      -8.943   0.619 123.456  0.00  0.00    +0.000 C 
ENDBRANCH  33  40
ENDBRANCH  27  36
ENDBRANCH  25  30
ENDBRANCH   1  25
TORSDOF 7
ENDMDL
MODEL 5
REMARK VINA RESULT:      -8.1      4.078      9.476
REMARK  Name = Infigratinib
REMARK  11 active torsions:
REMARK  status: ('A' for Active; 'I' for Inactive)
REMARK    1  A    between atoms: C_1  and  C_2
REMARK    2  A    between atoms: C_2  and  N_3
REMARK    3  A    between atoms: N_6  and  C_9
REMARK    4  A    between atoms: C_12  and  N_13
REMARK    5  A    between atoms: N_13  and  C_14
REMARK    6  A    between atoms: N_20  and  C_21
REMARK    7  A    between atoms: N_24  and  C_25
REMARK    8  A    between atoms: C_28  and  O_29
REMARK    9  A    between atoms: O_29  and  C_30
REMARK   10  A    between atoms: C_32  and  O_33
REMARK   11  A    between atoms: O_33  and  C_34
REMARK                            x       y       z     vdW  Elec       q    Type
REMARK                         _______ _______ _______ _____ _____    ______ ____
ROOT
ATOM      1  C   UNL     1      -8.936  -1.351 124.507  0.00  0.00    +0.000 A 
ATOM      2  C   UNL     1      -8.580  -0.245 125.254  0.00  0.00    +0.000 A 
ATOM      3  C   UNL     1      -8.772   1.026 124.756  0.00  0.00    +0.000 A 
ATOM      4  N   UNL     1      -9.270   1.169 123.511  0.00  0.00    +0.000 NA
ATOM      5  C   UNL     1      -9.586   0.036 122.844  0.00  0.00    +0.000 A 
ATOM      6  N   UNL     1      -9.434  -1.229 123.272  0.00  0.00    +0.000 NA
ATOM      7  N   UNL     1      -8.430   2.201 125.538  0.00  0.00    +0.000 N 
ATOM      8  C   UNL     1      -8.494   3.490 124.867  0.00  0.00    +0.000 C 
ATOM      9  C   UNL     1      -8.145   2.096 126.911  0.00  0.00    +0.000 C 
ATOM     10  O   UNL     1      -8.337   1.091 127.578  0.00  0.00    +0.000 OA
ATOM     11  N   UNL     1      -7.573   3.217 127.525  0.00  0.00    +0.000 N 
ATOM     12  H   UNL     1      -7.867   4.142 127.257  0.00  0.00    +0.000 HD
ENDROOT
BRANCH  11  13
ATOM     13  C   UNL     1      -6.962   3.058 128.826  0.00  0.00    +0.000 A 
ATOM     14  C   UNL     1      -5.698   2.448 128.994  0.00  0.00    +0.000 A 
ATOM     15 CL   UNL     1      -4.743   2.067 127.595  0.00  0.00    +0.000 Cl
ATOM     16  C   UNL     1      -5.166   2.222 130.287  0.00  0.00    +0.000 A 
ATOM     17  C   UNL     1      -5.855   2.730 131.392  0.00  0.00    +0.000 A 
ATOM     18  C   UNL     1      -7.121   3.331 131.259  0.00  0.00    +0.000 A 
ATOM     19  C   UNL     1      -7.692   3.453 129.974  0.00  0.00    +0.000 A 
ATOM     20 CL   UNL     1      -9.378   3.876 129.715  0.00  0.00    +0.000 Cl
BRANCH  16  21
ATOM     21  O   UNL     1      -4.002   1.492 130.397  0.00  0.00    +0.000 OA
ATOM     22  C   UNL     1      -4.116   0.069 130.504  0.00  0.00    +0.000 C 
ENDBRANCH  16  21
BRANCH  18  23
ATOM     23  O   UNL     1      -7.652   3.667 132.481  0.00  0.00    +0.000 OA
ATOM     24  C   UNL     1      -8.521   2.736 133.107  0.00  0.00    +0.000 C 
ENDBRANCH  18  23
ENDBRANCH  11  13
BRANCH   1  25
ATOM     25  N   UNL     1      -8.744  -2.623 125.102  0.00  0.00    +0.000 N 
ATOM     26  H   UNL     1      -9.498  -3.252 124.853  0.00  0.00    +0.000 HD
BRANCH  25  30
ATOM     27  C   UNL     1      -7.419  -3.337 129.088  0.00  0.00    +0.000 A 
ATOM     28  C   UNL     1      -8.645  -3.831 128.625  0.00  0.00    +0.000 A 
ATOM     29  C   UNL     1      -9.065  -3.620 127.306  0.00  0.00    +0.000 A 
ATOM     30  C   UNL     1      -8.303  -2.830 126.439  0.00  0.00    +0.000 A 
ATOM     31  C   UNL     1      -7.076  -2.344 126.916  0.00  0.00    +0.000 A 
ATOM     32  C   UNL     1      -6.643  -2.587 128.218  0.00  0.00    +0.000 A 
BRANCH  27  36
ATOM     33  N   UNL     1      -5.119  -3.340 132.598  0.00  0.00    +0.000 NA
ATOM     34  C   UNL     1      -4.650  -3.861 131.296  0.00  0.00    +0.000 C 
ATOM     35  C   UNL     1      -5.737  -4.478 130.378  0.00  0.00    +0.000 C 
ATOM     36  N   UNL     1      -6.965  -3.669 130.345  0.00  0.00    +0.000 N 
ATOM     37  C   UNL     1      -7.387  -2.919 131.537  0.00  0.00    +0.000 C 
ATOM     38  C   UNL     1      -6.198  -2.363 132.338  0.00  0.00    +0.000 C 
BRANCH  33  40
ATOM     39  C   UNL     1      -4.589  -5.605 133.734  0.00  0.00    +0.000 C 
ATOM     40  C   UNL     1      -5.499  -4.391 133.559  0.00  0.00    +0.000 C 
ENDBRANCH  33  40
ENDBRANCH  27  36
ENDBRANCH  25  30
ENDBRANCH   1  25
TORSDOF 7
ENDMDL
MODEL 6
REMARK VINA RESULT:      -8.0      4.027      9.559
REMARK  Name = Infigratinib
REMARK  11 active torsions:
REMARK  status: ('A' for Active; 'I' for Inactive)
REMARK    1  A    between atoms: C_1  and  C_2
REMARK    2  A    between atoms: C_2  and  N_3
REMARK    3  A    between atoms: N_6  and  C_9
REMARK    4  A    between atoms: C_12  and  N_13
REMARK    5  A    between atoms: N_13  and  C_14
REMARK    6  A    between atoms: N_20  and  C_21
REMARK    7  A    between atoms: N_24  and  C_25
REMARK    8  A    between atoms: C_28  and  O_29
REMARK    9  A    between atoms: O_29  and  C_30
REMARK   10  A    between atoms: C_32  and  O_33
REMARK   11  A    between atoms: O_33  and  C_34
REMARK                            x       y       z     vdW  Elec       q    Type
REMARK                         _______ _______ _______ _____ _____    ______ ____
ROOT
ATOM      1  C   UNL     1      -8.956  -1.340 124.684  0.00  0.00    +0.000 A 
ATOM      2  C   UNL     1      -8.622  -0.234 125.440  0.00  0.00    +0.000 A 
ATOM      3  C   UNL     1      -8.713   1.033 124.905  0.00  0.00    +0.000 A 
ATOM      4  N   UNL     1      -9.091   1.169 123.617  0.00  0.00    +0.000 NA
ATOM      5  C   UNL     1      -9.393   0.036 122.944  0.00  0.00    +0.000 A 
ATOM      6  N   UNL     1      -9.334  -1.225 123.407  0.00  0.00    +0.000 NA
ATOM      7  N   UNL     1      -8.394   2.209 125.694  0.00  0.00    +0.000 N 
ATOM      8  C   UNL     1      -8.342   3.485 124.998  0.00  0.00    +0.000 C 
ATOM      9  C   UNL     1      -8.239   2.122 127.089  0.00  0.00    +0.000 C 
ATOM     10  O   UNL     1      -8.533   1.140 127.753  0.00  0.00    +0.000 OA
ATOM     11  N   UNL     1      -7.677   3.231 127.733  0.00  0.00    +0.000 N 
ATOM     12  H   UNL     1      -7.907   4.161 127.423  0.00  0.00    +0.000 HD
ENDROOT
BRANCH  11  13
ATOM     13  C   UNL     1      -7.194   3.075 129.086  0.00  0.00    +0.000 A 
ATOM     14  C   UNL     1      -7.964   3.453 130.210  0.00  0.00    +0.000 A 
ATOM     15 CL   UNL     1      -9.621   3.921 129.987  0.00  0.00    +0.000 Cl
ATOM     16  C   UNL     1      -7.428   3.374 131.518  0.00  0.00    +0.000 A 
ATOM     17  C   UNL     1      -6.169   2.793 131.692  0.00  0.00    +0.000 A 
ATOM     18  C   UNL     1      -5.372   2.418 130.593  0.00  0.00    +0.000 A 
ATOM     19  C   UNL     1      -5.873   2.602 129.287  0.00  0.00    +0.000 A 
ATOM     20 CL   UNL     1      -4.864   2.483 127.852  0.00  0.00    +0.000 Cl
BRANCH  16  21
ATOM     21  O   UNL     1      -8.166   3.894 132.560  0.00  0.00    +0.000 OA
ATOM     22  C   UNL     1      -8.885   2.976 133.391  0.00  0.00    +0.000 C 
ENDBRANCH  16  21
BRANCH  18  23
ATOM     23  O   UNL     1      -4.140   1.961 130.995  0.00  0.00    +0.000 OA
ATOM     24  C   UNL     1      -4.051   0.629 131.477  0.00  0.00    +0.000 C 
ENDBRANCH  18  23
ENDBRANCH  11  13
BRANCH   1  25
ATOM     25  N   UNL     1      -8.874  -2.607 125.317  0.00  0.00    +0.000 N 
ATOM     26  H   UNL     1      -9.713  -3.147 125.146  0.00  0.00    +0.000 HD
BRANCH  25  30
ATOM     27  C   UNL     1      -7.345  -3.345 129.224  0.00  0.00    +0.000 A 
ATOM     28  C   UNL     1      -8.602  -3.820 128.828  0.00  0.00    +0.000 A 
ATOM     29  C   UNL     1      -9.089  -3.601 127.534  0.00  0.00    +0.000 A 
ATOM     30  C   UNL     1      -8.363  -2.822 126.627  0.00  0.00    +0.000 A 
ATOM     31  C   UNL     1      -7.105  -2.355 127.037  0.00  0.00    +0.000 A 
ATOM     32  C   UNL     1      -6.606  -2.605 128.314  0.00  0.00    +0.000 A 
BRANCH  27  36
ATOM     33  N   UNL     1      -4.927  -3.311 132.654  0.00  0.00    +0.000 NA
ATOM     34  C   UNL     1      -4.475  -3.766 131.321  0.00  0.00    +0.000 C 
ATOM     35  C   UNL     1      -5.555  -4.420 130.423  0.00  0.00    +0.000 C 
ATOM     36  N   UNL     1      -6.828  -3.685 130.455  0.00  0.00    +0.000 N 
ATOM     37  C   UNL     1      -7.252  -2.996 131.683  0.00  0.00    +0.000 C 
ATOM     38  C   UNL     1      -6.070  -2.393 132.460  0.00  0.00    +0.000 C 
BRANCH  33  40
ATOM     39  C   UNL     1      -4.277  -5.619 133.632  0.00  0.00    +0.000 C 
ATOM     40  C   UNL     1      -5.212  -4.410 133.595  0.00  0.00    +0.000 C 
ENDBRANCH  33  40
ENDBRANCH  27  36
ENDBRANCH  25  30
ENDBRANCH   1  25
TORSDOF 7
ENDMDL
MODEL 7
REMARK VINA RESULT:      -8.0      3.561      7.275
REMARK  Name = Infigratinib
REMARK  11 active torsions:
REMARK  status: ('A' for Active; 'I' for Inactive)
REMARK    1  A    between atoms: C_1  and  C_2
REMARK    2  A    between atoms: C_2  and  N_3
REMARK    3  A    between atoms: N_6  and  C_9
REMARK    4  A    between atoms: C_12  and  N_13
REMARK    5  A    between atoms: N_13  and  C_14
REMARK    6  A    between atoms: N_20  and  C_21
REMARK    7  A    between atoms: N_24  and  C_25
REMARK    8  A    between atoms: C_28  and  O_29
REMARK    9  A    between atoms: O_29  and  C_30
REMARK   10  A    between atoms: C_32  and  O_33
REMARK   11  A    between atoms: O_33  and  C_34
REMARK                            x       y       z     vdW  Elec       q    Type
REMARK                         _______ _______ _______ _____ _____    ______ ____
ROOT
ATOM      1  C   UNL     1      -6.149  -3.307 130.272  0.00  0.00    +0.000 A 
ATOM      2  C   UNL     1      -6.328  -2.050 130.815  0.00  0.00    +0.000 A 
ATOM      3  C   UNL     1      -6.041  -1.813 132.142  0.00  0.00    +0.000 A 
ATOM      4  N   UNL     1      -5.626  -2.841 132.911  0.00  0.00    +0.000 NA
ATOM      5  C   UNL     1      -5.483  -4.041 132.304  0.00  0.00    +0.000 A 
ATOM      6  N   UNL     1      -5.736  -4.337 131.018  0.00  0.00    +0.000 NA
ATOM      7  N   UNL     1      -6.196  -0.492 132.723  0.00  0.00    +0.000 N 
ATOM      8  C   UNL     1      -6.047  -0.375 134.165  0.00  0.00    +0.000 C 
ATOM      9  C   UNL     1      -6.387   0.638 131.906  0.00  0.00    +0.000 C 
ATOM     10  O   UNL     1      -6.252   0.638 130.692  0.00  0.00    +0.000 OA
ATOM     11  N   UNL     1      -6.788   1.818 132.543  0.00  0.00    +0.000 N 
ATOM     12  H   UNL     1      -6.419   2.050 133.451  0.00  0.00    +0.000 HD
ENDROOT
BRANCH  11  13
ATOM     13  C   UNL     1      -7.313   2.897 131.736  0.00  0.00    +0.000 A 
ATOM     14  C   UNL     1      -8.658   2.928 131.303  0.00  0.00    +0.000 A 
ATOM     15 CL   UNL     1      -9.780   1.757 131.925  0.00  0.00    +0.000 Cl
ATOM     16  C   UNL     1      -9.119   3.949 130.437  0.00  0.00    +0.000 A 
ATOM     17  C   UNL     1      -8.254   5.000 130.121  0.00  0.00    +0.000 A 
ATOM     18  C   UNL     1      -6.905   4.992 130.526  0.00  0.00    +0.000 A 
ATOM     19  C   UNL     1      -6.427   3.913 131.300  0.00  0.00    +0.000 A 
ATOM     20 CL   UNL     1      -4.716   3.627 131.583  0.00  0.00    +0.000 Cl
BRANCH  16  21
ATOM     21  O   UNL     1     -10.396   3.847 129.928  0.00  0.00    +0.000 OA
ATOM     22  C   UNL     1     -11.356   4.828 130.337  0.00  0.00    +0.000 C 
ENDBRANCH  16  21
BRANCH  18  23
ATOM     23  O   UNL     1      -6.220   6.072 130.024  0.00  0.00    +0.000 OA
ATOM     24  C   UNL     1      -5.737   7.038 130.944  0.00  0.00    +0.000 C 
ENDBRANCH  18  23
ENDBRANCH  11  13
BRANCH   1  25
ATOM     25  N   UNL     1      -6.429  -3.462 128.891  0.00  0.00    +0.000 N 
ATOM     26  H   UNL     1      -5.839  -4.178 128.485  0.00  0.00    +0.000 HD
BRANCH  25  30
ATOM     27  C   UNL     1      -7.069  -0.295 126.114  0.00  0.00    +0.000 A 
ATOM     28  C   UNL     1      -5.783  -0.782 126.386  0.00  0.00    +0.000 A 
ATOM     29  C   UNL     1      -5.580  -1.842 127.277  0.00  0.00    +0.000 A 
ATOM     30  C   UNL     1      -6.654  -2.387 127.988  0.00  0.00    +0.000 A 
ATOM     31  C   UNL     1      -7.936  -1.891 127.703  0.00  0.00    +0.000 A 
ATOM     32  C   UNL     1      -8.140  -0.860 126.789  0.00  0.00    +0.000 A 
BRANCH  27  36
ATOM     33  N   UNL     1      -8.979   2.421 123.549  0.00  0.00    +0.000 NA
ATOM     34  C   UNL     1      -9.061   0.951 123.414  0.00  0.00    +0.000 C 
ATOM     35  C   UNL     1      -7.811   0.155 123.869  0.00  0.00    +0.000 C 
ATOM     36  N   UNL     1      -7.261   0.656 125.137  0.00  0.00    +0.000 N 
ATOM     37  C   UNL     1      -7.347   2.087 125.464  0.00  0.00    +0.000 C 
ATOM     38  C   UNL     1      -8.645   2.734 124.955  0.00  0.00    +0.000 C 
BRANCH  33  40
ATOM     39  C   UNL     1      -8.630   3.511 121.226  0.00  0.00    +0.000 C 
ATOM     40  C   UNL     1      -8.074   3.060 122.576  0.00  0.00    +0.000 C 
ENDBRANCH  33  40
ENDBRANCH  27  36
ENDBRANCH  25  30
ENDBRANCH   1  25
TORSDOF 7
ENDMDL
MODEL 8
REMARK VINA RESULT:      -7.9      4.805      7.874
REMARK  Name = Infigratinib
REMARK  11 active torsions:
REMARK  status: ('A' for Active; 'I' for Inactive)
REMARK    1  A    between atoms: C_1  and  C_2
REMARK    2  A    between atoms: C_2  and  N_3
REMARK    3  A    between atoms: N_6  and  C_9
REMARK    4  A    between atoms: C_12  and  N_13
REMARK    5  A    between atoms: N_13  and  C_14
REMARK    6  A    between atoms: N_20  and  C_21
REMARK    7  A    between atoms: N_24  and  C_25
REMARK    8  A    between atoms: C_28  and  O_29
REMARK    9  A    between atoms: O_29  and  C_30
REMARK   10  A    between atoms: C_32  and  O_33
REMARK   11  A    between atoms: O_33  and  C_34
REMARK                            x       y       z     vdW  Elec       q    Type
REMARK                         _______ _______ _______ _____ _____    ______ ____
ROOT
ATOM      1  C   UNL     1      -5.564  -2.079 133.147  0.00  0.00    +0.000 A 
ATOM      2  C   UNL     1      -5.505  -0.740 132.818  0.00  0.00    +0.000 A 
ATOM      3  C   UNL     1      -5.742   0.226 133.773  0.00  0.00    +0.000 A 
ATOM      4  N   UNL     1      -6.078  -0.161 135.020  0.00  0.00    +0.000 NA
ATOM      5  C   UNL     1      -6.121  -1.492 135.258  0.00  0.00    +0.000 A 
ATOM      6  N   UNL     1      -5.893  -2.483 134.379  0.00  0.00    +0.000 NA
ATOM      7  N   UNL     1      -5.656   1.639 133.452  0.00  0.00    +0.000 N 
ATOM      8  C   UNL     1      -6.099   2.582 134.468  0.00  0.00    +0.000 C 
ATOM      9  C   UNL     1      -5.076   2.072 132.245  0.00  0.00    +0.000 C 
ATOM     10  O   UNL     1      -4.451   1.349 131.485  0.00  0.00    +0.000 OA
ATOM     11  N   UNL     1      -5.270   3.414 131.897  0.00  0.00    +0.000 N 
ATOM     12  H   UNL     1      -5.262   4.125 132.610  0.00  0.00    +0.000 HD
ENDROOT
BRANCH  11  13
ATOM     13  C   UNL     1      -4.992   3.824 130.539  0.00  0.00    +0.000 A 
ATOM     14  C   UNL     1      -5.883   3.559 129.475  0.00  0.00    +0.000 A 
ATOM     15 CL   UNL     1      -7.458   2.915 129.824  0.00  0.00    +0.000 Cl
ATOM     16  C   UNL     1      -5.542   3.890 128.140  0.00  0.00    +0.000 A 
ATOM     17  C   UNL     1      -4.362   4.602 127.909  0.00  0.00    +0.000 A 
ATOM     18  C   UNL     1      -3.447   4.869 128.945  0.00  0.00    +0.000 A 
ATOM     19  C   UNL     1      -3.747   4.439 130.254  0.00  0.00    +0.000 A 
ATOM     20 CL   UNL     1      -2.558   4.421 131.549  0.00  0.00    +0.000 Cl
BRANCH  16  21
ATOM     21  O   UNL     1      -6.382   3.475 127.129  0.00  0.00    +0.000 OA
ATOM     22  C   UNL     1      -5.929   2.414 126.281  0.00  0.00    +0.000 C 
ENDBRANCH  16  21
BRANCH  18  23
ATOM     23  O   UNL     1      -2.317   5.493 128.472  0.00  0.00    +0.000 OA
ATOM     24  C   UNL     1      -2.370   6.896 128.266  0.00  0.00    +0.000 C 
ENDBRANCH  18  23
ENDBRANCH  11  13
BRANCH   1  25
ATOM     25  N   UNL     1      -5.270  -3.012 132.121  0.00  0.00    +0.000 N 
ATOM     26  H   UNL     1      -4.292  -3.274 132.145  0.00  0.00    +0.000 HD
BRANCH  25  30
ATOM     27  C   UNL     1      -6.801  -2.687 128.158  0.00  0.00    +0.000 A 
ATOM     28  C   UNL     1      -7.627  -3.032 129.236  0.00  0.00    +0.000 A 
ATOM     29  C   UNL     1      -7.127  -3.109 130.542  0.00  0.00    +0.000 A 
ATOM     30  C   UNL     1      -5.762  -2.928 130.789  0.00  0.00    +0.000 A 
ATOM     31  C   UNL     1      -4.948  -2.581 129.699  0.00  0.00    +0.000 A 
ATOM     32  C   UNL     1      -5.455  -2.469 128.407  0.00  0.00    +0.000 A 
BRANCH  27  36
ATOM     33  N   UNL     1      -9.511  -1.643 125.130  0.00  0.00    +0.000 NA
ATOM     34  C   UNL     1      -9.652  -2.831 125.998  0.00  0.00    +0.000 C 
ATOM     35  C   UNL     1      -8.329  -3.484 126.478  0.00  0.00    +0.000 C 
ATOM     36  N   UNL     1      -7.338  -2.486 126.906  0.00  0.00    +0.000 N 
ATOM     37  C   UNL     1      -7.281  -1.173 126.247  0.00  0.00    +0.000 C 
ATOM     38  C   UNL     1      -8.670  -0.655 125.839  0.00  0.00    +0.000 C 
BRANCH  33  40
ATOM     39  C   UNL     1      -9.503  -3.236 123.088  0.00  0.00    +0.000 C 
ATOM     40  C   UNL     1      -9.033  -1.951 123.769  0.00  0.00    +0.000 C 
ENDBRANCH  33  40
ENDBRANCH  27  36
ENDBRANCH  25  30
ENDBRANCH   1  25
TORSDOF 7
ENDMDL
MODEL 9
REMARK VINA RESULT:      -7.8      5.176      8.692
REMARK  Name = Infigratinib
REMARK  11 active torsions:
REMARK  status: ('A' for Active; 'I' for Inactive)
REMARK    1  A    between atoms: C_1  and  C_2
REMARK    2  A    between atoms: C_2  and  N_3
REMARK    3  A    between atoms: N_6  and  C_9
REMARK    4  A    between atoms: C_12  and  N_13
REMARK    5  A    between atoms: N_13  and  C_14
REMARK    6  A    between atoms: N_20  and  C_21
REMARK    7  A    between atoms: N_24  and  C_25
REMARK    8  A    between atoms: C_28  and  O_29
REMARK    9  A    between atoms: O_29  and  C_30
REMARK   10  A    between atoms: C_32  and  O_33
REMARK   11  A    between atoms: O_33  and  C_34
REMARK                            x       y       z     vdW  Elec       q    Type
REMARK                         _______ _______ _______ _____ _____    ______ ____
ROOT
ATOM      1  C   UNL     1      -3.722   5.437 127.985  0.00  0.00    +0.000 A 
ATOM      2  C   UNL     1      -4.087   4.820 129.165  0.00  0.00    +0.000 A 
ATOM      3  C   UNL     1      -4.423   5.570 130.272  0.00  0.00    +0.000 A 
ATOM      4  N   UNL     1      -4.343   6.915 130.195  0.00  0.00    +0.000 NA
ATOM      5  C   UNL     1      -3.970   7.439 129.006  0.00  0.00    +0.000 A 
ATOM      6  N   UNL     1      -3.639   6.768 127.889  0.00  0.00    +0.000 NA
ATOM      7  N   UNL     1      -4.837   4.940 131.512  0.00  0.00    +0.000 N 
ATOM      8  C   UNL     1      -4.994   5.797 132.677  0.00  0.00    +0.000 C 
ATOM      9  C   UNL     1      -5.164   3.572 131.552  0.00  0.00    +0.000 C 
ATOM     10  O   UNL     1      -5.309   2.871 130.563  0.00  0.00    +0.000 OA
ATOM     11  N   UNL     1      -5.294   2.990 132.820  0.00  0.00    +0.000 N 
ATOM     12  H   UNL     1      -5.710   3.513 133.572  0.00  0.00    +0.000 HD
ENDROOT
BRANCH  11  13
ATOM     13  C   UNL     1      -5.297   1.548 132.922  0.00  0.00    +0.000 A 
ATOM     14  C   UNL     1      -6.494   0.802 133.016  0.00  0.00    +0.000 A 
ATOM     15 CL   UNL     1      -8.018   1.605 132.789  0.00  0.00    +0.000 Cl
ATOM     16  C   UNL     1      -6.464  -0.600 133.208  0.00  0.00    +0.000 A 
ATOM     17  C   UNL     1      -5.229  -1.254 133.174  0.00  0.00    +0.000 A 
ATOM     18  C   UNL     1      -4.019  -0.539 133.095  0.00  0.00    +0.000 A 
ATOM     19  C   UNL     1      -4.056   0.869 133.012  0.00  0.00    +0.000 A 
ATOM     20 CL   UNL     1      -2.634   1.877 133.238  0.00  0.00    +0.000 Cl
BRANCH  16  21
ATOM     21  O   UNL     1      -7.655  -1.254 133.441  0.00  0.00    +0.000 OA
ATOM     22  C   UNL     1      -7.593  -2.573 133.998  0.00  0.00    +0.000 C 
ENDBRANCH  16  21
BRANCH  18  23
ATOM     23  O   UNL     1      -2.931  -1.376 133.173  0.00  0.00    +0.000 OA
ATOM     24  C   UNL     1      -2.414  -1.674 134.460  0.00  0.00    +0.000 C 
ENDBRANCH  18  23
ENDBRANCH  11  13
BRANCH   1  25
ATOM     25  N   UNL     1      -3.429   4.599 126.880  0.00  0.00    +0.000 N 
ATOM     26  H   UNL     1      -2.946   5.118 126.156  0.00  0.00    +0.000 HD
BRANCH  25  30
ATOM     27  C   UNL     1      -6.079   1.742 125.159  0.00  0.00    +0.000 A 
ATOM     28  C   UNL     1      -6.108   3.090 124.777  0.00  0.00    +0.000 A 
ATOM     29  C   UNL     1      -5.215   4.021 125.323  0.00  0.00    +0.000 A 
ATOM     30  C   UNL     1      -4.327   3.641 126.334  0.00  0.00    +0.000 A 
ATOM     31  C   UNL     1      -4.309   2.287 126.704  0.00  0.00    +0.000 A 
ATOM     32  C   UNL     1      -5.172   1.355 126.133  0.00  0.00    +0.000 A 
BRANCH  27  36
ATOM     33  N   UNL     1      -9.409  -0.605 124.151  0.00  0.00    +0.000 NA
ATOM     34  C   UNL     1      -8.589  -0.802 125.366  0.00  0.00    +0.000 C 
ATOM     35  C   UNL     1      -7.086  -0.443 125.238  0.00  0.00    +0.000 C 
ATOM     36  N   UNL     1      -6.873   0.820 124.515  0.00  0.00    +0.000 N 
ATOM     37  C   UNL     1      -7.789   1.214 123.435  0.00  0.00    +0.000 C 
ATOM     38  C   UNL     1      -9.243   0.797 123.710  0.00  0.00    +0.000 C 
BRANCH  33  40
ATOM     39  C   UNL     1      -9.315  -3.077 123.387  0.00  0.00    +0.000 C 
ATOM     40  C   UNL     1      -9.144  -1.589 123.085  0.00  0.00    +0.000 C 
ENDBRANCH  33  40
ENDBRANCH  27  36
ENDBRANCH  25  30
ENDBRANCH   1  25
TORSDOF 7
ENDMDL
