MODEL 1
REMARK VINA RESULT:      -8.7      0.000      0.000
REMARK  Name = Ingenol mebutate
REMARK  13 active torsions:
REMARK  status: ('A' for Active; 'I' for Inactive)
REMARK    1  A    between atoms: C_4  and  C_5
REMARK    2  A    between atoms: C_8  and  C_9
REMARK    3  A    between atoms: C_10  and  O_11
REMARK    4  A    between atoms: O_11  and  C_12
REMARK    5  A    between atoms: C_12  and  C_14
REMARK    6  A    between atoms: C_14  and  C_15
REMARK    7  A    between atoms: C_16  and  C_17
REMARK    8  A    between atoms: C_18  and  O_19
REMARK    9  A    between atoms: C_20  and  O_21
REMARK   10  A    between atoms: C_22  and  C_23
REMARK   11  A    between atoms: C_23  and  O_24
REMARK   12  A    between atoms: C_32  and  C_33
REMARK   13  A    between atoms: C_32  and  C_34
REMARK                            x       y       z     vdW  Elec       q    Type
REMARK                         _______ _______ _______ _____ _____    ______ ____
ROOT
ATOM      1  C   UNL     1      -9.344   3.104 132.759  0.00  0.00    +0.000 C 
ATOM      2  C   UNL     1      -8.551   3.701 133.987  0.00  0.00    +0.000 C 
ATOM      3  C   UNL     1      -7.626   5.065 133.920  0.00  0.00    +0.000 C 
ATOM      4  C   UNL     1      -6.454   4.812 134.876  0.00  0.00    +0.000 C 
ATOM      5  C   UNL     1      -7.049   5.777 132.658  0.00  0.00    +0.000 C 
ATOM      6  C   UNL     1      -5.705   6.254 132.663  0.00  0.00    +0.000 C 
ATOM      7  C   UNL     1      -4.887   5.456 132.049  0.00  0.00    +0.000 C 
ATOM      8  C   UNL     1      -3.536   5.740 132.363  0.00  0.00    +0.000 C 
ATOM      9  C   UNL     1      -5.605   4.405 131.357  0.00  0.00    +0.000 C 
ATOM     10  C   UNL     1      -7.447   4.731 131.833  0.00  0.00    +0.000 C 
ATOM     11  C   UNL     1      -9.115   6.177 131.941  0.00  0.00    +0.000 C 
ATOM     12  C   UNL     1     -10.022   6.596 130.390  0.00  0.00    +0.000 C 
ATOM     13  C   UNL     1      -9.748   5.588 129.589  0.00  0.00    +0.000 C 
ATOM     14  C   UNL     1      -8.799   4.781 130.292  0.00  0.00    +0.000 C 
ATOM     15  C   UNL     1      -7.398   5.982 130.979  0.00  0.00    +0.000 C 
ATOM     16  O   UNL     1      -7.120   7.120 130.577  0.00  0.00    +0.000 OA
ATOM     17  C   UNL     1      -9.700   3.780 131.440  0.00  0.00    +0.000 C 
ATOM     18  C   UNL     1      -8.931   2.257 131.441  0.00  0.00    +0.000 C 
ATOM     19  C   UNL     1      -7.642   2.082 130.417  0.00  0.00    +0.000 C 
ATOM     20  C   UNL     1      -9.036   0.775 131.672  0.00  0.00    +0.000 C 
ENDROOT
BRANCH  10  21
ATOM     21  O   UNL     1      -7.156   3.390 132.468  0.00  0.00    +0.000 OA
ATOM     22  H   UNL     1      -6.499   3.308 133.189  0.00  0.00    +0.000 HD
ENDBRANCH  10  21
BRANCH  11  23
ATOM     23  O   UNL     1     -10.116   6.362 132.998  0.00  0.00    +0.000 OA
ATOM     24  H   UNL     1     -10.117   5.597 133.637  0.00  0.00    +0.000 HD
ENDBRANCH  11  23
BRANCH   9  25
ATOM     25  O   UNL     1      -5.109   3.865 130.052  0.00  0.00    +0.000 OA
BRANCH  25  26
ATOM     26  C   UNL     1      -4.771   4.336 128.786  0.00  0.00    +0.000 C 
ATOM     27  O   UNL     1      -5.707   4.703 128.070  0.00  0.00    +0.000 OA
BRANCH  26  28
ATOM     28  C   UNL     1      -3.347   4.543 128.279  0.00  0.00    +0.000 C 
ATOM     29  C   UNL     1      -2.564   3.536 127.565  0.00  0.00    +0.000 C 
ATOM     30  C   UNL     1      -2.554   5.603 128.510  0.00  0.00    +0.000 C 
ATOM     31  C   UNL     1      -3.021   6.952 128.798  0.00  0.00    +0.000 C 
ENDBRANCH  26  28
ENDBRANCH  25  26
ENDBRANCH   9  25
BRANCH  12  32
ATOM     32  C   UNL     1     -10.846   7.767 129.647  0.00  0.00    +0.000 C 
BRANCH  32  33
ATOM     33  O   UNL     1     -10.032   8.357 128.558  0.00  0.00    +0.000 OA
ATOM     34  H   UNL     1      -9.512   9.097 128.921  0.00  0.00    +0.000 HD
ENDBRANCH  32  33
ENDBRANCH  12  32
TORSDOF 7
ENDMDL
MODEL 2
REMARK VINA RESULT:      -8.4      1.418      1.914
REMARK  Name = Ingenol mebutate
REMARK  13 active torsions:
REMARK  status: ('A' for Active; 'I' for Inactive)
REMARK    1  A    between atoms: C_4  and  C_5
REMARK    2  A    between atoms: C_8  and  C_9
REMARK    3  A    between atoms: C_10  and  O_11
REMARK    4  A    between atoms: O_11  and  C_12
REMARK    5  A    between atoms: C_12  and  C_14
REMARK    6  A    between atoms: C_14  and  C_15
REMARK    7  A    between atoms: C_16  and  C_17
REMARK    8  A    between atoms: C_18  and  O_19
REMARK    9  A    between atoms: C_20  and  O_21
REMARK   10  A    between atoms: C_22  and  C_23
REMARK   11  A    between atoms: C_23  and  O_24
REMARK   12  A    between atoms: C_32  and  C_33
REMARK   13  A    between atoms: C_32  and  C_34
REMARK                            x       y       z     vdW  Elec       q    Type
REMARK                         _______ _______ _______ _____ _____    ______ ____
ROOT
ATOM      1  C   UNL     1      -8.853   3.122 133.077  0.00  0.00    +0.000 C 
ATOM      2  C   UNL     1      -7.814   4.016 133.861  0.00  0.00    +0.000 C 
ATOM      3  C   UNL     1      -7.286   5.492 133.348  0.00  0.00    +0.000 C 
ATOM      4  C   UNL     1      -5.822   5.581 133.797  0.00  0.00    +0.000 C 
ATOM      5  C   UNL     1      -7.368   6.099 131.915  0.00  0.00    +0.000 C 
ATOM      6  C   UNL     1      -6.247   6.793 131.370  0.00  0.00    +0.000 C 
ATOM      7  C   UNL     1      -5.557   6.063 130.548  0.00  0.00    +0.000 C 
ATOM      8  C   UNL     1      -4.277   6.613 130.298  0.00  0.00    +0.000 C 
ATOM      9  C   UNL     1      -6.239   4.817 130.260  0.00  0.00    +0.000 C 
ATOM     10  C   UNL     1      -7.808   4.893 131.381  0.00  0.00    +0.000 C 
ATOM     11  C   UNL     1      -9.588   6.038 132.018  0.00  0.00    +0.000 C 
ATOM     12  C   UNL     1     -11.061   6.069 130.908  0.00  0.00    +0.000 C 
ATOM     13  C   UNL     1     -10.890   5.015 130.136  0.00  0.00    +0.000 C 
ATOM     14  C   UNL     1      -9.604   4.490 130.477  0.00  0.00    +0.000 C 
ATOM     15  C   UNL     1      -8.336   5.997 130.488  0.00  0.00    +0.000 C 
ATOM     16  O   UNL     1      -8.468   7.096 129.930  0.00  0.00    +0.000 OA
ATOM     17  C   UNL     1      -9.795   3.529 131.951  0.00  0.00    +0.000 C 
ATOM     18  C   UNL     1      -8.775   2.175 131.765  0.00  0.00    +0.000 C 
ATOM     19  C   UNL     1      -7.939   2.073 130.340  0.00  0.00    +0.000 C 
ATOM     20  C   UNL     1      -8.475   0.745 132.123  0.00  0.00    +0.000 C 
ENDROOT
BRANCH  10  21
ATOM     21  O   UNL     1      -7.031   3.727 131.949  0.00  0.00    +0.000 OA
ATOM     22  H   UNL     1      -6.389   3.235 131.397  0.00  0.00    +0.000 HD
ENDBRANCH  10  21
BRANCH  11  23
ATOM     23  O   UNL     1     -10.153   6.203 133.362  0.00  0.00    +0.000 OA
ATOM     24  H   UNL     1      -9.476   6.015 134.068  0.00  0.00    +0.000 HD
ENDBRANCH  11  23
BRANCH   9  25
ATOM     25  O   UNL     1      -6.147   4.185 128.907  0.00  0.00    +0.000 OA
BRANCH  25  26
ATOM     26  C   UNL     1      -5.395   4.312 127.741  0.00  0.00    +0.000 C 
ATOM     27  O   UNL     1      -5.782   5.158 126.930  0.00  0.00    +0.000 OA
BRANCH  26  28
ATOM     28  C   UNL     1      -4.084   3.585 127.459  0.00  0.00    +0.000 C 
ATOM     29  C   UNL     1      -2.770   4.035 127.912  0.00  0.00    +0.000 C 
ATOM     30  C   UNL     1      -3.909   2.516 126.663  0.00  0.00    +0.000 C 
ATOM     31  C   UNL     1      -4.931   1.526 126.353  0.00  0.00    +0.000 C 
ENDBRANCH  26  28
ENDBRANCH  25  26
ENDBRANCH   9  25
BRANCH  12  32
ATOM     32  C   UNL     1     -12.326   6.964 130.457  0.00  0.00    +0.000 C 
BRANCH  32  33
ATOM     33  O   UNL     1     -13.245   7.167 131.602  0.00  0.00    +0.000 OA
ATOM     34  H   UNL     1     -12.818   7.760 132.246  0.00  0.00    +0.000 HD
ENDBRANCH  32  33
ENDBRANCH  12  32
TORSDOF 7
ENDMDL
MODEL 3
REMARK VINA RESULT:      -7.6      5.093      7.915
REMARK  Name = Ingenol mebutate
REMARK  13 active torsions:
REMARK  status: ('A' for Active; 'I' for Inactive)
REMARK    1  A    between atoms: C_4  and  C_5
REMARK    2  A    between atoms: C_8  and  C_9
REMARK    3  A    between atoms: C_10  and  O_11
REMARK    4  A    between atoms: O_11  and  C_12
REMARK    5  A    between atoms: C_12  and  C_14
REMARK    6  A    between atoms: C_14  and  C_15
REMARK    7  A    between atoms: C_16  and  C_17
REMARK    8  A    between atoms: C_18  and  O_19
REMARK    9  A    between atoms: C_20  and  O_21
REMARK   10  A    between atoms: C_22  and  C_23
REMARK   11  A    between atoms: C_23  and  O_24
REMARK   12  A    between atoms: C_32  and  C_33
REMARK   13  A    between atoms: C_32  and  C_34
REMARK                            x       y       z     vdW  Elec       q    Type
REMARK                         _______ _______ _______ _____ _____    ______ ____
ROOT
ATOM      1  C   UNL     1      -5.208   4.433 125.910  0.00  0.00    +0.000 C 
ATOM      2  C   UNL     1      -6.047   4.547 124.577  0.00  0.00    +0.000 C 
ATOM      3  C   UNL     1      -7.487   3.787 124.318  0.00  0.00    +0.000 C 
ATOM      4  C   UNL     1      -7.497   3.424 122.829  0.00  0.00    +0.000 C 
ATOM      5  C   UNL     1      -8.089   2.576 125.094  0.00  0.00    +0.000 C 
ATOM      6  C   UNL     1      -8.715   1.512 124.378  0.00  0.00    +0.000 C 
ATOM      7  C   UNL     1      -7.942   0.479 124.238  0.00  0.00    +0.000 C 
ATOM      8  C   UNL     1      -8.417  -0.407 123.242  0.00  0.00    +0.000 C 
ATOM      9  C   UNL     1      -6.735   0.621 125.028  0.00  0.00    +0.000 C 
ATOM     10  C   UNL     1      -6.906   2.382 125.799  0.00  0.00    +0.000 C 
ATOM     11  C   UNL     1      -8.154   3.798 126.950  0.00  0.00    +0.000 C 
ATOM     12  C   UNL     1      -8.261   3.593 128.780  0.00  0.00    +0.000 C 
ATOM     13  C   UNL     1      -7.195   2.878 129.075  0.00  0.00    +0.000 C 
ATOM     14  C   UNL     1      -6.600   2.533 127.821  0.00  0.00    +0.000 C 
ATOM     15  C   UNL     1      -8.033   1.845 126.658  0.00  0.00    +0.000 C 
ATOM     16  O   UNL     1      -9.134   1.396 127.006  0.00  0.00    +0.000 OA
ATOM     17  C   UNL     1      -5.661   3.931 127.276  0.00  0.00    +0.000 C 
ATOM     18  C   UNL     1      -4.249   3.298 126.557  0.00  0.00    +0.000 C 
ATOM     19  C   UNL     1      -4.092   1.651 126.571  0.00  0.00    +0.000 C 
ATOM     20  C   UNL     1      -2.808   3.502 126.181  0.00  0.00    +0.000 C 
ENDROOT
BRANCH  10  21
ATOM     21  O   UNL     1      -5.702   2.515 124.894  0.00  0.00    +0.000 OA
ATOM     22  H   UNL     1      -5.732   3.083 124.098  0.00  0.00    +0.000 HD
ENDBRANCH  10  21
BRANCH  11  23
ATOM     23  O   UNL     1      -8.359   5.236 126.741  0.00  0.00    +0.000 OA
ATOM     24  H   UNL     1      -8.805   5.658 127.526  0.00  0.00    +0.000 HD
ENDBRANCH  11  23
BRANCH   9  25
ATOM     25  O   UNL     1      -6.090  -0.567 125.668  0.00  0.00    +0.000 OA
BRANCH  25  26
ATOM     26  C   UNL     1      -6.418  -1.876 126.013  0.00  0.00    +0.000 C 
ATOM     27  O   UNL     1      -6.493  -2.122 127.221  0.00  0.00    +0.000 OA
BRANCH  26  28
ATOM     28  C   UNL     1      -6.804  -2.973 125.026  0.00  0.00    +0.000 C 
ATOM     29  C   UNL     1      -8.092  -3.663 125.014  0.00  0.00    +0.000 C 
ATOM     30  C   UNL     1      -6.006  -3.560 124.118  0.00  0.00    +0.000 C 
ATOM     31  C   UNL     1      -4.831  -2.947 123.515  0.00  0.00    +0.000 C 
ENDBRANCH  26  28
ENDBRANCH  25  26
ENDBRANCH   9  25
BRANCH  12  32
ATOM     32  C   UNL     1      -9.224   3.819 130.055  0.00  0.00    +0.000 C 
BRANCH  32  33
ATOM     33  O   UNL     1     -10.348   4.716 129.697  0.00  0.00    +0.000 OA
ATOM     34  H   UNL     1     -11.152   4.179 129.580  0.00  0.00    +0.000 HD
ENDBRANCH  32  33
ENDBRANCH  12  32
TORSDOF 7
ENDMDL
MODEL 4
REMARK VINA RESULT:      -7.6      4.417      7.060
REMARK  Name = Ingenol mebutate
REMARK  13 active torsions:
REMARK  status: ('A' for Active; 'I' for Inactive)
REMARK    1  A    between atoms: C_4  and  C_5
REMARK    2  A    between atoms: C_8  and  C_9
REMARK    3  A    between atoms: C_10  and  O_11
REMARK    4  A    between atoms: O_11  and  C_12
REMARK    5  A    between atoms: C_12  and  C_14
REMARK    6  A    between atoms: C_14  and  C_15
REMARK    7  A    between atoms: C_16  and  C_17
REMARK    8  A    between atoms: C_18  and  O_19
REMARK    9  A    between atoms: C_20  and  O_21
REMARK   10  A    between atoms: C_22  and  C_23
REMARK   11  A    between atoms: C_23  and  O_24
REMARK   12  A    between atoms: C_32  and  C_33
REMARK   13  A    between atoms: C_32  and  C_34
REMARK                            x       y       z     vdW  Elec       q    Type
REMARK                         _______ _______ _______ _____ _____    ______ ____
ROOT
ATOM      1  C   UNL     1      -4.541   0.510 130.163  0.00  0.00    +0.000 C 
ATOM      2  C   UNL     1      -4.081   1.777 129.340  0.00  0.00    +0.000 C 
ATOM      3  C   UNL     1      -5.099   2.736 128.466  0.00  0.00    +0.000 C 
ATOM      4  C   UNL     1      -4.287   3.191 127.247  0.00  0.00    +0.000 C 
ATOM      5  C   UNL     1      -6.539   2.409 127.967  0.00  0.00    +0.000 C 
ATOM      6  C   UNL     1      -6.930   2.761 126.641  0.00  0.00    +0.000 C 
ATOM      7  C   UNL     1      -6.889   1.755 125.822  0.00  0.00    +0.000 C 
ATOM      8  C   UNL     1      -6.922   2.173 124.469  0.00  0.00    +0.000 C 
ATOM      9  C   UNL     1      -6.653   0.514 126.532  0.00  0.00    +0.000 C 
ATOM     10  C   UNL     1      -6.422   1.081 128.363  0.00  0.00    +0.000 C 
ATOM     11  C   UNL     1      -7.226   2.227 130.073  0.00  0.00    +0.000 C 
ATOM     12  C   UNL     1      -8.603   1.493 131.058  0.00  0.00    +0.000 C 
ATOM     13  C   UNL     1      -8.529   0.207 130.783  0.00  0.00    +0.000 C 
ATOM     14  C   UNL     1      -7.519   0.083 129.779  0.00  0.00    +0.000 C 
ATOM     15  C   UNL     1      -7.896   1.429 128.392  0.00  0.00    +0.000 C 
ATOM     16  O   UNL     1      -8.975   1.998 128.170  0.00  0.00    +0.000 OA
ATOM     17  C   UNL     1      -5.949   0.120 130.596  0.00  0.00    +0.000 C 
ATOM     18  C   UNL     1      -4.964  -1.005 129.776  0.00  0.00    +0.000 C 
ATOM     19  C   UNL     1      -5.671  -1.828 128.526  0.00  0.00    +0.000 C 
ATOM     20  C   UNL     1      -3.790  -1.944 129.820  0.00  0.00    +0.000 C 
ENDROOT
BRANCH  10  21
ATOM     21  O   UNL     1      -5.067   0.518 127.999  0.00  0.00    +0.000 OA
ATOM     22  H   UNL     1      -4.477   0.145 128.687  0.00  0.00    +0.000 HD
ENDBRANCH  10  21
BRANCH  11  23
ATOM     23  O   UNL     1      -6.517   3.079 131.035  0.00  0.00    +0.000 OA
ATOM     24  H   UNL     1      -6.254   3.949 130.626  0.00  0.00    +0.000 HD
ENDBRANCH  11  23
BRANCH   9  25
ATOM     25  O   UNL     1      -7.278  -0.765 126.073  0.00  0.00    +0.000 OA
BRANCH  25  26
ATOM     26  C   UNL     1      -8.549  -1.312 125.916  0.00  0.00    +0.000 C 
ATOM     27  O   UNL     1      -9.461  -0.517 125.668  0.00  0.00    +0.000 OA
BRANCH  26  28
ATOM     28  C   UNL     1      -8.867  -2.804 125.904  0.00  0.00    +0.000 C 
ATOM     29  C   UNL     1      -8.958  -3.644 127.097  0.00  0.00    +0.000 C 
ATOM     30  C   UNL     1      -8.983  -3.596 124.825  0.00  0.00    +0.000 C 
ATOM     31  C   UNL     1      -9.368  -3.147 123.494  0.00  0.00    +0.000 C 
ENDBRANCH  26  28
ENDBRANCH  25  26
ENDBRANCH   9  25
BRANCH  12  32
ATOM     32  C   UNL     1      -9.895   1.859 131.952  0.00  0.00    +0.000 C 
BRANCH  32  33
ATOM     33  O   UNL     1     -10.729   2.870 131.259  0.00  0.00    +0.000 OA
ATOM     34  H   UNL     1     -10.144   3.475 130.768  0.00  0.00    +0.000 HD
ENDBRANCH  32  33
ENDBRANCH  12  32
TORSDOF 7
ENDMDL
MODEL 5
REMARK VINA RESULT:      -7.5      4.088      7.514
REMARK  Name = Ingenol mebutate
REMARK  13 active torsions:
REMARK  status: ('A' for Active; 'I' for Inactive)
REMARK    1  A    between atoms: C_4  and  C_5
REMARK    2  A    between atoms: C_8  and  C_9
REMARK    3  A    between atoms: C_10  and  O_11
REMARK    4  A    between atoms: O_11  and  C_12
REMARK    5  A    between atoms: C_12  and  C_14
REMARK    6  A    between atoms: C_14  and  C_15
REMARK    7  A    between atoms: C_16  and  C_17
REMARK    8  A    between atoms: C_18  and  O_19
REMARK    9  A    between atoms: C_20  and  O_21
REMARK   10  A    between atoms: C_22  and  C_23
REMARK   11  A    between atoms: C_23  and  O_24
REMARK   12  A    between atoms: C_32  and  C_33
REMARK   13  A    between atoms: C_32  and  C_34
REMARK                            x       y       z     vdW  Elec       q    Type
REMARK                         _______ _______ _______ _____ _____    ______ ____
ROOT
ATOM      1  C   UNL     1      -4.941   4.248 125.824  0.00  0.00    +0.000 C 
ATOM      2  C   UNL     1      -5.725   3.859 124.510  0.00  0.00    +0.000 C 
ATOM      3  C   UNL     1      -7.175   3.072 124.492  0.00  0.00    +0.000 C 
ATOM      4  C   UNL     1      -7.137   2.174 123.250  0.00  0.00    +0.000 C 
ATOM      5  C   UNL     1      -7.837   2.250 125.638  0.00  0.00    +0.000 C 
ATOM      6  C   UNL     1      -8.463   1.001 125.349  0.00  0.00    +0.000 C 
ATOM      7  C   UNL     1      -7.713  -0.016 125.644  0.00  0.00    +0.000 C 
ATOM      8  C   UNL     1      -8.174  -1.208 125.035  0.00  0.00    +0.000 C 
ATOM      9  C   UNL     1      -6.533   0.402 126.375  0.00  0.00    +0.000 C 
ATOM     10  C   UNL     1      -6.687   2.325 126.417  0.00  0.00    +0.000 C 
ATOM     11  C   UNL     1      -7.940   4.083 126.892  0.00  0.00    +0.000 C 
ATOM     12  C   UNL     1      -8.122   4.586 128.658  0.00  0.00    +0.000 C 
ATOM     13  C   UNL     1      -7.087   4.024 129.248  0.00  0.00    +0.000 C 
ATOM     14  C   UNL     1      -6.454   3.225 128.244  0.00  0.00    +0.000 C 
ATOM     15  C   UNL     1      -7.860   2.164 127.364  0.00  0.00    +0.000 C 
ATOM     16  O   UNL     1      -8.985   1.890 127.806  0.00  0.00    +0.000 OA
ATOM     17  C   UNL     1      -5.458   4.304 127.256  0.00  0.00    +0.000 C 
ATOM     18  C   UNL     1      -4.038   3.432 126.893  0.00  0.00    +0.000 C 
ATOM     19  C   UNL     1      -3.924   1.911 127.534  0.00  0.00    +0.000 C 
ATOM     20  C   UNL     1      -2.578   3.464 126.533  0.00  0.00    +0.000 C 
ENDROOT
BRANCH  10  21
ATOM     21  O   UNL     1      -5.447   2.094 125.585  0.00  0.00    +0.000 OA
ATOM     22  H   UNL     1      -4.987   1.229 125.599  0.00  0.00    +0.000 HD
ENDBRANCH  10  21
BRANCH  11  23
ATOM     23  O   UNL     1      -8.099   5.337 126.148  0.00  0.00    +0.000 OA
ATOM     24  H   UNL     1      -7.492   5.373 125.359  0.00  0.00    +0.000 HD
ENDBRANCH  11  23
BRANCH   9  25
ATOM     25  O   UNL     1      -5.945  -0.464 127.445  0.00  0.00    +0.000 OA
BRANCH  25  26
ATOM     26  C   UNL     1      -6.262  -1.628 128.141  0.00  0.00    +0.000 C 
ATOM     27  O   UNL     1      -5.421  -2.531 128.109  0.00  0.00    +0.000 OA
BRANCH  26  28
ATOM     28  C   UNL     1      -7.490  -1.813 129.027  0.00  0.00    +0.000 C 
ATOM     29  C   UNL     1      -7.838  -0.953 130.156  0.00  0.00    +0.000 C 
ATOM     30  C   UNL     1      -8.357  -2.840 129.000  0.00  0.00    +0.000 C 
ATOM     31  C   UNL     1      -8.638  -3.669 127.836  0.00  0.00    +0.000 C 
ENDBRANCH  26  28
ENDBRANCH  25  26
ENDBRANCH   9  25
BRANCH  12  32
ATOM     32  C   UNL     1      -9.125   5.286 129.709  0.00  0.00    +0.000 C 
BRANCH  32  33
ATOM     33  O   UNL     1     -10.480   4.695 129.597  0.00  0.00    +0.000 OA
ATOM     34  H   UNL     1     -10.632   4.433 128.671  0.00  0.00    +0.000 HD
ENDBRANCH  32  33
ENDBRANCH  12  32
TORSDOF 7
ENDMDL
MODEL 6
REMARK VINA RESULT:      -7.5      1.922      5.425
REMARK  Name = Ingenol mebutate
REMARK  13 active torsions:
REMARK  status: ('A' for Active; 'I' for Inactive)
REMARK    1  A    between atoms: C_4  and  C_5
REMARK    2  A    between atoms: C_8  and  C_9
REMARK    3  A    between atoms: C_10  and  O_11
REMARK    4  A    between atoms: O_11  and  C_12
REMARK    5  A    between atoms: C_12  and  C_14
REMARK    6  A    between atoms: C_14  and  C_15
REMARK    7  A    between atoms: C_16  and  C_17
REMARK    8  A    between atoms: C_18  and  O_19
REMARK    9  A    between atoms: C_20  and  O_21
REMARK   10  A    between atoms: C_22  and  C_23
REMARK   11  A    between atoms: C_23  and  O_24
REMARK   12  A    between atoms: C_32  and  C_33
REMARK   13  A    between atoms: C_32  and  C_34
REMARK                            x       y       z     vdW  Elec       q    Type
REMARK                         _______ _______ _______ _____ _____    ______ ____
ROOT
ATOM      1  C   UNL     1      -5.819   4.614 133.719  0.00  0.00    +0.000 C 
ATOM      2  C   UNL     1      -5.556   3.124 133.265  0.00  0.00    +0.000 C 
ATOM      3  C   UNL     1      -5.492   2.630 131.693  0.00  0.00    +0.000 C 
ATOM      4  C   UNL     1      -6.087   1.217 131.683  0.00  0.00    +0.000 C 
ATOM      5  C   UNL     1      -6.029   3.367 130.429  0.00  0.00    +0.000 C 
ATOM      6  C   UNL     1      -6.732   2.638 129.424  0.00  0.00    +0.000 C 
ATOM      7  C   UNL     1      -8.019   2.773 129.514  0.00  0.00    +0.000 C 
ATOM      8  C   UNL     1      -8.708   1.787 128.768  0.00  0.00    +0.000 C 
ATOM      9  C   UNL     1      -8.369   3.791 130.485  0.00  0.00    +0.000 C 
ATOM     10  C   UNL     1      -6.663   4.331 131.207  0.00  0.00    +0.000 C 
ATOM     11  C   UNL     1      -4.608   5.036 130.800  0.00  0.00    +0.000 C 
ATOM     12  C   UNL     1      -4.355   6.810 130.357  0.00  0.00    +0.000 C 
ATOM     13  C   UNL     1      -5.444   7.400 130.807  0.00  0.00    +0.000 C 
ATOM     14  C   UNL     1      -6.290   6.346 131.275  0.00  0.00    +0.000 C 
ATOM     15  C   UNL     1      -6.351   4.969 129.868  0.00  0.00    +0.000 C 
ATOM     16  O   UNL     1      -6.083   5.109 128.666  0.00  0.00    +0.000 OA
ATOM     17  C   UNL     1      -5.727   5.888 132.889  0.00  0.00    +0.000 C 
ATOM     18  C   UNL     1      -7.130   5.562 133.802  0.00  0.00    +0.000 C 
ATOM     19  C   UNL     1      -8.577   5.771 133.028  0.00  0.00    +0.000 C 
ATOM     20  C   UNL     1      -7.785   5.495 135.155  0.00  0.00    +0.000 C 
ENDROOT
BRANCH  10  21
ATOM     21  O   UNL     1      -7.360   3.705 132.393  0.00  0.00    +0.000 OA
ATOM     22  H   UNL     1      -6.845   3.310 133.127  0.00  0.00    +0.000 HD
ENDBRANCH  10  21
BRANCH  11  23
ATOM     23  O   UNL     1      -3.349   4.649 131.446  0.00  0.00    +0.000 OA
ATOM     24  H   UNL     1      -2.584   4.692 130.809  0.00  0.00    +0.000 HD
ENDBRANCH  11  23
BRANCH   9  25
ATOM     25  O   UNL     1      -9.563   4.670 130.281  0.00  0.00    +0.000 OA
BRANCH  25  26
ATOM     26  C   UNL     1      -9.928   5.780 129.523  0.00  0.00    +0.000 C 
ATOM     27  O   UNL     1      -9.459   5.843 128.383  0.00  0.00    +0.000 OA
BRANCH  26  28
ATOM     28  C   UNL     1     -10.944   6.836 129.947  0.00  0.00    +0.000 C 
ATOM     29  C   UNL     1     -11.769   6.759 131.151  0.00  0.00    +0.000 C 
ATOM     30  C   UNL     1     -11.333   7.911 129.242  0.00  0.00    +0.000 C 
ATOM     31  C   UNL     1     -10.529   8.587 128.233  0.00  0.00    +0.000 C 
ENDBRANCH  26  28
ENDBRANCH  25  26
ENDBRANCH   9  25
BRANCH  12  32
ATOM     32  C   UNL     1      -3.412   7.814 129.517  0.00  0.00    +0.000 C 
BRANCH  32  33
ATOM     33  O   UNL     1      -4.133   9.077 129.231  0.00  0.00    +0.000 OA
ATOM     34  H   UNL     1      -4.653   8.963 128.415  0.00  0.00    +0.000 HD
ENDBRANCH  32  33
ENDBRANCH  12  32
TORSDOF 7
ENDMDL
MODEL 7
REMARK VINA RESULT:      -7.5      2.545      6.378
REMARK  Name = Ingenol mebutate
REMARK  13 active torsions:
REMARK  status: ('A' for Active; 'I' for Inactive)
REMARK    1  A    between atoms: C_4  and  C_5
REMARK    2  A    between atoms: C_8  and  C_9
REMARK    3  A    between atoms: C_10  and  O_11
REMARK    4  A    between atoms: O_11  and  C_12
REMARK    5  A    between atoms: C_12  and  C_14
REMARK    6  A    between atoms: C_14  and  C_15
REMARK    7  A    between atoms: C_16  and  C_17
REMARK    8  A    between atoms: C_18  and  O_19
REMARK    9  A    between atoms: C_20  and  O_21
REMARK   10  A    between atoms: C_22  and  C_23
REMARK   11  A    between atoms: C_23  and  O_24
REMARK   12  A    between atoms: C_32  and  C_33
REMARK   13  A    between atoms: C_32  and  C_34
REMARK                            x       y       z     vdW  Elec       q    Type
REMARK                         _______ _______ _______ _____ _____    ______ ____
ROOT
ATOM      1  C   UNL     1      -3.828   2.838 128.664  0.00  0.00    +0.000 C 
ATOM      2  C   UNL     1      -4.615   1.611 129.270  0.00  0.00    +0.000 C 
ATOM      3  C   UNL     1      -6.182   1.243 128.908  0.00  0.00    +0.000 C 
ATOM      4  C   UNL     1      -6.777   0.673 130.200  0.00  0.00    +0.000 C 
ATOM      5  C   UNL     1      -7.263   2.163 128.265  0.00  0.00    +0.000 C 
ATOM      6  C   UNL     1      -8.593   2.166 128.782  0.00  0.00    +0.000 C 
ATOM      7  C   UNL     1      -8.826   3.175 129.564  0.00  0.00    +0.000 C 
ATOM      8  C   UNL     1      -9.993   2.983 130.342  0.00  0.00    +0.000 C 
ATOM      9  C   UNL     1      -7.731   4.124 129.528  0.00  0.00    +0.000 C 
ATOM     10  C   UNL     1      -6.440   3.278 128.370  0.00  0.00    +0.000 C 
ATOM     11  C   UNL     1      -6.033   2.319 126.420  0.00  0.00    +0.000 C 
ATOM     12  C   UNL     1      -5.837   3.393 124.933  0.00  0.00    +0.000 C 
ATOM     13  C   UNL     1      -5.550   4.574 125.439  0.00  0.00    +0.000 C 
ATOM     14  C   UNL     1      -5.672   4.429 126.856  0.00  0.00    +0.000 C 
ATOM     15  C   UNL     1      -7.385   3.526 127.212  0.00  0.00    +0.000 C 
ATOM     16  O   UNL     1      -8.367   3.452 126.459  0.00  0.00    +0.000 OA
ATOM     17  C   UNL     1      -4.179   3.681 127.444  0.00  0.00    +0.000 C 
ATOM     18  C   UNL     1      -3.829   4.436 128.933  0.00  0.00    +0.000 C 
ATOM     19  C   UNL     1      -4.874   5.624 129.420  0.00  0.00    +0.000 C 
ATOM     20  C   UNL     1      -2.795   4.833 129.951  0.00  0.00    +0.000 C 
ENDROOT
BRANCH  10  21
ATOM     21  O   UNL     1      -5.735   3.316 129.707  0.00  0.00    +0.000 OA
ATOM     22  H   UNL     1      -6.204   3.617 130.513  0.00  0.00    +0.000 HD
ENDBRANCH  10  21
BRANCH  11  23
ATOM     23  O   UNL     1      -5.211   1.142 126.119  0.00  0.00    +0.000 OA
ATOM     24  H   UNL     1      -4.442   1.375 125.530  0.00  0.00    +0.000 HD
ENDBRANCH  11  23
BRANCH   9  25
ATOM     25  O   UNL     1      -7.984   5.594 129.650  0.00  0.00    +0.000 OA
BRANCH  25  26
ATOM     26  C   UNL     1      -8.485   6.496 130.585  0.00  0.00    +0.000 C 
ATOM     27  O   UNL     1      -8.639   7.658 130.198  0.00  0.00    +0.000 OA
BRANCH  26  28
ATOM     28  C   UNL     1      -8.965   6.130 131.987  0.00  0.00    +0.000 C 
ATOM     29  C   UNL     1     -10.366   6.092 132.402  0.00  0.00    +0.000 C 
ATOM     30  C   UNL     1      -8.201   5.918 133.072  0.00  0.00    +0.000 C 
ATOM     31  C   UNL     1      -6.819   5.461 133.047  0.00  0.00    +0.000 C 
ENDBRANCH  26  28
ENDBRANCH  25  26
ENDBRANCH   9  25
BRANCH  12  32
ATOM     32  C   UNL     1      -6.043   3.441 123.333  0.00  0.00    +0.000 C 
BRANCH  32  33
ATOM     33  O   UNL     1      -7.451   3.772 123.007  0.00  0.00    +0.000 OA
ATOM     34  H   UNL     1      -8.037   3.266 123.598  0.00  0.00    +0.000 HD
ENDBRANCH  32  33
ENDBRANCH  12  32
TORSDOF 7
ENDMDL
MODEL 8
REMARK VINA RESULT:      -7.4      2.195      4.502
REMARK  Name = Ingenol mebutate
REMARK  13 active torsions:
REMARK  status: ('A' for Active; 'I' for Inactive)
REMARK    1  A    between atoms: C_4  and  C_5
REMARK    2  A    between atoms: C_8  and  C_9
REMARK    3  A    between atoms: C_10  and  O_11
REMARK    4  A    between atoms: O_11  and  C_12
REMARK    5  A    between atoms: C_12  and  C_14
REMARK    6  A    between atoms: C_14  and  C_15
REMARK    7  A    between atoms: C_16  and  C_17
REMARK    8  A    between atoms: C_18  and  O_19
REMARK    9  A    between atoms: C_20  and  O_21
REMARK   10  A    between atoms: C_22  and  C_23
REMARK   11  A    between atoms: C_23  and  O_24
REMARK   12  A    between atoms: C_32  and  C_33
REMARK   13  A    between atoms: C_32  and  C_34
REMARK                            x       y       z     vdW  Elec       q    Type
REMARK                         _______ _______ _______ _____ _____    ______ ____
ROOT
ATOM      1  C   UNL     1      -9.458   5.285 132.684  0.00  0.00    +0.000 C 
ATOM      2  C   UNL     1      -9.426   3.724 132.924  0.00  0.00    +0.000 C 
ATOM      3  C   UNL     1      -8.265   2.716 132.326  0.00  0.00    +0.000 C 
ATOM      4  C   UNL     1      -8.988   1.402 132.009  0.00  0.00    +0.000 C 
ATOM      5  C   UNL     1      -7.263   2.985 131.163  0.00  0.00    +0.000 C 
ATOM      6  C   UNL     1      -7.011   1.972 130.191  0.00  0.00    +0.000 C 
ATOM      7  C   UNL     1      -7.666   2.161 129.087  0.00  0.00    +0.000 C 
ATOM      8  C   UNL     1      -7.699   0.995 128.285  0.00  0.00    +0.000 C 
ATOM      9  C   UNL     1      -8.310   3.459 129.080  0.00  0.00    +0.000 C 
ATOM     10  C   UNL     1      -7.904   4.173 130.826  0.00  0.00    +0.000 C 
ATOM     11  C   UNL     1      -6.355   4.645 132.331  0.00  0.00    +0.000 C 
ATOM     12  C   UNL     1      -5.315   6.149 132.086  0.00  0.00    +0.000 C 
ATOM     13  C   UNL     1      -6.025   6.885 131.255  0.00  0.00    +0.000 C 
ATOM     14  C   UNL     1      -7.148   6.078 130.886  0.00  0.00    +0.000 C 
ATOM     15  C   UNL     1      -6.460   4.302 130.386  0.00  0.00    +0.000 C 
ATOM     16  O   UNL     1      -5.304   4.012 130.044  0.00  0.00    +0.000 OA
ATOM     17  C   UNL     1      -8.336   6.192 132.193  0.00  0.00    +0.000 C 
ATOM     18  C   UNL     1      -9.865   6.236 131.437  0.00  0.00    +0.000 C 
ATOM     19  C   UNL     1      -9.868   6.199 129.782  0.00  0.00    +0.000 C 
ATOM     20  C   UNL     1     -11.308   6.655 131.499  0.00  0.00    +0.000 C 
ENDROOT
BRANCH  10  21
ATOM     21  O   UNL     1      -9.407   4.013 130.858  0.00  0.00    +0.000 OA
ATOM     22  H   UNL     1      -9.990   4.666 130.421  0.00  0.00    +0.000 HD
ENDBRANCH  10  21
BRANCH  11  23
ATOM     23  O   UNL     1      -6.394   4.474 133.788  0.00  0.00    +0.000 OA
ATOM     24  H   UNL     1      -7.225   4.007 134.078  0.00  0.00    +0.000 HD
ENDBRANCH  11  23
BRANCH   9  25
ATOM     25  O   UNL     1      -8.447   4.242 127.812  0.00  0.00    +0.000 OA
BRANCH  25  26
ATOM     26  C   UNL     1      -7.928   4.241 126.520  0.00  0.00    +0.000 C 
ATOM     27  O   UNL     1      -8.695   4.600 125.621  0.00  0.00    +0.000 OA
BRANCH  26  28
ATOM     28  C   UNL     1      -6.474   3.953 126.159  0.00  0.00    +0.000 C 
ATOM     29  C   UNL     1      -5.328   4.711 126.657  0.00  0.00    +0.000 C 
ATOM     30  C   UNL     1      -6.028   3.069 125.250  0.00  0.00    +0.000 C 
ATOM     31  C   UNL     1      -6.734   1.866 124.834  0.00  0.00    +0.000 C 
ENDBRANCH  26  28
ENDBRANCH  25  26
ENDBRANCH   9  25
BRANCH  12  32
ATOM     32  C   UNL     1      -3.858   6.778 132.375  0.00  0.00    +0.000 C 
BRANCH  32  33
ATOM     33  O   UNL     1      -3.527   7.798 131.350  0.00  0.00    +0.000 OA
ATOM     34  H   UNL     1      -2.952   8.472 131.754  0.00  0.00    +0.000 HD
ENDBRANCH  32  33
ENDBRANCH  12  32
TORSDOF 7
ENDMDL
MODEL 9
REMARK VINA RESULT:      -7.3      3.676      7.159
REMARK  Name = Ingenol mebutate
REMARK  13 active torsions:
REMARK  status: ('A' for Active; 'I' for Inactive)
REMARK    1  A    between atoms: C_4  and  C_5
REMARK    2  A    between atoms: C_8  and  C_9
REMARK    3  A    between atoms: C_10  and  O_11
REMARK    4  A    between atoms: O_11  and  C_12
REMARK    5  A    between atoms: C_12  and  C_14
REMARK    6  A    between atoms: C_14  and  C_15
REMARK    7  A    between atoms: C_16  and  C_17
REMARK    8  A    between atoms: C_18  and  O_19
REMARK    9  A    between atoms: C_20  and  O_21
REMARK   10  A    between atoms: C_22  and  C_23
REMARK   11  A    between atoms: C_23  and  O_24
REMARK   12  A    between atoms: C_32  and  C_33
REMARK   13  A    between atoms: C_32  and  C_34
REMARK                            x       y       z     vdW  Elec       q    Type
REMARK                         _______ _______ _______ _____ _____    ______ ____
ROOT
ATOM      1  C   UNL     1      -7.628   4.171 125.933  0.00  0.00    +0.000 C 
ATOM      2  C   UNL     1      -8.301   4.576 127.303  0.00  0.00    +0.000 C 
ATOM      3  C   UNL     1      -7.789   4.052 128.781  0.00  0.00    +0.000 C 
ATOM      4  C   UNL     1      -9.060   3.903 129.625  0.00  0.00    +0.000 C 
ATOM      5  C   UNL     1      -6.872   2.834 129.105  0.00  0.00    +0.000 C 
ATOM      6  C   UNL     1      -7.195   1.969 130.193  0.00  0.00    +0.000 C 
ATOM      7  C   UNL     1      -7.774   0.874 129.808  0.00  0.00    +0.000 C 
ATOM      8  C   UNL     1      -8.406   0.203 130.883  0.00  0.00    +0.000 C 
ATOM      9  C   UNL     1      -7.744   0.748 128.364  0.00  0.00    +0.000 C 
ATOM     10  C   UNL     1      -6.916   2.393 127.787  0.00  0.00    +0.000 C 
ATOM     11  C   UNL     1      -5.210   3.786 127.976  0.00  0.00    +0.000 C 
ATOM     12  C   UNL     1      -3.617   3.346 127.156  0.00  0.00    +0.000 C 
ATOM     13  C   UNL     1      -3.971   2.465 126.243  0.00  0.00    +0.000 C 
ATOM     14  C   UNL     1      -5.364   2.223 126.458  0.00  0.00    +0.000 C 
ATOM     15  C   UNL     1      -5.616   1.893 128.383  0.00  0.00    +0.000 C 
ATOM     16  O   UNL     1      -4.756   1.547 129.206  0.00  0.00    +0.000 OA
ATOM     17  C   UNL     1      -6.257   3.548 125.698  0.00  0.00    +0.000 C 
ATOM     18  C   UNL     1      -7.647   2.843 125.006  0.00  0.00    +0.000 C 
ATOM     19  C   UNL     1      -7.799   1.203 125.168  0.00  0.00    +0.000 C 
ATOM     20  C   UNL     1      -8.724   2.908 123.957  0.00  0.00    +0.000 C 
ENDROOT
BRANCH  10  21
ATOM     21  O   UNL     1      -8.316   2.492 127.223  0.00  0.00    +0.000 OA
ATOM     22  H   UNL     1      -8.952   1.754 127.327  0.00  0.00    +0.000 HD
ENDBRANCH  10  21
BRANCH  11  23
ATOM     23  O   UNL     1      -5.208   5.253 127.992  0.00  0.00    +0.000 OA
ATOM     24  H   UNL     1      -5.426   5.628 127.095  0.00  0.00    +0.000 HD
ENDBRANCH  11  23
BRANCH   9  25
ATOM     25  O   UNL     1      -7.604  -0.591 127.712  0.00  0.00    +0.000 OA
BRANCH  25  26
ATOM     26  C   UNL     1      -7.059  -1.841 127.994  0.00  0.00    +0.000 C 
ATOM     27  O   UNL     1      -5.867  -1.995 127.713  0.00  0.00    +0.000 OA
BRANCH  26  28
ATOM     28  C   UNL     1      -7.781  -2.968 128.726  0.00  0.00    +0.000 C 
ATOM     29  C   UNL     1      -8.795  -3.832 128.127  0.00  0.00    +0.000 C 
ATOM     30  C   UNL     1      -7.703  -3.260 130.036  0.00  0.00    +0.000 C 
ATOM     31  C   UNL     1      -6.567  -2.957 130.896  0.00  0.00    +0.000 C 
ENDBRANCH  26  28
ENDBRANCH  25  26
ENDBRANCH   9  25
BRANCH  12  32
ATOM     32  C   UNL     1      -2.016   3.516 127.261  0.00  0.00    +0.000 C 
BRANCH  32  33
ATOM     33  O   UNL     1      -1.334   2.381 126.593  0.00  0.00    +0.000 OA
ATOM     34  H   UNL     1      -1.524   1.566 127.091  0.00  0.00    +0.000 HD
ENDBRANCH  32  33
ENDBRANCH  12  32
TORSDOF 7
ENDMDL
