MODEL 1
REMARK VINA RESULT:      -5.2      0.000      0.000
REMARK  Name = Inositol
REMARK  6 active torsions:
REMARK  status: ('A' for Active; 'I' for Inactive)
REMARK    1  A    between atoms: O_1  and  C_2
REMARK    2  A    between atoms: C_3  and  O_4
REMARK    3  A    between atoms: C_5  and  O_6
REMARK    4  A    between atoms: C_7  and  O_8
REMARK    5  A    between atoms: C_9  and  O_10
REMARK    6  A    between atoms: C_11  and  O_12
REMARK                            x       y       z     vdW  Elec       q    Type
REMARK                         _______ _______ _______ _____ _____    ______ ____
ROOT
ATOM      1  C   UNL     1     -12.583   7.659 130.443  0.00  0.00    +0.000 C 
ATOM      2  C   UNL     1     -12.058   8.494 129.264  0.00  0.00    +0.000 C 
ATOM      3  C   UNL     1     -11.307   7.634 128.225  0.00  0.00    +0.000 C 
ATOM      4  C   UNL     1     -10.194   6.805 128.900  0.00  0.00    +0.000 C 
ATOM      5  C   UNL     1     -10.765   5.950 130.042  0.00  0.00    +0.000 C 
ATOM      6  C   UNL     1     -11.459   6.834 131.089  0.00  0.00    +0.000 C 
ENDROOT
BRANCH   1   7
ATOM      7  O   UNL     1     -13.180   8.533 131.406  0.00  0.00    +0.000 OA
ATOM      8  H   UNL     1     -13.841   8.002 131.890  0.00  0.00    +0.000 HD
ENDBRANCH   1   7
BRANCH   2   9
ATOM      9  O   UNL     1     -13.180   9.171 128.675  0.00  0.00    +0.000 OA
ATOM     10  H   UNL     1     -13.226   8.948 127.732  0.00  0.00    +0.000 HD
ENDBRANCH   2   9
BRANCH   3  11
ATOM     11  O   UNL     1     -10.776   8.462 127.185  0.00  0.00    +0.000 OA
ATOM     12  H   UNL     1     -10.043   7.999 126.752  0.00  0.00    +0.000 HD
ENDBRANCH   3  11
BRANCH   4  13
ATOM     13  O   UNL     1      -9.556   5.957 127.941  0.00  0.00    +0.000 OA
ATOM     14  H   UNL     1      -9.068   5.270 128.430  0.00  0.00    +0.000 HD
ENDBRANCH   4  13
BRANCH   5  15
ATOM     15  O   UNL     1     -11.683   4.964 129.521  0.00  0.00    +0.000 OA
ATOM     16  H   UNL     1     -11.260   4.091 129.456  0.00  0.00    +0.000 HD
ENDBRANCH   5  15
BRANCH   6  17
ATOM     17  O   UNL     1     -11.981   6.004 132.131  0.00  0.00    +0.000 OA
ATOM     18  H   UNL     1     -11.591   5.119 132.028  0.00  0.00    +0.000 HD
ENDBRANCH   6  17
TORSDOF 6
ENDMDL
MODEL 2
REMARK VINA RESULT:      -5.0      0.918      3.280
REMARK  Name = Inositol
REMARK  6 active torsions:
REMARK  status: ('A' for Active; 'I' for Inactive)
REMARK    1  A    between atoms: O_1  and  C_2
REMARK    2  A    between atoms: C_3  and  O_4
REMARK    3  A    between atoms: C_5  and  O_6
REMARK    4  A    between atoms: C_7  and  O_8
REMARK    5  A    between atoms: C_9  and  O_10
REMARK    6  A    between atoms: C_11  and  O_12
REMARK                            x       y       z     vdW  Elec       q    Type
REMARK                         _______ _______ _______ _____ _____    ______ ____
ROOT
ATOM      1  C   UNL     1     -10.316   6.773 128.829  0.00  0.00    +0.000 C 
ATOM      2  C   UNL     1     -11.349   7.874 128.538  0.00  0.00    +0.000 C 
ATOM      3  C   UNL     1     -12.070   8.354 129.815  0.00  0.00    +0.000 C 
ATOM      4  C   UNL     1     -12.681   7.162 130.582  0.00  0.00    +0.000 C 
ATOM      5  C   UNL     1     -11.611   6.106 130.894  0.00  0.00    +0.000 C 
ATOM      6  C   UNL     1     -10.947   5.605 129.603  0.00  0.00    +0.000 C 
ENDROOT
BRANCH   1   7
ATOM      7  O   UNL     1      -9.762   6.313 127.593  0.00  0.00    +0.000 OA
ATOM      8  H   UNL     1      -9.304   7.078 127.194  0.00  0.00    +0.000 HD
ENDBRANCH   1   7
BRANCH   2   9
ATOM      9  O   UNL     1     -10.663   8.953 127.882  0.00  0.00    +0.000 OA
ATOM     10  H   UNL     1      -9.902   9.220 128.423  0.00  0.00    +0.000 HD
ENDBRANCH   2   9
BRANCH   3  11
ATOM     11  O   UNL     1     -13.069   9.325 129.487  0.00  0.00    +0.000 OA
ATOM     12  H   UNL     1     -13.333   9.795 130.292  0.00  0.00    +0.000 HD
ENDBRANCH   3  11
BRANCH   4  13
ATOM     13  O   UNL     1     -13.280   7.611 131.800  0.00  0.00    +0.000 OA
ATOM     14  H   UNL     1     -12.627   7.492 132.514  0.00  0.00    +0.000 HD
ENDBRANCH   4  13
BRANCH   5  15
ATOM     15  O   UNL     1     -10.621   6.645 131.798  0.00  0.00    +0.000 OA
ATOM     16  H   UNL     1     -10.963   7.423 132.270  0.00  0.00    +0.000 HD
ENDBRANCH   5  15
BRANCH   6  17
ATOM     17  O   UNL     1      -9.954   4.629 129.935  0.00  0.00    +0.000 OA
ATOM     18  H   UNL     1     -10.115   4.341 130.850  0.00  0.00    +0.000 HD
ENDBRANCH   6  17
TORSDOF 6
ENDMDL
MODEL 3
REMARK VINA RESULT:      -5.0      0.947      3.636
REMARK  Name = Inositol
REMARK  6 active torsions:
REMARK  status: ('A' for Active; 'I' for Inactive)
REMARK    1  A    between atoms: O_1  and  C_2
REMARK    2  A    between atoms: C_3  and  O_4
REMARK    3  A    between atoms: C_5  and  O_6
REMARK    4  A    between atoms: C_7  and  O_8
REMARK    5  A    between atoms: C_9  and  O_10
REMARK    6  A    between atoms: C_11  and  O_12
REMARK                            x       y       z     vdW  Elec       q    Type
REMARK                         _______ _______ _______ _____ _____    ______ ____
ROOT
ATOM      1  C   UNL     1     -10.696   5.876 129.927  0.00  0.00    +0.000 C 
ATOM      2  C   UNL     1     -11.432   6.797 130.914  0.00  0.00    +0.000 C 
ATOM      3  C   UNL     1     -12.443   7.725 130.208  0.00  0.00    +0.000 C 
ATOM      4  C   UNL     1     -11.762   8.510 129.067  0.00  0.00    +0.000 C 
ATOM      5  C   UNL     1     -11.078   7.555 128.077  0.00  0.00    +0.000 C 
ATOM      6  C   UNL     1     -10.039   6.681 128.795  0.00  0.00    +0.000 C 
ENDROOT
BRANCH   1   7
ATOM      7  O   UNL     1      -9.713   5.118 130.639  0.00  0.00    +0.000 OA
ATOM      8  H   UNL     1      -8.964   4.991 130.026  0.00  0.00    +0.000 HD
ENDBRANCH   1   7
BRANCH   2   9
ATOM      9  O   UNL     1     -12.075   5.963 131.891  0.00  0.00    +0.000 OA
ATOM     10  H   UNL     1     -12.535   5.239 131.437  0.00  0.00    +0.000 HD
ENDBRANCH   2   9
BRANCH   3  11
ATOM     11  O   UNL     1     -13.050   8.610 131.155  0.00  0.00    +0.000 OA
ATOM     12  H   UNL     1     -13.872   8.962 130.781  0.00  0.00    +0.000 HD
ENDBRANCH   3  11
BRANCH   4  13
ATOM     13  O   UNL     1     -12.724   9.308 128.372  0.00  0.00    +0.000 OA
ATOM     14  H   UNL     1     -12.498  10.244 128.523  0.00  0.00    +0.000 HD
ENDBRANCH   4  13
BRANCH   5  15
ATOM     15  O   UNL     1     -12.061   6.731 127.412  0.00  0.00    +0.000 OA
ATOM     16  H   UNL     1     -12.401   6.041 128.006  0.00  0.00    +0.000 HD
ENDBRANCH   5  15
BRANCH   6  17
ATOM     17  O   UNL     1      -9.428   5.802 127.844  0.00  0.00    +0.000 OA
ATOM     18  H   UNL     1      -8.660   5.388 128.274  0.00  0.00    +0.000 HD
ENDBRANCH   6  17
TORSDOF 6
ENDMDL
MODEL 4
REMARK VINA RESULT:      -5.0      0.947      3.706
REMARK  Name = Inositol
REMARK  6 active torsions:
REMARK  status: ('A' for Active; 'I' for Inactive)
REMARK    1  A    between atoms: O_1  and  C_2
REMARK    2  A    between atoms: C_3  and  O_4
REMARK    3  A    between atoms: C_5  and  O_6
REMARK    4  A    between atoms: C_7  and  O_8
REMARK    5  A    between atoms: C_9  and  O_10
REMARK    6  A    between atoms: C_11  and  O_12
REMARK                            x       y       z     vdW  Elec       q    Type
REMARK                         _______ _______ _______ _____ _____    ______ ____
ROOT
ATOM      1  C   UNL     1     -11.267   7.847 128.097  0.00  0.00    +0.000 C 
ATOM      2  C   UNL     1     -10.222   6.907 128.720  0.00  0.00    +0.000 C 
ATOM      3  C   UNL     1     -10.814   6.041 129.851  0.00  0.00    +0.000 C 
ATOM      4  C   UNL     1     -11.518   6.920 130.906  0.00  0.00    +0.000 C 
ATOM      5  C   UNL     1     -12.585   7.811 130.252  0.00  0.00    +0.000 C 
ATOM      6  C   UNL     1     -11.960   8.702 129.168  0.00  0.00    +0.000 C 
ENDROOT
BRANCH   1   7
ATOM      7  O   UNL     1     -10.625   8.682 127.128  0.00  0.00    +0.000 OA
ATOM      8  H   UNL     1     -11.338   9.129 126.632  0.00  0.00    +0.000 HD
ENDBRANCH   1   7
BRANCH   2   9
ATOM      9  O   UNL     1      -9.678   6.098 127.665  0.00  0.00    +0.000 OA
ATOM     10  H   UNL     1      -9.334   5.273 128.043  0.00  0.00    +0.000 HD
ENDBRANCH   2   9
BRANCH   3  11
ATOM     11  O   UNL     1      -9.791   5.236 130.448  0.00  0.00    +0.000 OA
ATOM     12  H   UNL     1     -10.189   4.426 130.802  0.00  0.00    +0.000 HD
ENDBRANCH   3  11
BRANCH   4  13
ATOM     13  O   UNL     1     -12.126   6.102 131.908  0.00  0.00    +0.000 OA
ATOM     14  H   UNL     1     -11.413   5.699 132.437  0.00  0.00    +0.000 HD
ENDBRANCH   4  13
BRANCH   5  15
ATOM     15  O   UNL     1     -13.643   7.000 129.695  0.00  0.00    +0.000 OA
ATOM     16  H   UNL     1     -13.615   7.006 128.723  0.00  0.00    +0.000 HD
ENDBRANCH   5  15
BRANCH   6  17
ATOM     17  O   UNL     1     -12.984   9.511 128.580  0.00  0.00    +0.000 OA
ATOM     18  H   UNL     1     -13.101  10.296 129.141  0.00  0.00    +0.000 HD
ENDBRANCH   6  17
TORSDOF 6
ENDMDL
MODEL 5
REMARK VINA RESULT:      -4.9      1.472      2.850
REMARK  Name = Inositol
REMARK  6 active torsions:
REMARK  status: ('A' for Active; 'I' for Inactive)
REMARK    1  A    between atoms: O_1  and  C_2
REMARK    2  A    between atoms: C_3  and  O_4
REMARK    3  A    between atoms: C_5  and  O_6
REMARK    4  A    between atoms: C_7  and  O_8
REMARK    5  A    between atoms: C_9  and  O_10
REMARK    6  A    between atoms: C_11  and  O_12
REMARK                            x       y       z     vdW  Elec       q    Type
REMARK                         _______ _______ _______ _____ _____    ______ ____
ROOT
ATOM      1  C   UNL     1     -11.007   7.135 130.865  0.00  0.00    +0.000 C 
ATOM      2  C   UNL     1     -10.148   6.631 129.694  0.00  0.00    +0.000 C 
ATOM      3  C   UNL     1     -10.669   7.128 128.329  0.00  0.00    +0.000 C 
ATOM      4  C   UNL     1     -12.163   6.783 128.153  0.00  0.00    +0.000 C 
ATOM      5  C   UNL     1     -12.994   7.343 129.318  0.00  0.00    +0.000 C 
ATOM      6  C   UNL     1     -12.490   6.791 130.660  0.00  0.00    +0.000 C 
ENDROOT
BRANCH   1   7
ATOM      7  O   UNL     1     -10.523   6.560 132.082  0.00  0.00    +0.000 OA
ATOM      8  H   UNL     1     -11.196   5.914 132.371  0.00  0.00    +0.000 HD
ENDBRANCH   1   7
BRANCH   2   9
ATOM      9  O   UNL     1      -8.796   7.058 129.930  0.00  0.00    +0.000 OA
ATOM     10  H   UNL     1      -8.201   6.298 129.827  0.00  0.00    +0.000 HD
ENDBRANCH   2   9
BRANCH   3  11
ATOM     11  O   UNL     1      -9.883   6.577 127.267  0.00  0.00    +0.000 OA
ATOM     12  H   UNL     1      -9.114   6.122 127.643  0.00  0.00    +0.000 HD
ENDBRANCH   3  11
BRANCH   4  13
ATOM     13  O   UNL     1     -12.652   7.314 126.919  0.00  0.00    +0.000 OA
ATOM     14  H   UNL     1     -12.328   8.229 126.839  0.00  0.00    +0.000 HD
ENDBRANCH   4  13
BRANCH   5  15
ATOM     15  O   UNL     1     -12.955   8.787 129.316  0.00  0.00    +0.000 OA
ATOM     16  H   UNL     1     -12.701   9.132 130.188  0.00  0.00    +0.000 HD
ENDBRANCH   5  15
BRANCH   6  17
ATOM     17  O   UNL     1     -13.284   7.338 131.719  0.00  0.00    +0.000 OA
ATOM     18  H   UNL     1     -13.019   8.267 131.838  0.00  0.00    +0.000 HD
ENDBRANCH   6  17
TORSDOF 6
ENDMDL
MODEL 6
REMARK VINA RESULT:      -4.8      1.413      3.489
REMARK  Name = Inositol
REMARK  6 active torsions:
REMARK  status: ('A' for Active; 'I' for Inactive)
REMARK    1  A    between atoms: O_1  and  C_2
REMARK    2  A    between atoms: C_3  and  O_4
REMARK    3  A    between atoms: C_5  and  O_6
REMARK    4  A    between atoms: C_7  and  O_8
REMARK    5  A    between atoms: C_9  and  O_10
REMARK    6  A    between atoms: C_11  and  O_12
REMARK                            x       y       z     vdW  Elec       q    Type
REMARK                         _______ _______ _______ _____ _____    ______ ____
ROOT
ATOM      1  C   UNL     1     -11.219   6.920 128.571  0.00  0.00    +0.000 C 
ATOM      2  C   UNL     1     -12.450   7.070 129.480  0.00  0.00    +0.000 C 
ATOM      3  C   UNL     1     -12.064   7.289 130.958  0.00  0.00    +0.000 C 
ATOM      4  C   UNL     1     -11.105   6.182 131.444  0.00  0.00    +0.000 C 
ATOM      5  C   UNL     1      -9.867   6.093 130.539  0.00  0.00    +0.000 C 
ATOM      6  C   UNL     1     -10.275   5.822 129.084  0.00  0.00    +0.000 C 
ENDROOT
BRANCH   1   7
ATOM      7  O   UNL     1     -11.654   6.626 127.240  0.00  0.00    +0.000 OA
ATOM      8  H   UNL     1     -11.091   7.155 126.642  0.00  0.00    +0.000 HD
ENDBRANCH   1   7
BRANCH   2   9
ATOM      9  O   UNL     1     -13.236   8.161 128.973  0.00  0.00    +0.000 OA
ATOM     10  H   UNL     1     -13.021   8.965 129.473  0.00  0.00    +0.000 HD
ENDBRANCH   2   9
BRANCH   3  11
ATOM     11  O   UNL     1     -13.238   7.351 131.774  0.00  0.00    +0.000 OA
ATOM     12  H   UNL     1     -14.020   7.401 131.204  0.00  0.00    +0.000 HD
ENDBRANCH   3  11
BRANCH   4  13
ATOM     13  O   UNL     1     -10.696   6.437 132.791  0.00  0.00    +0.000 OA
ATOM     14  H   UNL     1      -9.727   6.335 132.831  0.00  0.00    +0.000 HD
ENDBRANCH   4  13
BRANCH   5  15
ATOM     15  O   UNL     1      -9.090   7.308 130.630  0.00  0.00    +0.000 OA
ATOM     16  H   UNL     1      -9.662   8.094 130.596  0.00  0.00    +0.000 HD
ENDBRANCH   5  15
BRANCH   6  17
ATOM     17  O   UNL     1      -9.098   5.752 128.272  0.00  0.00    +0.000 OA
ATOM     18  H   UNL     1      -9.040   4.850 127.912  0.00  0.00    +0.000 HD
ENDBRANCH   6  17
TORSDOF 6
ENDMDL
MODEL 7
REMARK VINA RESULT:      -4.8      1.208      2.586
REMARK  Name = Inositol
REMARK  6 active torsions:
REMARK  status: ('A' for Active; 'I' for Inactive)
REMARK    1  A    between atoms: O_1  and  C_2
REMARK    2  A    between atoms: C_3  and  O_4
REMARK    3  A    between atoms: C_5  and  O_6
REMARK    4  A    between atoms: C_7  and  O_8
REMARK    5  A    between atoms: C_9  and  O_10
REMARK    6  A    between atoms: C_11  and  O_12
REMARK                            x       y       z     vdW  Elec       q    Type
REMARK                         _______ _______ _______ _____ _____    ______ ____
ROOT
ATOM      1  C   UNL     1     -11.215   6.365 131.192  0.00  0.00    +0.000 C 
ATOM      2  C   UNL     1     -12.161   7.567 131.040  0.00  0.00    +0.000 C 
ATOM      3  C   UNL     1     -12.234   8.075 129.584  0.00  0.00    +0.000 C 
ATOM      4  C   UNL     1     -10.822   8.364 129.032  0.00  0.00    +0.000 C 
ATOM      5  C   UNL     1      -9.921   7.126 129.160  0.00  0.00    +0.000 C 
ATOM      6  C   UNL     1      -9.821   6.674 130.624  0.00  0.00    +0.000 C 
ENDROOT
BRANCH   1   7
ATOM      7  O   UNL     1     -11.125   6.012 132.576  0.00  0.00    +0.000 OA
ATOM      8  H   UNL     1     -10.850   5.076 132.606  0.00  0.00    +0.000 HD
ENDBRANCH   1   7
BRANCH   2   9
ATOM      9  O   UNL     1     -13.454   7.169 131.525  0.00  0.00    +0.000 OA
ATOM     10  H   UNL     1     -13.583   7.531 132.416  0.00  0.00    +0.000 HD
ENDBRANCH   2   9
BRANCH   3  11
ATOM     11  O   UNL     1     -13.068   9.236 129.504  0.00  0.00    +0.000 OA
ATOM     12  H   UNL     1     -12.963   9.759 130.313  0.00  0.00    +0.000 HD
ENDBRANCH   3  11
BRANCH   4  13
ATOM     13  O   UNL     1     -10.897   8.761 127.661  0.00  0.00    +0.000 OA
ATOM     14  H   UNL     1      -9.997   8.989 127.367  0.00  0.00    +0.000 HD
ENDBRANCH   4  13
BRANCH   5  15
ATOM     15  O   UNL     1     -10.419   6.054 128.330  0.00  0.00    +0.000 OA
ATOM     16  H   UNL     1     -10.491   6.333 127.402  0.00  0.00    +0.000 HD
ENDBRANCH   5  15
BRANCH   6  17
ATOM     17  O   UNL     1      -8.980   5.518 130.701  0.00  0.00    +0.000 OA
ATOM     18  H   UNL     1      -8.248   5.642 130.074  0.00  0.00    +0.000 HD
ENDBRANCH   6  17
TORSDOF 6
ENDMDL
MODEL 8
REMARK VINA RESULT:      -4.7      0.961      3.127
REMARK  Name = Inositol
REMARK  6 active torsions:
REMARK  status: ('A' for Active; 'I' for Inactive)
REMARK    1  A    between atoms: O_1  and  C_2
REMARK    2  A    between atoms: C_3  and  O_4
REMARK    3  A    between atoms: C_5  and  O_6
REMARK    4  A    between atoms: C_7  and  O_8
REMARK    5  A    between atoms: C_9  and  O_10
REMARK    6  A    between atoms: C_11  and  O_12
REMARK                            x       y       z     vdW  Elec       q    Type
REMARK                         _______ _______ _______ _____ _____    ______ ____
ROOT
ATOM      1  C   UNL     1     -12.068   8.120 130.259  0.00  0.00    +0.000 C 
ATOM      2  C   UNL     1     -11.512   6.690 130.361  0.00  0.00    +0.000 C 
ATOM      3  C   UNL     1     -10.415   6.412 129.312  0.00  0.00    +0.000 C 
ATOM      4  C   UNL     1     -10.915   6.748 127.891  0.00  0.00    +0.000 C 
ATOM      5  C   UNL     1     -11.420   8.197 127.818  0.00  0.00    +0.000 C 
ATOM      6  C   UNL     1     -12.548   8.433 128.833  0.00  0.00    +0.000 C 
ENDROOT
BRANCH   1   7
ATOM      7  O   UNL     1     -13.141   8.271 131.193  0.00  0.00    +0.000 OA
ATOM      8  H   UNL     1     -12.747   8.631 132.011  0.00  0.00    +0.000 HD
ENDBRANCH   1   7
BRANCH   2   9
ATOM      9  O   UNL     1     -11.020   6.508 131.698  0.00  0.00    +0.000 OA
ATOM     10  H   UNL     1     -10.197   5.995 131.667  0.00  0.00    +0.000 HD
ENDBRANCH   2   9
BRANCH   3  11
ATOM     11  O   UNL     1      -9.978   5.051 129.398  0.00  0.00    +0.000 OA
ATOM     12  H   UNL     1      -9.029   5.009 129.209  0.00  0.00    +0.000 HD
ENDBRANCH   3  11
BRANCH   4  13
ATOM     13  O   UNL     1      -9.867   6.558 126.938  0.00  0.00    +0.000 OA
ATOM     14  H   UNL     1      -9.751   7.395 126.453  0.00  0.00    +0.000 HD
ENDBRANCH   4  13
BRANCH   5  15
ATOM     15  O   UNL     1     -10.332   9.120 128.044  0.00  0.00    +0.000 OA
ATOM     16  H   UNL     1     -10.432   9.579 128.895  0.00  0.00    +0.000 HD
ENDBRANCH   5  15
BRANCH   6  17
ATOM     17  O   UNL     1     -12.987   9.792 128.739  0.00  0.00    +0.000 OA
ATOM     18  H   UNL     1     -13.898   9.833 129.079  0.00  0.00    +0.000 HD
ENDBRANCH   6  17
TORSDOF 6
ENDMDL
MODEL 9
REMARK VINA RESULT:      -4.6      1.917      4.859
REMARK  Name = Inositol
REMARK  6 active torsions:
REMARK  status: ('A' for Active; 'I' for Inactive)
REMARK    1  A    between atoms: O_1  and  C_2
REMARK    2  A    between atoms: C_3  and  O_4
REMARK    3  A    between atoms: C_5  and  O_6
REMARK    4  A    between atoms: C_7  and  O_8
REMARK    5  A    between atoms: C_9  and  O_10
REMARK    6  A    between atoms: C_11  and  O_12
REMARK                            x       y       z     vdW  Elec       q    Type
REMARK                         _______ _______ _______ _____ _____    ______ ____
ROOT
ATOM      1  C   UNL     1      -8.977   5.210 129.604  0.00  0.00    +0.000 C 
ATOM      2  C   UNL     1      -8.861   5.096 131.133  0.00  0.00    +0.000 C 
ATOM      3  C   UNL     1     -10.237   5.138 131.830  0.00  0.00    +0.000 C 
ATOM      4  C   UNL     1     -11.037   6.383 131.391  0.00  0.00    +0.000 C 
ATOM      5  C   UNL     1     -11.171   6.436 129.862  0.00  0.00    +0.000 C 
ATOM      6  C   UNL     1      -9.787   6.449 129.195  0.00  0.00    +0.000 C 
ENDROOT
BRANCH   1   7
ATOM      7  O   UNL     1      -7.663   5.260 129.038  0.00  0.00    +0.000 OA
ATOM      8  H   UNL     1      -7.736   5.783 128.217  0.00  0.00    +0.000 HD
ENDBRANCH   1   7
BRANCH   2   9
ATOM      9  O   UNL     1      -8.157   3.879 131.428  0.00  0.00    +0.000 OA
ATOM     10  H   UNL     1      -8.471   3.179 130.833  0.00  0.00    +0.000 HD
ENDBRANCH   2   9
BRANCH   3  11
ATOM     11  O   UNL     1     -10.076   5.102 133.252  0.00  0.00    +0.000 OA
ATOM     12  H   UNL     1      -9.695   5.941 133.551  0.00  0.00    +0.000 HD
ENDBRANCH   3  11
BRANCH   4  13
ATOM     13  O   UNL     1     -12.338   6.370 131.985  0.00  0.00    +0.000 OA
ATOM     14  H   UNL     1     -12.685   7.281 131.959  0.00  0.00    +0.000 HD
ENDBRANCH   4  13
BRANCH   5  15
ATOM     15  O   UNL     1     -11.953   5.319 129.386  0.00  0.00    +0.000 OA
ATOM     16  H   UNL     1     -11.384   4.568 129.146  0.00  0.00    +0.000 HD
ENDBRANCH   5  15
BRANCH   6  17
ATOM     17  O   UNL     1      -9.953   6.493 127.774  0.00  0.00    +0.000 OA
ATOM     18  H   UNL     1      -9.123   6.186 127.369  0.00  0.00    +0.000 HD
ENDBRANCH   6  17
TORSDOF 6
ENDMDL
