MODEL 1
REMARK VINA RESULT:      -5.5      0.000      0.000
REMARK  Name = Iobenguane
REMARK  2 active torsions:
REMARK  status: ('A' for Active; 'I' for Inactive)
REMARK    1  A    between atoms: N_4  and  C_5
REMARK    2  A    between atoms: C_5  and  C_6
REMARK                            x       y       z     vdW  Elec       q    Type
REMARK                         _______ _______ _______ _____ _____    ______ ____
ROOT
ATOM      1  N   UNL     1     -13.886  12.841 130.891  0.00  0.00    +0.000 N 
ATOM      2  C   UNL     1     -13.678  11.852 130.010  0.00  0.00    +0.000 C 
ATOM      3  N   UNL     1     -13.887  12.223 128.738  0.00  0.00    +0.000 N 
ATOM      4  N   UNL     1     -13.298  10.707 130.443  0.00  0.00    +0.000 NA
ATOM      5  H   UNL     1     -14.218  13.759 130.649  0.00  0.00    +0.000 HD
ATOM      6  H   UNL     1     -13.742  12.623 131.869  0.00  0.00    +0.000 HD
ATOM      7  H   UNL     1     -14.238  13.135 128.494  0.00  0.00    +0.000 HD
ATOM      8  H   UNL     1     -13.782  11.552 127.992  0.00  0.00    +0.000 HD
ENDROOT
BRANCH   4   9
ATOM      9  C   UNL     1     -13.041   9.643 129.473  0.00  0.00    +0.000 C 
BRANCH   9  10
ATOM     10  C   UNL     1     -12.462   8.422 130.149  0.00  0.00    +0.000 A 
ATOM     11  C   UNL     1     -11.368   7.763 129.571  0.00  0.00    +0.000 A 
ATOM     12  C   UNL     1     -10.800   6.654 130.190  0.00  0.00    +0.000 A 
ATOM     13  I   UNL     1      -9.123   5.767 129.346  0.00  0.00    +0.000 I 
ATOM     14  C   UNL     1     -11.342   6.162 131.374  0.00  0.00    +0.000 A 
ATOM     15  C   UNL     1     -12.455   6.787 131.941  0.00  0.00    +0.000 A 
ATOM     16  C   UNL     1     -13.016   7.913 131.332  0.00  0.00    +0.000 A 
ENDBRANCH   9  10
ENDBRANCH   4   9
TORSDOF 2
ENDMDL
MODEL 2
REMARK VINA RESULT:      -5.5      3.027      3.780
REMARK  Name = Iobenguane
REMARK  2 active torsions:
REMARK  status: ('A' for Active; 'I' for Inactive)
REMARK    1  A    between atoms: N_4  and  C_5
REMARK    2  A    between atoms: C_5  and  C_6
REMARK                            x       y       z     vdW  Elec       q    Type
REMARK                         _______ _______ _______ _____ _____    ______ ____
ROOT
ATOM      1  N   UNL     1     -12.727   6.761 125.897  0.00  0.00    +0.000 N 
ATOM      2  C   UNL     1     -11.956   7.413 126.780  0.00  0.00    +0.000 C 
ATOM      3  N   UNL     1     -10.668   7.480 126.409  0.00  0.00    +0.000 N 
ATOM      4  N   UNL     1     -12.497   7.903 127.833  0.00  0.00    +0.000 NA
ATOM      5  H   UNL     1     -12.387   6.315 125.064  0.00  0.00    +0.000 HD
ATOM      6  H   UNL     1     -13.711   6.680 126.121  0.00  0.00    +0.000 HD
ATOM      7  H   UNL     1     -10.320   7.017 125.585  0.00  0.00    +0.000 HD
ATOM      8  H   UNL     1      -9.992   7.928 127.009  0.00  0.00    +0.000 HD
ENDROOT
BRANCH   4   9
ATOM      9  C   UNL     1     -11.655   8.640 128.774  0.00  0.00    +0.000 C 
BRANCH   9  10
ATOM     10  C   UNL     1     -11.207   7.753 129.911  0.00  0.00    +0.000 A 
ATOM     11  C   UNL     1      -9.851   7.414 130.032  0.00  0.00    +0.000 A 
ATOM     12  C   UNL     1      -9.411   6.621 131.087  0.00  0.00    +0.000 A 
ATOM     13  I   UNL     1      -7.382   6.223 131.279  0.00  0.00    +0.000 I 
ATOM     14  C   UNL     1     -10.322   6.120 132.013  0.00  0.00    +0.000 A 
ATOM     15  C   UNL     1     -11.680   6.420 131.882  0.00  0.00    +0.000 A 
ATOM     16  C   UNL     1     -12.124   7.233 130.834  0.00  0.00    +0.000 A 
ENDBRANCH   9  10
ENDBRANCH   4   9
TORSDOF 2
ENDMDL
MODEL 3
REMARK VINA RESULT:      -5.3      2.737      3.868
REMARK  Name = Iobenguane
REMARK  2 active torsions:
REMARK  status: ('A' for Active; 'I' for Inactive)
REMARK    1  A    between atoms: N_4  and  C_5
REMARK    2  A    between atoms: C_5  and  C_6
REMARK                            x       y       z     vdW  Elec       q    Type
REMARK                         _______ _______ _______ _____ _____    ______ ____
ROOT
ATOM      1  N   UNL     1     -12.935   9.507 128.689  0.00  0.00    +0.000 N 
ATOM      2  C   UNL     1     -12.702   8.258 129.117  0.00  0.00    +0.000 C 
ATOM      3  N   UNL     1     -12.944   7.325 128.184  0.00  0.00    +0.000 N 
ATOM      4  N   UNL     1     -12.273   8.083 130.312  0.00  0.00    +0.000 NA
ATOM      5  H   UNL     1     -13.304   9.739 127.783  0.00  0.00    +0.000 HD
ATOM      6  H   UNL     1     -12.768  10.257 129.348  0.00  0.00    +0.000 HD
ATOM      7  H   UNL     1     -13.332   7.552 127.284  0.00  0.00    +0.000 HD
ATOM      8  H   UNL     1     -12.825   6.347 128.404  0.00  0.00    +0.000 HD
ENDROOT
BRANCH   4   9
ATOM      9  C   UNL     1     -11.990   6.720 130.761  0.00  0.00    +0.000 C 
BRANCH   9  10
ATOM     10  C   UNL     1     -10.533   6.563 131.129  0.00  0.00    +0.000 A 
ATOM     11  C   UNL     1     -10.182   5.821 132.266  0.00  0.00    +0.000 A 
ATOM     12  C   UNL     1      -8.847   5.639 132.608  0.00  0.00    +0.000 A 
ATOM     13  I   UNL     1      -8.371   4.456 134.247  0.00  0.00    +0.000 I 
ATOM     14  C   UNL     1      -7.842   6.228 131.844  0.00  0.00    +0.000 A 
ATOM     15  C   UNL     1      -8.180   6.999 130.730  0.00  0.00    +0.000 A 
ATOM     16  C   UNL     1      -9.521   7.169 130.372  0.00  0.00    +0.000 A 
ENDBRANCH   9  10
ENDBRANCH   4   9
TORSDOF 2
ENDMDL
MODEL 4
REMARK VINA RESULT:      -5.2     11.272     12.239
REMARK  Name = Iobenguane
REMARK  2 active torsions:
REMARK  status: ('A' for Active; 'I' for Inactive)
REMARK    1  A    between atoms: N_4  and  C_5
REMARK    2  A    between atoms: C_5  and  C_6
REMARK                            x       y       z     vdW  Elec       q    Type
REMARK                         _______ _______ _______ _____ _____    ______ ____
ROOT
ATOM      1  N   UNL     1      -8.869   3.935 120.887  0.00  0.00    +0.000 N 
ATOM      2  C   UNL     1      -8.170   3.296 121.836  0.00  0.00    +0.000 C 
ATOM      3  N   UNL     1      -6.903   3.727 121.940  0.00  0.00    +0.000 N 
ATOM      4  N   UNL     1      -8.753   2.393 122.533  0.00  0.00    +0.000 NA
ATOM      5  H   UNL     1      -8.488   4.631 120.269  0.00  0.00    +0.000 HD
ATOM      6  H   UNL     1      -9.834   3.655 120.762  0.00  0.00    +0.000 HD
ATOM      7  H   UNL     1      -6.513   4.409 121.311  0.00  0.00    +0.000 HD
ATOM      8  H   UNL     1      -6.277   3.300 122.607  0.00  0.00    +0.000 HD
ENDROOT
BRANCH   4   9
ATOM      9  C   UNL     1      -7.992   1.724 123.589  0.00  0.00    +0.000 C 
BRANCH   9  10
ATOM     10  C   UNL     1      -8.064   0.223 123.440  0.00  0.00    +0.000 A 
ATOM     11  C   UNL     1      -6.909  -0.548 123.637  0.00  0.00    +0.000 A 
ATOM     12  C   UNL     1      -6.957  -1.935 123.533  0.00  0.00    +0.000 A 
ATOM     13  I   UNL     1      -5.245  -3.042 123.924  0.00  0.00    +0.000 I 
ATOM     14  C   UNL     1      -8.149  -2.569 123.191  0.00  0.00    +0.000 A 
ATOM     15  C   UNL     1      -9.297  -1.809 122.957  0.00  0.00    +0.000 A 
ATOM     16  C   UNL     1      -9.257  -0.417 123.079  0.00  0.00    +0.000 A 
ENDBRANCH   9  10
ENDBRANCH   4   9
TORSDOF 2
ENDMDL
MODEL 5
REMARK VINA RESULT:      -5.2      3.275      4.479
REMARK  Name = Iobenguane
REMARK  2 active torsions:
REMARK  status: ('A' for Active; 'I' for Inactive)
REMARK    1  A    between atoms: N_4  and  C_5
REMARK    2  A    between atoms: C_5  and  C_6
REMARK                            x       y       z     vdW  Elec       q    Type
REMARK                         _______ _______ _______ _____ _____    ______ ____
ROOT
ATOM      1  N   UNL     1     -11.835   7.209 126.724  0.00  0.00    +0.000 N 
ATOM      2  C   UNL     1     -11.743   7.535 128.021  0.00  0.00    +0.000 C 
ATOM      3  N   UNL     1     -11.929   8.844 128.252  0.00  0.00    +0.000 N 
ATOM      4  N   UNL     1     -11.517   6.610 128.878  0.00  0.00    +0.000 NA
ATOM      5  H   UNL     1     -11.975   7.869 125.978  0.00  0.00    +0.000 HD
ATOM      6  H   UNL     1     -11.707   6.233 126.486  0.00  0.00    +0.000 HD
ATOM      7  H   UNL     1     -12.049   9.510 127.507  0.00  0.00    +0.000 HD
ATOM      8  H   UNL     1     -11.858   9.206 129.191  0.00  0.00    +0.000 HD
ENDROOT
BRANCH   4   9
ATOM      9  C   UNL     1     -11.451   6.969 130.294  0.00  0.00    +0.000 C 
BRANCH   9  10
ATOM     10  C   UNL     1     -10.085   6.669 130.866  0.00  0.00    +0.000 A 
ATOM     11  C   UNL     1      -9.964   5.768 131.934  0.00  0.00    +0.000 A 
ATOM     12  C   UNL     1      -8.715   5.455 132.459  0.00  0.00    +0.000 A 
ATOM     13  I   UNL     1      -8.575   4.047 133.978  0.00  0.00    +0.000 I 
ATOM     14  C   UNL     1      -7.571   6.066 131.952  0.00  0.00    +0.000 A 
ATOM     15  C   UNL     1      -7.681   6.992 130.912  0.00  0.00    +0.000 A 
ATOM     16  C   UNL     1      -8.934   7.295 130.370  0.00  0.00    +0.000 A 
ENDBRANCH   9  10
ENDBRANCH   4   9
TORSDOF 2
ENDMDL
MODEL 6
REMARK VINA RESULT:      -5.1      2.930      3.846
REMARK  Name = Iobenguane
REMARK  2 active torsions:
REMARK  status: ('A' for Active; 'I' for Inactive)
REMARK    1  A    between atoms: N_4  and  C_5
REMARK    2  A    between atoms: C_5  and  C_6
REMARK                            x       y       z     vdW  Elec       q    Type
REMARK                         _______ _______ _______ _____ _____    ______ ____
ROOT
ATOM      1  N   UNL     1     -13.404   7.200 127.706  0.00  0.00    +0.000 N 
ATOM      2  C   UNL     1     -12.344   7.815 128.249  0.00  0.00    +0.000 C 
ATOM      3  N   UNL     1     -12.544   9.125 128.462  0.00  0.00    +0.000 N 
ATOM      4  N   UNL     1     -11.298   7.126 128.517  0.00  0.00    +0.000 NA
ATOM      5  H   UNL     1     -14.253   7.664 127.430  0.00  0.00    +0.000 HD
ATOM      6  H   UNL     1     -13.315   6.209 127.522  0.00  0.00    +0.000 HD
ATOM      7  H   UNL     1     -13.384   9.596 128.170  0.00  0.00    +0.000 HD
ATOM      8  H   UNL     1     -11.804   9.693 128.846  0.00  0.00    +0.000 HD
ENDROOT
BRANCH   4   9
ATOM      9  C   UNL     1     -10.157   7.798 129.139  0.00  0.00    +0.000 C 
BRANCH   9  10
ATOM     10  C   UNL     1      -9.735   7.088 130.404  0.00  0.00    +0.000 A 
ATOM     11  C   UNL     1      -8.373   6.856 130.646  0.00  0.00    +0.000 A 
ATOM     12  C   UNL     1      -7.958   6.230 131.816  0.00  0.00    +0.000 A 
ATOM     13  I   UNL     1      -5.927   5.990 132.175  0.00  0.00    +0.000 I 
ATOM     14  C   UNL     1      -8.898   5.789 132.744  0.00  0.00    +0.000 A 
ATOM     15  C   UNL     1     -10.260   5.982 132.498  0.00  0.00    +0.000 A 
ATOM     16  C   UNL     1     -10.679   6.628 131.331  0.00  0.00    +0.000 A 
ENDBRANCH   9  10
ENDBRANCH   4   9
TORSDOF 2
ENDMDL
MODEL 7
REMARK VINA RESULT:      -5.0      4.868      6.388
REMARK  Name = Iobenguane
REMARK  2 active torsions:
REMARK  status: ('A' for Active; 'I' for Inactive)
REMARK    1  A    between atoms: N_4  and  C_5
REMARK    2  A    between atoms: C_5  and  C_6
REMARK                            x       y       z     vdW  Elec       q    Type
REMARK                         _______ _______ _______ _____ _____    ______ ____
ROOT
ATOM      1  N   UNL     1      -8.915   2.095 130.281  0.00  0.00    +0.000 N 
ATOM      2  C   UNL     1      -9.455   3.005 131.105  0.00  0.00    +0.000 C 
ATOM      3  N   UNL     1     -10.277   2.470 132.020  0.00  0.00    +0.000 N 
ATOM      4  N   UNL     1      -9.135   4.238 130.960  0.00  0.00    +0.000 NA
ATOM      5  H   UNL     1      -9.133   1.113 130.296  0.00  0.00    +0.000 HD
ATOM      6  H   UNL     1      -8.283   2.438 129.569  0.00  0.00    +0.000 HD
ATOM      7  H   UNL     1     -10.512   1.491 132.025  0.00  0.00    +0.000 HD
ATOM      8  H   UNL     1     -10.758   3.065 132.678  0.00  0.00    +0.000 HD
ENDROOT
BRANCH   4   9
ATOM      9  C   UNL     1      -9.702   5.220 131.884  0.00  0.00    +0.000 C 
BRANCH   9  10
ATOM     10  C   UNL     1     -10.702   6.109 131.182  0.00  0.00    +0.000 A 
ATOM     11  C   UNL     1     -10.484   6.477 129.846  0.00  0.00    +0.000 A 
ATOM     12  C   UNL     1     -11.405   7.271 129.171  0.00  0.00    +0.000 A 
ATOM     13  I   UNL     1     -11.087   7.714 127.167  0.00  0.00    +0.000 I 
ATOM     14  C   UNL     1     -12.537   7.744 129.830  0.00  0.00    +0.000 A 
ATOM     15  C   UNL     1     -12.747   7.414 131.171  0.00  0.00    +0.000 A 
ATOM     16  C   UNL     1     -11.833   6.600 131.848  0.00  0.00    +0.000 A 
ENDBRANCH   9  10
ENDBRANCH   4   9
TORSDOF 2
ENDMDL
MODEL 8
REMARK VINA RESULT:      -4.9     13.225     13.875
REMARK  Name = Iobenguane
REMARK  2 active torsions:
REMARK  status: ('A' for Active; 'I' for Inactive)
REMARK    1  A    between atoms: N_4  and  C_5
REMARK    2  A    between atoms: C_5  and  C_6
REMARK                            x       y       z     vdW  Elec       q    Type
REMARK                         _______ _______ _______ _____ _____    ______ ____
ROOT
ATOM      1  N   UNL     1      -2.664  -2.876 129.479  0.00  0.00    +0.000 N 
ATOM      2  C   UNL     1      -3.863  -2.299 129.645  0.00  0.00    +0.000 C 
ATOM      3  N   UNL     1      -3.798  -0.962 129.742  0.00  0.00    +0.000 N 
ATOM      4  N   UNL     1      -4.908  -3.039 129.676  0.00  0.00    +0.000 NA
ATOM      5  H   UNL     1      -1.789  -2.381 129.477  0.00  0.00    +0.000 HD
ATOM      6  H   UNL     1      -2.648  -3.885 129.397  0.00  0.00    +0.000 HD
ATOM      7  H   UNL     1      -2.922  -0.465 129.760  0.00  0.00    +0.000 HD
ATOM      8  H   UNL     1      -4.639  -0.424 129.892  0.00  0.00    +0.000 HD
ENDROOT
BRANCH   4   9
ATOM      9  C   UNL     1      -6.215  -2.399 129.825  0.00  0.00    +0.000 C 
BRANCH   9  10
ATOM     10  C   UNL     1      -7.138  -2.783 128.693  0.00  0.00    +0.000 A 
ATOM     11  C   UNL     1      -6.856  -2.345 127.390  0.00  0.00    +0.000 A 
ATOM     12  C   UNL     1      -7.676  -2.710 126.327  0.00  0.00    +0.000 A 
ATOM     13  I   UNL     1      -7.169  -2.116 124.403  0.00  0.00    +0.000 I 
ATOM     14  C   UNL     1      -8.812  -3.483 126.554  0.00  0.00    +0.000 A 
ATOM     15  C   UNL     1      -9.124  -3.895 127.852  0.00  0.00    +0.000 A 
ATOM     16  C   UNL     1      -8.291  -3.546 128.920  0.00  0.00    +0.000 A 
ENDBRANCH   9  10
ENDBRANCH   4   9
TORSDOF 2
ENDMDL
MODEL 9
REMARK VINA RESULT:      -4.9     10.446     11.259
REMARK  Name = Iobenguane
REMARK  2 active torsions:
REMARK  status: ('A' for Active; 'I' for Inactive)
REMARK    1  A    between atoms: N_4  and  C_5
REMARK    2  A    between atoms: C_5  and  C_6
REMARK                            x       y       z     vdW  Elec       q    Type
REMARK                         _______ _______ _______ _____ _____    ______ ____
ROOT
ATOM      1  N   UNL     1      -9.495   4.045 119.560  0.00  0.00    +0.000 N 
ATOM      2  C   UNL     1      -8.554   3.798 120.483  0.00  0.00    +0.000 C 
ATOM      3  N   UNL     1      -7.316   4.112 120.074  0.00  0.00    +0.000 N 
ATOM      4  N   UNL     1      -8.911   3.326 121.620  0.00  0.00    +0.000 NA
ATOM      5  H   UNL     1      -9.307   4.381 118.631  0.00  0.00    +0.000 HD
ATOM      6  H   UNL     1     -10.452   3.830 119.811  0.00  0.00    +0.000 HD
ATOM      7  H   UNL     1      -7.122   4.429 119.138  0.00  0.00    +0.000 HD
ATOM      8  H   UNL     1      -6.526   3.945 120.680  0.00  0.00    +0.000 HD
ENDROOT
BRANCH   4   9
ATOM      9  C   UNL     1      -7.883   3.091 122.633  0.00  0.00    +0.000 C 
BRANCH   9  10
ATOM     10  C   UNL     1      -8.251   1.922 123.516  0.00  0.00    +0.000 A 
ATOM     11  C   UNL     1      -7.472   0.756 123.482  0.00  0.00    +0.000 A 
ATOM     12  C   UNL     1      -7.775  -0.322 124.307  0.00  0.00    +0.000 A 
ATOM     13  I   UNL     1      -6.541  -1.992 124.290  0.00  0.00    +0.000 I 
ATOM     14  C   UNL     1      -8.883  -0.269 125.149  0.00  0.00    +0.000 A 
ATOM     15  C   UNL     1      -9.687   0.873 125.166  0.00  0.00    +0.000 A 
ATOM     16  C   UNL     1      -9.375   1.966 124.352  0.00  0.00    +0.000 A 
ENDBRANCH   9  10
ENDBRANCH   4   9
TORSDOF 2
ENDMDL
