MODEL 1
REMARK VINA RESULT:      -5.6      0.000      0.000
REMARK  Name = Iocetamic acid
REMARK  8 active torsions:
REMARK  status: ('A' for Active; 'I' for Inactive)
REMARK    1  A    between atoms: C_1  and  C_2
REMARK    2  A    between atoms: C_2  and  C_3
REMARK    3  A    between atoms: C_2  and  C_18
REMARK    4  A    between atoms: C_3  and  N_4
REMARK    5  A    between atoms: N_4  and  C_8
REMARK    6  A    between atoms: C_5  and  C_6
REMARK    7  A    between atoms: C_14  and  N_15
REMARK    8  A    between atoms: C_18  and  O_19
REMARK                            x       y       z     vdW  Elec       q    Type
REMARK                         _______ _______ _______ _____ _____    ______ ____
ROOT
ATOM      1  C   UNL     1      -6.680   0.798 125.392  0.00  0.00    +0.000 A 
ATOM      2  C   UNL     1      -6.070   0.420 126.623  0.00  0.00    +0.000 A 
ATOM      3  I   UNL     1      -6.308  -1.392 127.726  0.00  0.00    +0.000 I 
ATOM      4  C   UNL     1      -5.099   1.233 127.237  0.00  0.00    +0.000 A 
ATOM      5  C   UNL     1      -4.697   2.429 126.653  0.00  0.00    +0.000 A 
ATOM      6  I   UNL     1      -3.161   3.502 127.604  0.00  0.00    +0.000 I 
ATOM      7  C   UNL     1      -5.314   2.899 125.490  0.00  0.00    +0.000 A 
ATOM      8  C   UNL     1      -6.314   2.085 124.887  0.00  0.00    +0.000 A 
ATOM      9  I   UNL     1      -7.424   3.074 123.269  0.00  0.00    +0.000 I 
ENDROOT
BRANCH   1  10
ATOM     10  N   UNL     1      -7.569  -0.088 124.658  0.00  0.00    +0.000 N 
ATOM     11  C   UNL     1      -8.972  -0.044 124.787  0.00  0.00    +0.000 C 
ATOM     12  C   UNL     1      -9.660   0.749 125.862  0.00  0.00    +0.000 C 
ATOM     13  O   UNL     1      -9.752  -0.670 124.058  0.00  0.00    +0.000 OA
BRANCH  10  14
ATOM     14  C   UNL     1      -6.922  -0.991 123.646  0.00  0.00    +0.000 C 
BRANCH  14  16
ATOM     15  C   UNL     1      -5.320  -2.882 123.306  0.00  0.00    +0.000 C 
ATOM     16  C   UNL     1      -6.528  -2.402 124.105  0.00  0.00    +0.000 C 
BRANCH  16  17
ATOM     17  C   UNL     1      -7.721  -3.340 124.038  0.00  0.00    +0.000 C 
ATOM     18  O   UNL     1      -7.856  -4.306 124.790  0.00  0.00    +0.000 OA
BRANCH  17  19
ATOM     19  O   UNL     1      -8.629  -3.094 123.076  0.00  0.00    +0.000 OA
ATOM     20  H   UNL     1      -8.455  -3.479 122.199  0.00  0.00    +0.000 HD
ENDBRANCH  17  19
ENDBRANCH  16  17
ENDBRANCH  14  16
ENDBRANCH  10  14
ENDBRANCH   1  10
BRANCH   7  21
ATOM     21  N   UNL     1      -4.822   4.042 124.844  0.00  0.00    +0.000 N 
ATOM     22  H   UNL     1      -5.445   4.528 124.206  0.00  0.00    +0.000 HD
ATOM     23  H   UNL     1      -3.832   4.070 124.627  0.00  0.00    +0.000 HD
ENDBRANCH   7  21
TORSDOF 6
ENDMDL
MODEL 2
REMARK VINA RESULT:      -5.5      1.112      2.551
REMARK  Name = Iocetamic acid
REMARK  8 active torsions:
REMARK  status: ('A' for Active; 'I' for Inactive)
REMARK    1  A    between atoms: C_1  and  C_2
REMARK    2  A    between atoms: C_2  and  C_3
REMARK    3  A    between atoms: C_2  and  C_18
REMARK    4  A    between atoms: C_3  and  N_4
REMARK    5  A    between atoms: N_4  and  C_8
REMARK    6  A    between atoms: C_5  and  C_6
REMARK    7  A    between atoms: C_14  and  N_15
REMARK    8  A    between atoms: C_18  and  O_19
REMARK                            x       y       z     vdW  Elec       q    Type
REMARK                         _______ _______ _______ _____ _____    ______ ____
ROOT
ATOM      1  C   UNL     1      -6.420   0.952 125.370  0.00  0.00    +0.000 A 
ATOM      2  C   UNL     1      -6.091   2.200 124.766  0.00  0.00    +0.000 A 
ATOM      3  I   UNL     1      -6.870   3.059 122.974  0.00  0.00    +0.000 I 
ATOM      4  C   UNL     1      -5.216   3.107 125.394  0.00  0.00    +0.000 A 
ATOM      5  C   UNL     1      -4.652   2.814 126.630  0.00  0.00    +0.000 A 
ATOM      6  I   UNL     1      -3.450   4.292 127.519  0.00  0.00    +0.000 I 
ATOM      7  C   UNL     1      -4.866   1.573 127.238  0.00  0.00    +0.000 A 
ATOM      8  C   UNL     1      -5.732   0.650 126.587  0.00  0.00    +0.000 A 
ATOM      9  I   UNL     1      -5.726  -1.363 127.468  0.00  0.00    +0.000 I 
ENDROOT
BRANCH   1  10
ATOM     10  N   UNL     1      -7.435   0.065 124.824  0.00  0.00    +0.000 N 
ATOM     11  C   UNL     1      -8.789   0.120 125.212  0.00  0.00    +0.000 C 
ATOM     12  C   UNL     1      -9.260   0.929 126.387  0.00  0.00    +0.000 C 
ATOM     13  O   UNL     1      -9.694  -0.508 124.648  0.00  0.00    +0.000 OA
BRANCH  10  14
ATOM     14  C   UNL     1      -6.992  -0.853 123.720  0.00  0.00    +0.000 C 
BRANCH  14  16
ATOM     15  C   UNL     1      -5.415  -2.741 123.265  0.00  0.00    +0.000 C 
ATOM     16  C   UNL     1      -6.607  -2.288 124.104  0.00  0.00    +0.000 C 
BRANCH  16  17
ATOM     17  C   UNL     1      -7.810  -3.210 124.007  0.00  0.00    +0.000 C 
ATOM     18  O   UNL     1      -7.941  -4.215 124.707  0.00  0.00    +0.000 OA
BRANCH  17  19
ATOM     19  O   UNL     1      -8.735  -2.901 123.080  0.00  0.00    +0.000 OA
ATOM     20  H   UNL     1      -8.492  -3.056 122.150  0.00  0.00    +0.000 HD
ENDBRANCH  17  19
ENDBRANCH  16  17
ENDBRANCH  14  16
ENDBRANCH  10  14
ENDBRANCH   1  10
BRANCH   7  21
ATOM     21  N   UNL     1      -4.393   1.333 128.535  0.00  0.00    +0.000 N 
ATOM     22  H   UNL     1      -3.430   1.582 128.740  0.00  0.00    +0.000 HD
ATOM     23  H   UNL     1      -4.778   0.541 129.037  0.00  0.00    +0.000 HD
ENDBRANCH   7  21
TORSDOF 6
ENDMDL
MODEL 3
REMARK VINA RESULT:      -5.4      2.813      4.815
REMARK  Name = Iocetamic acid
REMARK  8 active torsions:
REMARK  status: ('A' for Active; 'I' for Inactive)
REMARK    1  A    between atoms: C_1  and  C_2
REMARK    2  A    between atoms: C_2  and  C_3
REMARK    3  A    between atoms: C_2  and  C_18
REMARK    4  A    between atoms: C_3  and  N_4
REMARK    5  A    between atoms: N_4  and  C_8
REMARK    6  A    between atoms: C_5  and  C_6
REMARK    7  A    between atoms: C_14  and  N_15
REMARK    8  A    between atoms: C_18  and  O_19
REMARK                            x       y       z     vdW  Elec       q    Type
REMARK                         _______ _______ _______ _____ _____    ______ ____
ROOT
ATOM      1  C   UNL     1      -7.053  -1.249 125.660  0.00  0.00    +0.000 A 
ATOM      2  C   UNL     1      -7.936  -2.286 126.076  0.00  0.00    +0.000 A 
ATOM      3  I   UNL     1      -9.195  -3.524 124.877  0.00  0.00    +0.000 I 
ATOM      4  C   UNL     1      -8.000  -2.694 127.422  0.00  0.00    +0.000 A 
ATOM      5  C   UNL     1      -7.195  -2.100 128.387  0.00  0.00    +0.000 A 
ATOM      6  I   UNL     1      -7.299  -2.868 130.340  0.00  0.00    +0.000 I 
ATOM      7  C   UNL     1      -6.368  -1.021 128.062  0.00  0.00    +0.000 A 
ATOM      8  C   UNL     1      -6.325  -0.596 126.704  0.00  0.00    +0.000 A 
ATOM      9  I   UNL     1      -5.251   1.295 126.387  0.00  0.00    +0.000 I 
ENDROOT
BRANCH   1  10
ATOM     10  N   UNL     1      -6.851  -0.911 124.260  0.00  0.00    +0.000 N 
ATOM     11  C   UNL     1      -6.093  -1.711 123.381  0.00  0.00    +0.000 C 
ATOM     12  C   UNL     1      -5.234  -2.847 123.860  0.00  0.00    +0.000 C 
ATOM     13  O   UNL     1      -6.041  -1.534 122.157  0.00  0.00    +0.000 OA
BRANCH  10  14
ATOM     14  C   UNL     1      -7.597   0.289 123.750  0.00  0.00    +0.000 C 
BRANCH  14  16
ATOM     15  C   UNL     1      -9.902   0.580 122.822  0.00  0.00    +0.000 C 
ATOM     16  C   UNL     1      -9.088   0.397 124.100  0.00  0.00    +0.000 C 
BRANCH  16  17
ATOM     17  C   UNL     1      -9.318   1.484 125.135  0.00  0.00    +0.000 C 
ATOM     18  O   UNL     1      -9.382   1.254 126.344  0.00  0.00    +0.000 OA
BRANCH  17  19
ATOM     19  O   UNL     1      -9.493   2.735 124.670  0.00  0.00    +0.000 OA
ATOM     20  H   UNL     1      -8.738   3.343 124.755  0.00  0.00    +0.000 HD
ENDBRANCH  17  19
ENDBRANCH  16  17
ENDBRANCH  14  16
ENDBRANCH  10  14
ENDBRANCH   1  10
BRANCH   7  21
ATOM     21  N   UNL     1      -5.473  -0.508 129.011  0.00  0.00    +0.000 N 
ATOM     22  H   UNL     1      -5.390  -1.000 129.895  0.00  0.00    +0.000 HD
ATOM     23  H   UNL     1      -5.332   0.496 129.031  0.00  0.00    +0.000 HD
ENDBRANCH   7  21
TORSDOF 6
ENDMDL
MODEL 4
REMARK VINA RESULT:      -5.3      6.891      8.973
REMARK  Name = Iocetamic acid
REMARK  8 active torsions:
REMARK  status: ('A' for Active; 'I' for Inactive)
REMARK    1  A    between atoms: C_1  and  C_2
REMARK    2  A    between atoms: C_2  and  C_3
REMARK    3  A    between atoms: C_2  and  C_18
REMARK    4  A    between atoms: C_3  and  N_4
REMARK    5  A    between atoms: N_4  and  C_8
REMARK    6  A    between atoms: C_5  and  C_6
REMARK    7  A    between atoms: C_14  and  N_15
REMARK    8  A    between atoms: C_18  and  O_19
REMARK                            x       y       z     vdW  Elec       q    Type
REMARK                         _______ _______ _______ _____ _____    ______ ____
ROOT
ATOM      1  C   UNL     1      -6.509   4.910 130.462  0.00  0.00    +0.000 A 
ATOM      2  C   UNL     1      -6.994   3.842 129.654  0.00  0.00    +0.000 A 
ATOM      3  I   UNL     1      -8.726   2.631 129.948  0.00  0.00    +0.000 I 
ATOM      4  C   UNL     1      -6.380   3.516 128.430  0.00  0.00    +0.000 A 
ATOM      5  C   UNL     1      -5.283   4.234 127.968  0.00  0.00    +0.000 A 
ATOM      6  I   UNL     1      -4.521   3.725 126.076  0.00  0.00    +0.000 I 
ATOM      7  C   UNL     1      -4.705   5.238 128.750  0.00  0.00    +0.000 A 
ATOM      8  C   UNL     1      -5.315   5.548 129.998  0.00  0.00    +0.000 A 
ATOM      9  I   UNL     1      -4.134   6.901 131.265  0.00  0.00    +0.000 I 
ENDROOT
BRANCH   1  10
ATOM     10  N   UNL     1      -7.210   5.370 131.650  0.00  0.00    +0.000 N 
ATOM     11  C   UNL     1      -7.004   4.809 132.927  0.00  0.00    +0.000 C 
ATOM     12  C   UNL     1      -6.229   3.539 133.135  0.00  0.00    +0.000 C 
ATOM     13  O   UNL     1      -7.462   5.286 133.973  0.00  0.00    +0.000 OA
BRANCH  10  14
ATOM     14  C   UNL     1      -8.094   6.572 131.477  0.00  0.00    +0.000 C 
BRANCH  14  16
ATOM     15  C   UNL     1      -9.769   7.368 129.797  0.00  0.00    +0.000 C 
ATOM     16  C   UNL     1      -9.495   6.343 130.894  0.00  0.00    +0.000 C 
BRANCH  16  17
ATOM     17  C   UNL     1     -10.539   6.332 131.998  0.00  0.00    +0.000 C 
ATOM     18  O   UNL     1     -11.750   6.313 131.773  0.00  0.00    +0.000 OA
BRANCH  17  19
ATOM     19  O   UNL     1     -10.082   6.383 133.263  0.00  0.00    +0.000 OA
ATOM     20  H   UNL     1      -9.144   6.615 133.381  0.00  0.00    +0.000 HD
ENDBRANCH  17  19
ENDBRANCH  16  17
ENDBRANCH  14  16
ENDBRANCH  10  14
ENDBRANCH   1  10
BRANCH   7  21
ATOM     21  N   UNL     1      -3.678   6.035 128.227  0.00  0.00    +0.000 N 
ATOM     22  H   UNL     1      -3.926   6.719 127.518  0.00  0.00    +0.000 HD
ATOM     23  H   UNL     1      -2.751   5.628 128.166  0.00  0.00    +0.000 HD
ENDBRANCH   7  21
TORSDOF 6
ENDMDL
MODEL 5
REMARK VINA RESULT:      -5.2      3.058      5.019
REMARK  Name = Iocetamic acid
REMARK  8 active torsions:
REMARK  status: ('A' for Active; 'I' for Inactive)
REMARK    1  A    between atoms: C_1  and  C_2
REMARK    2  A    between atoms: C_2  and  C_3
REMARK    3  A    between atoms: C_2  and  C_18
REMARK    4  A    between atoms: C_3  and  N_4
REMARK    5  A    between atoms: N_4  and  C_8
REMARK    6  A    between atoms: C_5  and  C_6
REMARK    7  A    between atoms: C_14  and  N_15
REMARK    8  A    between atoms: C_18  and  O_19
REMARK                            x       y       z     vdW  Elec       q    Type
REMARK                         _______ _______ _______ _____ _____    ______ ____
ROOT
ATOM      1  C   UNL     1      -7.532   0.686 126.454  0.00  0.00    +0.000 A 
ATOM      2  C   UNL     1      -7.449  -0.654 125.977  0.00  0.00    +0.000 A 
ATOM      3  I   UNL     1      -7.130  -1.339 123.982  0.00  0.00    +0.000 I 
ATOM      4  C   UNL     1      -7.479  -1.747 126.864  0.00  0.00    +0.000 A 
ATOM      5  C   UNL     1      -7.582  -1.551 128.236  0.00  0.00    +0.000 A 
ATOM      6  I   UNL     1      -7.504  -3.254 129.465  0.00  0.00    +0.000 I 
ATOM      7  C   UNL     1      -7.751  -0.267 128.763  0.00  0.00    +0.000 A 
ATOM      8  C   UNL     1      -7.744   0.833 127.861  0.00  0.00    +0.000 A 
ATOM      9  I   UNL     1      -8.340   2.744 128.769  0.00  0.00    +0.000 I 
ENDROOT
BRANCH   1  10
ATOM     10  N   UNL     1      -7.350   1.837 125.583  0.00  0.00    +0.000 N 
ATOM     11  C   UNL     1      -6.085   2.395 125.306  0.00  0.00    +0.000 C 
ATOM     12  C   UNL     1      -4.848   2.008 126.066  0.00  0.00    +0.000 C 
ATOM     13  O   UNL     1      -5.887   3.264 124.448  0.00  0.00    +0.000 OA
BRANCH  10  14
ATOM     14  C   UNL     1      -8.579   2.343 124.883  0.00  0.00    +0.000 C 
BRANCH  14  16
ATOM     15  C   UNL     1      -8.626   2.889 122.442  0.00  0.00    +0.000 C 
ATOM     16  C   UNL     1      -8.870   1.796 123.479  0.00  0.00    +0.000 C 
BRANCH  16  17
ATOM     17  C   UNL     1     -10.262   1.191 123.418  0.00  0.00    +0.000 C 
ATOM     18  O   UNL     1     -10.628   0.445 122.508  0.00  0.00    +0.000 OA
BRANCH  17  19
ATOM     19  O   UNL     1     -11.116   1.538 124.398  0.00  0.00    +0.000 OA
ATOM     20  H   UNL     1     -11.653   0.824 124.786  0.00  0.00    +0.000 HD
ENDBRANCH  17  19
ENDBRANCH  16  17
ENDBRANCH  14  16
ENDBRANCH  10  14
ENDBRANCH   1  10
BRANCH   7  21
ATOM     21  N   UNL     1      -7.732  -0.068 130.150  0.00  0.00    +0.000 N 
ATOM     22  H   UNL     1      -7.158   0.688 130.511  0.00  0.00    +0.000 HD
ATOM     23  H   UNL     1      -7.841  -0.882 130.745  0.00  0.00    +0.000 HD
ENDBRANCH   7  21
TORSDOF 6
ENDMDL
MODEL 6
REMARK VINA RESULT:      -5.2      7.556      9.331
REMARK  Name = Iocetamic acid
REMARK  8 active torsions:
REMARK  status: ('A' for Active; 'I' for Inactive)
REMARK    1  A    between atoms: C_1  and  C_2
REMARK    2  A    between atoms: C_2  and  C_3
REMARK    3  A    between atoms: C_2  and  C_18
REMARK    4  A    between atoms: C_3  and  N_4
REMARK    5  A    between atoms: N_4  and  C_8
REMARK    6  A    between atoms: C_5  and  C_6
REMARK    7  A    between atoms: C_14  and  N_15
REMARK    8  A    between atoms: C_18  and  O_19
REMARK                            x       y       z     vdW  Elec       q    Type
REMARK                         _______ _______ _______ _____ _____    ______ ____
ROOT
ATOM      1  C   UNL     1      -4.855   4.820 131.204  0.00  0.00    +0.000 A 
ATOM      2  C   UNL     1      -5.023   3.545 130.591  0.00  0.00    +0.000 A 
ATOM      3  I   UNL     1      -6.403   1.997 131.093  0.00  0.00    +0.000 I 
ATOM      4  C   UNL     1      -4.297   3.189 129.438  0.00  0.00    +0.000 A 
ATOM      5  C   UNL     1      -3.399   4.077 128.857  0.00  0.00    +0.000 A 
ATOM      6  I   UNL     1      -2.459   3.474 127.077  0.00  0.00    +0.000 I 
ATOM      7  C   UNL     1      -3.126   5.310 129.455  0.00  0.00    +0.000 A 
ATOM      8  C   UNL     1      -3.844   5.656 130.635  0.00  0.00    +0.000 A 
ATOM      9  I   UNL     1      -3.094   7.456 131.649  0.00  0.00    +0.000 I 
ENDROOT
BRANCH   1  10
ATOM     10  N   UNL     1      -5.697   5.275 132.299  0.00  0.00    +0.000 N 
ATOM     11  C   UNL     1      -5.380   5.049 133.654  0.00  0.00    +0.000 C 
ATOM     12  C   UNL     1      -4.281   4.118 134.082  0.00  0.00    +0.000 C 
ATOM     13  O   UNL     1      -5.989   5.563 134.601  0.00  0.00    +0.000 OA
BRANCH  10  14
ATOM     14  C   UNL     1      -6.882   6.117 131.922  0.00  0.00    +0.000 C 
BRANCH  14  16
ATOM     15  C   UNL     1      -8.706   5.410 130.362  0.00  0.00    +0.000 C 
ATOM     16  C   UNL     1      -8.244   5.417 131.817  0.00  0.00    +0.000 C 
BRANCH  16  17
ATOM     17  C   UNL     1      -9.243   6.042 132.775  0.00  0.00    +0.000 C 
ATOM     18  O   UNL     1     -10.351   6.443 132.419  0.00  0.00    +0.000 OA
BRANCH  17  19
ATOM     19  O   UNL     1      -8.848   6.179 134.055  0.00  0.00    +0.000 OA
ATOM     20  H   UNL     1      -9.164   5.508 134.685  0.00  0.00    +0.000 HD
ENDBRANCH  17  19
ENDBRANCH  16  17
ENDBRANCH  14  16
ENDBRANCH  10  14
ENDBRANCH   1  10
BRANCH   7  21
ATOM     21  N   UNL     1      -2.313   6.245 128.800  0.00  0.00    +0.000 N 
ATOM     22  H   UNL     1      -1.713   5.909 128.054  0.00  0.00    +0.000 HD
ATOM     23  H   UNL     1      -1.972   7.033 129.341  0.00  0.00    +0.000 HD
ENDBRANCH   7  21
TORSDOF 6
ENDMDL
MODEL 7
REMARK VINA RESULT:      -5.1      2.488      3.275
REMARK  Name = Iocetamic acid
REMARK  8 active torsions:
REMARK  status: ('A' for Active; 'I' for Inactive)
REMARK    1  A    between atoms: C_1  and  C_2
REMARK    2  A    between atoms: C_2  and  C_3
REMARK    3  A    between atoms: C_2  and  C_18
REMARK    4  A    between atoms: C_3  and  N_4
REMARK    5  A    between atoms: N_4  and  C_8
REMARK    6  A    between atoms: C_5  and  C_6
REMARK    7  A    between atoms: C_14  and  N_15
REMARK    8  A    between atoms: C_18  and  O_19
REMARK                            x       y       z     vdW  Elec       q    Type
REMARK                         _______ _______ _______ _____ _____    ______ ____
ROOT
ATOM      1  C   UNL     1      -6.568  -0.740 127.161  0.00  0.00    +0.000 A 
ATOM      2  C   UNL     1      -7.087  -1.783 127.979  0.00  0.00    +0.000 A 
ATOM      3  I   UNL     1      -8.516  -3.286 127.474  0.00  0.00    +0.000 I 
ATOM      4  C   UNL     1      -6.598  -2.002 129.281  0.00  0.00    +0.000 A 
ATOM      5  C   UNL     1      -5.584  -1.208 129.805  0.00  0.00    +0.000 A 
ATOM      6  I   UNL     1      -4.860  -1.701 131.716  0.00  0.00    +0.000 I 
ATOM      7  C   UNL     1      -5.089  -0.115 129.088  0.00  0.00    +0.000 A 
ATOM      8  C   UNL     1      -5.604   0.116 127.781  0.00  0.00    +0.000 A 
ATOM      9  I   UNL     1      -4.989   2.033 126.899  0.00  0.00    +0.000 I 
ENDROOT
BRANCH   1  10
ATOM     10  N   UNL     1      -6.941  -0.585 125.763  0.00  0.00    +0.000 N 
ATOM     11  C   UNL     1      -8.034   0.200 125.345  0.00  0.00    +0.000 C 
ATOM     12  C   UNL     1      -9.049   0.750 126.307  0.00  0.00    +0.000 C 
ATOM     13  O   UNL     1      -8.272   0.478 124.162  0.00  0.00    +0.000 OA
BRANCH  10  14
ATOM     14  C   UNL     1      -6.022  -1.216 124.756  0.00  0.00    +0.000 C 
BRANCH  14  16
ATOM     15  C   UNL     1      -5.078  -3.258 123.662  0.00  0.00    +0.000 C 
ATOM     16  C   UNL     1      -6.307  -2.668 124.348  0.00  0.00    +0.000 C 
BRANCH  16  17
ATOM     17  C   UNL     1      -7.574  -2.752 123.516  0.00  0.00    +0.000 C 
ATOM     18  O   UNL     1      -8.495  -3.527 123.776  0.00  0.00    +0.000 OA
BRANCH  17  19
ATOM     19  O   UNL     1      -7.641  -1.955 122.434  0.00  0.00    +0.000 OA
ATOM     20  H   UNL     1      -6.797  -1.720 122.009  0.00  0.00    +0.000 HD
ENDBRANCH  17  19
ENDBRANCH  16  17
ENDBRANCH  14  16
ENDBRANCH  10  14
ENDBRANCH   1  10
BRANCH   7  21
ATOM     21  N   UNL     1      -3.987   0.603 129.571  0.00  0.00    +0.000 N 
ATOM     22  H   UNL     1      -3.371   1.037 128.890  0.00  0.00    +0.000 HD
ATOM     23  H   UNL     1      -3.563   0.289 130.436  0.00  0.00    +0.000 HD
ENDBRANCH   7  21
TORSDOF 6
ENDMDL
MODEL 8
REMARK VINA RESULT:      -5.1      6.838      9.035
REMARK  Name = Iocetamic acid
REMARK  8 active torsions:
REMARK  status: ('A' for Active; 'I' for Inactive)
REMARK    1  A    between atoms: C_1  and  C_2
REMARK    2  A    between atoms: C_2  and  C_3
REMARK    3  A    between atoms: C_2  and  C_18
REMARK    4  A    between atoms: C_3  and  N_4
REMARK    5  A    between atoms: N_4  and  C_8
REMARK    6  A    between atoms: C_5  and  C_6
REMARK    7  A    between atoms: C_14  and  N_15
REMARK    8  A    between atoms: C_18  and  O_19
REMARK                            x       y       z     vdW  Elec       q    Type
REMARK                         _______ _______ _______ _____ _____    ______ ____
ROOT
ATOM      1  C   UNL     1      -7.537   4.166 131.501  0.00  0.00    +0.000 A 
ATOM      2  C   UNL     1      -7.338   3.569 132.778  0.00  0.00    +0.000 A 
ATOM      3  I   UNL     1      -7.085   4.524 134.670  0.00  0.00    +0.000 I 
ATOM      4  C   UNL     1      -7.386   2.172 132.946  0.00  0.00    +0.000 A 
ATOM      5  C   UNL     1      -7.639   1.332 131.868  0.00  0.00    +0.000 A 
ATOM      6  I   UNL     1      -7.797  -0.727 132.263  0.00  0.00    +0.000 I 
ATOM      7  C   UNL     1      -7.760   1.846 130.574  0.00  0.00    +0.000 A 
ATOM      8  C   UNL     1      -7.686   3.258 130.406  0.00  0.00    +0.000 A 
ATOM      9  I   UNL     1      -7.564   3.908 128.310  0.00  0.00    +0.000 I 
ENDROOT
BRANCH   1  10
ATOM     10  N   UNL     1      -7.646   5.605 131.321  0.00  0.00    +0.000 N 
ATOM     11  C   UNL     1      -6.563   6.411 130.917  0.00  0.00    +0.000 C 
ATOM     12  C   UNL     1      -5.151   5.901 130.867  0.00  0.00    +0.000 C 
ATOM     13  O   UNL     1      -6.669   7.603 130.601  0.00  0.00    +0.000 OA
BRANCH  10  14
ATOM     14  C   UNL     1      -9.021   6.192 131.473  0.00  0.00    +0.000 C 
BRANCH  14  16
ATOM     15  C   UNL     1     -10.226   7.518 129.727  0.00  0.00    +0.000 C 
ATOM     16  C   UNL     1      -9.962   6.114 130.263  0.00  0.00    +0.000 C 
BRANCH  16  17
ATOM     17  C   UNL     1     -11.224   5.345 130.615  0.00  0.00    +0.000 C 
ATOM     18  O   UNL     1     -11.611   4.367 129.974  0.00  0.00    +0.000 OA
BRANCH  17  19
ATOM     19  O   UNL     1     -11.942   5.804 131.656  0.00  0.00    +0.000 OA
ATOM     20  H   UNL     1     -12.332   5.137 132.248  0.00  0.00    +0.000 HD
ENDBRANCH  17  19
ENDBRANCH  16  17
ENDBRANCH  14  16
ENDBRANCH  10  14
ENDBRANCH   1  10
BRANCH   7  21
ATOM     21  N   UNL     1      -8.134   1.008 129.515  0.00  0.00    +0.000 N 
ATOM     22  H   UNL     1      -7.523   0.970 128.705  0.00  0.00    +0.000 HD
ATOM     23  H   UNL     1      -9.125   0.876 129.347  0.00  0.00    +0.000 HD
ENDBRANCH   7  21
TORSDOF 6
ENDMDL
MODEL 9
REMARK VINA RESULT:      -5.1      8.731     10.035
REMARK  Name = Iocetamic acid
REMARK  8 active torsions:
REMARK  status: ('A' for Active; 'I' for Inactive)
REMARK    1  A    between atoms: C_1  and  C_2
REMARK    2  A    between atoms: C_2  and  C_3
REMARK    3  A    between atoms: C_2  and  C_18
REMARK    4  A    between atoms: C_3  and  N_4
REMARK    5  A    between atoms: N_4  and  C_8
REMARK    6  A    between atoms: C_5  and  C_6
REMARK    7  A    between atoms: C_14  and  N_15
REMARK    8  A    between atoms: C_18  and  O_19
REMARK                            x       y       z     vdW  Elec       q    Type
REMARK                         _______ _______ _______ _____ _____    ______ ____
ROOT
ATOM      1  C   UNL     1      -6.156   5.015 132.862  0.00  0.00    +0.000 A 
ATOM      2  C   UNL     1      -5.462   4.700 131.658  0.00  0.00    +0.000 A 
ATOM      3  I   UNL     1      -6.231   3.834 129.866  0.00  0.00    +0.000 I 
ATOM      4  C   UNL     1      -4.108   5.045 131.484  0.00  0.00    +0.000 A 
ATOM      5  C   UNL     1      -3.408   5.713 132.483  0.00  0.00    +0.000 A 
ATOM      6  I   UNL     1      -1.426   6.272 132.065  0.00  0.00    +0.000 I 
ATOM      7  C   UNL     1      -4.004   5.977 133.719  0.00  0.00    +0.000 A 
ATOM      8  C   UNL     1      -5.366   5.604 133.898  0.00  0.00    +0.000 A 
ATOM      9  I   UNL     1      -6.079   5.774 135.970  0.00  0.00    +0.000 I 
ENDROOT
BRANCH   1  10
ATOM     10  N   UNL     1      -7.588   4.812 133.012  0.00  0.00    +0.000 N 
ATOM     11  C   UNL     1      -8.146   3.601 133.472  0.00  0.00    +0.000 C 
ATOM     12  C   UNL     1      -7.337   2.344 133.618  0.00  0.00    +0.000 C 
ATOM     13  O   UNL     1      -9.340   3.458 133.763  0.00  0.00    +0.000 OA
BRANCH  10  14
ATOM     14  C   UNL     1      -8.459   6.010 132.765  0.00  0.00    +0.000 C 
BRANCH  14  16
ATOM     15  C   UNL     1      -8.480   7.211 130.571  0.00  0.00    +0.000 C 
ATOM     16  C   UNL     1      -9.147   6.115 131.397  0.00  0.00    +0.000 C 
BRANCH  16  17
ATOM     17  C   UNL     1     -10.646   6.299 131.563  0.00  0.00    +0.000 C 
ATOM     18  O   UNL     1     -11.330   6.959 130.780  0.00  0.00    +0.000 OA
BRANCH  17  19
ATOM     19  O   UNL     1     -11.208   5.731 132.646  0.00  0.00    +0.000 OA
ATOM     20  H   UNL     1     -10.649   5.122 133.162  0.00  0.00    +0.000 HD
ENDBRANCH  17  19
ENDBRANCH  16  17
ENDBRANCH  14  16
ENDBRANCH  10  14
ENDBRANCH   1  10
BRANCH   7  21
ATOM     21  N   UNL     1      -3.333   6.755 134.672  0.00  0.00    +0.000 N 
ATOM     22  H   UNL     1      -3.829   6.983 135.529  0.00  0.00    +0.000 HD
ATOM     23  H   UNL     1      -2.663   7.438 134.336  0.00  0.00    +0.000 HD
ENDBRANCH   7  21
TORSDOF 6
ENDMDL
