MODEL 1
REMARK VINA RESULT:      -1.7      0.000      0.000
REMARK  Name = Iodine
REMARK  0 active torsions:
REMARK  status: ('A' for Active; 'I' for Inactive)
REMARK                            x       y       z     vdW  Elec       q    Type
REMARK                         _______ _______ _______ _____ _____    ______ ____
ROOT
ATOM      1  I   UNL     1     -13.376   7.280 128.087  0.00  0.00    +0.000 I 
ATOM      2  I   UNL     1     -10.866   8.135 128.115  0.00  0.00    +0.000 I 
ENDROOT
TORSDOF 0
ENDMDL
MODEL 2
REMARK VINA RESULT:      -1.7      0.104      2.652
REMARK  Name = Iodine
REMARK  0 active torsions:
REMARK  status: ('A' for Active; 'I' for Inactive)
REMARK                            x       y       z     vdW  Elec       q    Type
REMARK                         _______ _______ _______ _____ _____    ______ ____
ROOT
ATOM      1  I   UNL     1     -10.871   8.063 128.007  0.00  0.00    +0.000 I 
ATOM      2  I   UNL     1     -13.416   7.316 128.046  0.00  0.00    +0.000 I 
ENDROOT
TORSDOF 0
ENDMDL
MODEL 3
REMARK VINA RESULT:      -1.6      1.870      2.184
REMARK  Name = Iodine
REMARK  0 active torsions:
REMARK  status: ('A' for Active; 'I' for Inactive)
REMARK                            x       y       z     vdW  Elec       q    Type
REMARK                         _______ _______ _______ _____ _____    ______ ____
ROOT
ATOM      1  I   UNL     1     -13.371   7.288 128.067  0.00  0.00    +0.000 I 
ATOM      2  I   UNL     1     -12.530   7.308 130.582  0.00  0.00    +0.000 I 
ENDROOT
TORSDOF 0
ENDMDL
MODEL 4
REMARK VINA RESULT:      -1.6     12.702     12.726
REMARK  Name = Iodine
REMARK  0 active torsions:
REMARK  status: ('A' for Active; 'I' for Inactive)
REMARK                            x       y       z     vdW  Elec       q    Type
REMARK                         _______ _______ _______ _____ _____    ______ ____
ROOT
ATOM      1  I   UNL     1      -8.060  -3.368 124.553  0.00  0.00    +0.000 I 
ATOM      2  I   UNL     1      -5.492  -3.000 124.004  0.00  0.00    +0.000 I 
ENDROOT
TORSDOF 0
ENDMDL
MODEL 5
REMARK VINA RESULT:      -1.6     12.673     12.964
REMARK  Name = Iodine
REMARK  0 active torsions:
REMARK  status: ('A' for Active; 'I' for Inactive)
REMARK                            x       y       z     vdW  Elec       q    Type
REMARK                         _______ _______ _______ _____ _____    ______ ____
ROOT
ATOM      1  I   UNL     1      -5.477  -2.928 123.962  0.00  0.00    +0.000 I 
ATOM      2  I   UNL     1      -8.032  -3.342 124.540  0.00  0.00    +0.000 I 
ENDROOT
TORSDOF 0
ENDMDL
MODEL 6
REMARK VINA RESULT:      -1.5     11.721     11.753
REMARK  Name = Iodine
REMARK  0 active torsions:
REMARK  status: ('A' for Active; 'I' for Inactive)
REMARK                            x       y       z     vdW  Elec       q    Type
REMARK                         _______ _______ _______ _____ _____    ______ ____
ROOT
ATOM      1  I   UNL     1      -8.977  -2.940 123.737  0.00  0.00    +0.000 I 
ATOM      2  I   UNL     1      -8.724  -3.087 126.373  0.00  0.00    +0.000 I 
ENDROOT
TORSDOF 0
ENDMDL
MODEL 7
REMARK VINA RESULT:      -1.4      9.649     10.078
REMARK  Name = Iodine
REMARK  0 active torsions:
REMARK  status: ('A' for Active; 'I' for Inactive)
REMARK                            x       y       z     vdW  Elec       q    Type
REMARK                         _______ _______ _______ _____ _____    ______ ____
ROOT
ATOM      1  I   UNL     1      -2.711   6.078 128.459  0.00  0.00    +0.000 I 
ATOM      2  I   UNL     1      -2.649   3.714 127.258  0.00  0.00    +0.000 I 
ENDROOT
TORSDOF 0
ENDMDL
MODEL 8
REMARK VINA RESULT:      -1.4     11.019     11.368
REMARK  Name = Iodine
REMARK  0 active torsions:
REMARK  status: ('A' for Active; 'I' for Inactive)
REMARK                            x       y       z     vdW  Elec       q    Type
REMARK                         _______ _______ _______ _____ _____    ______ ____
ROOT
ATOM      1  I   UNL     1      -9.559   8.990 137.805  0.00  0.00    +0.000 I 
ATOM      2  I   UNL     1      -9.259  10.659 139.844  0.00  0.00    +0.000 I 
ENDROOT
TORSDOF 0
ENDMDL
MODEL 9
REMARK VINA RESULT:      -1.4      9.091      9.770
REMARK  Name = Iodine
REMARK  0 active torsions:
REMARK  status: ('A' for Active; 'I' for Inactive)
REMARK                            x       y       z     vdW  Elec       q    Type
REMARK                         _______ _______ _______ _____ _____    ______ ____
ROOT
ATOM      1  I   UNL     1      -5.617   3.829 120.992  0.00  0.00    +0.000 I 
ATOM      2  I   UNL     1      -7.153   2.868 122.928  0.00  0.00    +0.000 I 
ENDROOT
TORSDOF 0
ENDMDL
