MODEL 1
REMARK VINA RESULT:      -2.5      0.000      0.000
REMARK  Name = Iodoform
REMARK  0 active torsions:
REMARK  status: ('A' for Active; 'I' for Inactive)
REMARK                            x       y       z     vdW  Elec       q    Type
REMARK                         _______ _______ _______ _____ _____    ______ ____
ROOT
ATOM      1  C   UNL     1     -11.055   6.634 129.484  0.00  0.00    +0.000 C 
ATOM      2  I   UNL     1     -12.584   7.274 130.791  0.00  0.00    +0.000 I 
ATOM      3  I   UNL     1      -9.237   6.701 130.554  0.00  0.00    +0.000 I 
ATOM      4  I   UNL     1     -10.923   8.047 127.920  0.00  0.00    +0.000 I 
ENDROOT
TORSDOF 0
ENDMDL
MODEL 2
REMARK VINA RESULT:      -2.5      0.045      2.936
REMARK  Name = Iodoform
REMARK  0 active torsions:
REMARK  status: ('A' for Active; 'I' for Inactive)
REMARK                            x       y       z     vdW  Elec       q    Type
REMARK                         _______ _______ _______ _____ _____    ______ ____
ROOT
ATOM      1  C   UNL     1     -11.068   6.632 129.499  0.00  0.00    +0.000 C 
ATOM      2  I   UNL     1      -9.261   6.649 130.591  0.00  0.00    +0.000 I 
ATOM      3  I   UNL     1     -10.889   8.061 127.955  0.00  0.00    +0.000 I 
ATOM      4  I   UNL     1     -12.600   7.288 130.796  0.00  0.00    +0.000 I 
ENDROOT
TORSDOF 0
ENDMDL
MODEL 3
REMARK VINA RESULT:      -2.5      0.068      2.965
REMARK  Name = Iodoform
REMARK  0 active torsions:
REMARK  status: ('A' for Active; 'I' for Inactive)
REMARK                            x       y       z     vdW  Elec       q    Type
REMARK                         _______ _______ _______ _____ _____    ______ ____
ROOT
ATOM      1  C   UNL     1     -11.111   6.640 129.496  0.00  0.00    +0.000 C 
ATOM      2  I   UNL     1     -10.919   8.022 127.912  0.00  0.00    +0.000 I 
ATOM      3  I   UNL     1     -12.616   7.361 130.789  0.00  0.00    +0.000 I 
ATOM      4  I   UNL     1      -9.293   6.650 130.572  0.00  0.00    +0.000 I 
ENDROOT
TORSDOF 0
ENDMDL
MODEL 4
REMARK VINA RESULT:      -2.5     11.279     11.595
REMARK  Name = Iodoform
REMARK  0 active torsions:
REMARK  status: ('A' for Active; 'I' for Inactive)
REMARK                            x       y       z     vdW  Elec       q    Type
REMARK                         _______ _______ _______ _____ _____    ______ ____
ROOT
ATOM      1  C   UNL     1      -7.197  -1.900 123.093  0.00  0.00    +0.000 C 
ATOM      2  I   UNL     1      -8.920  -2.928 123.750  0.00  0.00    +0.000 I 
ATOM      3  I   UNL     1      -5.522  -2.858 123.950  0.00  0.00    +0.000 I 
ATOM      4  I   UNL     1      -7.283   0.056 123.885  0.00  0.00    +0.000 I 
ENDROOT
TORSDOF 0
ENDMDL
MODEL 5
REMARK VINA RESULT:      -2.5     11.266     11.843
REMARK  Name = Iodoform
REMARK  0 active torsions:
REMARK  status: ('A' for Active; 'I' for Inactive)
REMARK                            x       y       z     vdW  Elec       q    Type
REMARK                         _______ _______ _______ _____ _____    ______ ____
ROOT
ATOM      1  C   UNL     1      -7.197  -1.884 123.102  0.00  0.00    +0.000 C 
ATOM      2  I   UNL     1      -5.522  -2.854 123.945  0.00  0.00    +0.000 I 
ATOM      3  I   UNL     1      -7.277   0.064 123.913  0.00  0.00    +0.000 I 
ATOM      4  I   UNL     1      -8.922  -2.913 123.753  0.00  0.00    +0.000 I 
ENDROOT
TORSDOF 0
ENDMDL
MODEL 6
REMARK VINA RESULT:      -2.5     11.271     11.816
REMARK  Name = Iodoform
REMARK  0 active torsions:
REMARK  status: ('A' for Active; 'I' for Inactive)
REMARK                            x       y       z     vdW  Elec       q    Type
REMARK                         _______ _______ _______ _____ _____    ______ ____
ROOT
ATOM      1  C   UNL     1      -7.207  -1.883 123.083  0.00  0.00    +0.000 C 
ATOM      2  I   UNL     1      -7.293   0.071 123.877  0.00  0.00    +0.000 I 
ATOM      3  I   UNL     1      -8.932  -2.910 123.737  0.00  0.00    +0.000 I 
ATOM      4  I   UNL     1      -5.534  -2.845 123.941  0.00  0.00    +0.000 I 
ENDROOT
TORSDOF 0
ENDMDL
MODEL 7
REMARK VINA RESULT:      -2.4     11.406     12.144
REMARK  Name = Iodoform
REMARK  0 active torsions:
REMARK  status: ('A' for Active; 'I' for Inactive)
REMARK                            x       y       z     vdW  Elec       q    Type
REMARK                         _______ _______ _______ _____ _____    ______ ____
ROOT
ATOM      1  C   UNL     1      -7.543  -3.407 124.801  0.00  0.00    +0.000 C 
ATOM      2  I   UNL     1      -5.664  -2.812 124.043  0.00  0.00    +0.000 I 
ATOM      3  I   UNL     1      -9.015  -2.738 123.444  0.00  0.00    +0.000 I 
ATOM      4  I   UNL     1      -7.847  -2.382 126.622  0.00  0.00    +0.000 I 
ENDROOT
TORSDOF 0
ENDMDL
MODEL 8
REMARK VINA RESULT:      -2.4     11.455     11.785
REMARK  Name = Iodoform
REMARK  0 active torsions:
REMARK  status: ('A' for Active; 'I' for Inactive)
REMARK                            x       y       z     vdW  Elec       q    Type
REMARK                         _______ _______ _______ _____ _____    ______ ____
ROOT
ATOM      1  C   UNL     1      -7.735  -3.363 124.343  0.00  0.00    +0.000 C 
ATOM      2  I   UNL     1      -8.337  -2.885 126.309  0.00  0.00    +0.000 I 
ATOM      3  I   UNL     1      -5.671  -2.943 124.192  0.00  0.00    +0.000 I 
ATOM      4  I   UNL     1      -8.746  -2.052 123.033  0.00  0.00    +0.000 I 
ENDROOT
TORSDOF 0
ENDMDL
MODEL 9
REMARK VINA RESULT:      -2.4     11.116     11.645
REMARK  Name = Iodoform
REMARK  0 active torsions:
REMARK  status: ('A' for Active; 'I' for Inactive)
REMARK                            x       y       z     vdW  Elec       q    Type
REMARK                         _______ _______ _______ _____ _____    ______ ____
ROOT
ATOM      1  C   UNL     1      -7.443  -1.949 124.675  0.00  0.00    +0.000 C 
ATOM      2  I   UNL     1      -9.014  -2.908 123.639  0.00  0.00    +0.000 I 
ATOM      3  I   UNL     1      -5.643  -2.905 124.123  0.00  0.00    +0.000 I 
ATOM      4  I   UNL     1      -7.738  -2.294 126.737  0.00  0.00    +0.000 I 
ENDROOT
TORSDOF 0
ENDMDL
