MODEL 1
REMARK VINA RESULT:      -5.8      0.000      0.000
REMARK  Name = Iofetamine I-123
REMARK  7 active torsions:
REMARK  status: ('A' for Active; 'I' for Inactive)
REMARK    1  A    between atoms: C_1  and  C_2
REMARK    2  A    between atoms: C_2  and  C_3
REMARK    3  A    between atoms: C_2  and  N_4
REMARK    4  A    between atoms: N_4  and  C_5
REMARK    5  A    between atoms: C_5  and  C_6
REMARK    6  A    between atoms: C_5  and  C_7
REMARK    7  A    between atoms: C_7  and  C_8
REMARK                            x       y       z     vdW  Elec       q    Type
REMARK                         _______ _______ _______ _____ _____    ______ ____
ROOT
ATOM      1  C   UNL     1      -9.124  -3.356 125.599  0.00  0.00    +0.000 C 
ENDROOT
BRANCH   1   2
ATOM      2  C   UNL     1      -8.634  -2.896 126.969  0.00  0.00    +0.000 A 
ATOM      3  C   UNL     1      -8.685  -3.734 128.099  0.00  0.00    +0.000 A 
ATOM      4  C   UNL     1      -8.242  -3.321 129.346  0.00  0.00    +0.000 A 
ATOM      5  C   UNL     1      -7.720  -2.037 129.479  0.00  0.00    +0.000 A 
ATOM      6  I   UNL     1      -7.223  -1.353 131.371  0.00  0.00    +0.000 I 
ATOM      7  C   UNL     1      -7.587  -1.213 128.364  0.00  0.00    +0.000 A 
ATOM      8  C   UNL     1      -8.063  -1.624 127.115  0.00  0.00    +0.000 A 
ENDBRANCH   1   2
BRANCH   1   9
ATOM      9  C   UNL     1      -8.183  -2.890 124.457  0.00  0.00    +0.000 C 
ATOM     10  C   UNL     1      -9.034  -2.847 123.174  0.00  0.00    +0.000 C 
BRANCH   9  11
ATOM     11  N   UNL     1      -6.981  -3.740 124.326  0.00  0.00    +0.000 NA
ATOM     12  H   UNL     1      -6.710  -4.052 125.264  0.00  0.00    +0.000 HD
BRANCH  11  14
ATOM     13  C   UNL     1      -5.443  -1.855 124.599  0.00  0.00    +0.000 C 
ATOM     14  C   UNL     1      -5.813  -3.056 123.726  0.00  0.00    +0.000 C 
ATOM     15  C   UNL     1      -4.547  -3.910 123.626  0.00  0.00    +0.000 C 
ENDBRANCH  11  14
ENDBRANCH   9  11
ENDBRANCH   1   9
TORSDOF 4
ENDMDL
MODEL 2
REMARK VINA RESULT:      -5.7     10.241     11.511
REMARK  Name = Iofetamine I-123
REMARK  7 active torsions:
REMARK  status: ('A' for Active; 'I' for Inactive)
REMARK    1  A    between atoms: C_1  and  C_2
REMARK    2  A    between atoms: C_2  and  C_3
REMARK    3  A    between atoms: C_2  and  N_4
REMARK    4  A    between atoms: N_4  and  C_5
REMARK    5  A    between atoms: C_5  and  C_6
REMARK    6  A    between atoms: C_5  and  C_7
REMARK    7  A    between atoms: C_7  and  C_8
REMARK                            x       y       z     vdW  Elec       q    Type
REMARK                         _______ _______ _______ _____ _____    ______ ____
ROOT
ATOM      1  C   UNL     1      -9.703   8.132 129.110  0.00  0.00    +0.000 C 
ENDROOT
BRANCH   1   2
ATOM      2  C   UNL     1      -9.438   7.214 130.300  0.00  0.00    +0.000 A 
ATOM      3  C   UNL     1      -8.137   6.976 130.782  0.00  0.00    +0.000 A 
ATOM      4  C   UNL     1      -7.892   6.142 131.863  0.00  0.00    +0.000 A 
ATOM      5  C   UNL     1      -8.970   5.531 132.495  0.00  0.00    +0.000 A 
ATOM      6  I   UNL     1      -8.596   4.148 133.993  0.00  0.00    +0.000 I 
ATOM      7  C   UNL     1     -10.273   5.808 132.088  0.00  0.00    +0.000 A 
ATOM      8  C   UNL     1     -10.514   6.625 130.980  0.00  0.00    +0.000 A 
ENDBRANCH   1   2
BRANCH   1   9
ATOM      9  C   UNL     1     -10.909   7.652 128.260  0.00  0.00    +0.000 C 
ATOM     10  C   UNL     1     -10.324   6.953 127.019  0.00  0.00    +0.000 C 
BRANCH   9  11
ATOM     11  N   UNL     1     -11.840   8.750 127.922  0.00  0.00    +0.000 NA
ATOM     12  H   UNL     1     -11.371   9.637 128.129  0.00  0.00    +0.000 HD
BRANCH  11  14
ATOM     13  C   UNL     1     -13.523   7.270 128.907  0.00  0.00    +0.000 C 
ATOM     14  C   UNL     1     -13.111   8.727 128.681  0.00  0.00    +0.000 C 
ATOM     15  C   UNL     1     -13.045   9.366 130.069  0.00  0.00    +0.000 C 
ENDBRANCH  11  14
ENDBRANCH   9  11
ENDBRANCH   1   9
TORSDOF 4
ENDMDL
MODEL 3
REMARK VINA RESULT:      -5.6      9.542     11.228
REMARK  Name = Iofetamine I-123
REMARK  7 active torsions:
REMARK  status: ('A' for Active; 'I' for Inactive)
REMARK    1  A    between atoms: C_1  and  C_2
REMARK    2  A    between atoms: C_2  and  C_3
REMARK    3  A    between atoms: C_2  and  N_4
REMARK    4  A    between atoms: N_4  and  C_5
REMARK    5  A    between atoms: C_5  and  C_6
REMARK    6  A    between atoms: C_5  and  C_7
REMARK    7  A    between atoms: C_7  and  C_8
REMARK                            x       y       z     vdW  Elec       q    Type
REMARK                         _______ _______ _______ _____ _____    ______ ____
ROOT
ATOM      1  C   UNL     1     -12.870   7.301 130.966  0.00  0.00    +0.000 C 
ENDROOT
BRANCH   1   2
ATOM      2  C   UNL     1     -11.737   6.298 131.166  0.00  0.00    +0.000 A 
ATOM      3  C   UNL     1     -10.855   6.377 132.261  0.00  0.00    +0.000 A 
ATOM      4  C   UNL     1      -9.825   5.468 132.446  0.00  0.00    +0.000 A 
ATOM      5  C   UNL     1      -9.666   4.439 131.523  0.00  0.00    +0.000 A 
ATOM      6  I   UNL     1      -8.024   3.187 131.696  0.00  0.00    +0.000 I 
ATOM      7  C   UNL     1     -10.570   4.291 130.473  0.00  0.00    +0.000 A 
ATOM      8  C   UNL     1     -11.588   5.226 130.274  0.00  0.00    +0.000 A 
ENDBRANCH   1   2
BRANCH   1   9
ATOM      9  C   UNL     1     -12.493   8.410 129.948  0.00  0.00    +0.000 C 
ATOM     10  C   UNL     1     -13.177   9.703 130.431  0.00  0.00    +0.000 C 
BRANCH   9  11
ATOM     11  N   UNL     1     -12.849   8.051 128.559  0.00  0.00    +0.000 NA
ATOM     12  H   UNL     1     -13.071   7.051 128.537  0.00  0.00    +0.000 HD
BRANCH  11  14
ATOM     13  C   UNL     1     -10.429   8.317 128.305  0.00  0.00    +0.000 C 
ATOM     14  C   UNL     1     -11.772   8.293 127.572  0.00  0.00    +0.000 C 
ATOM     15  C   UNL     1     -11.641   7.224 126.486  0.00  0.00    +0.000 C 
ENDBRANCH  11  14
ENDBRANCH   9  11
ENDBRANCH   1   9
TORSDOF 4
ENDMDL
MODEL 4
REMARK VINA RESULT:      -5.6     10.651     11.291
REMARK  Name = Iofetamine I-123
REMARK  7 active torsions:
REMARK  status: ('A' for Active; 'I' for Inactive)
REMARK    1  A    between atoms: C_1  and  C_2
REMARK    2  A    between atoms: C_2  and  C_3
REMARK    3  A    between atoms: C_2  and  N_4
REMARK    4  A    between atoms: N_4  and  C_5
REMARK    5  A    between atoms: C_5  and  C_6
REMARK    6  A    between atoms: C_5  and  C_7
REMARK    7  A    between atoms: C_7  and  C_8
REMARK                            x       y       z     vdW  Elec       q    Type
REMARK                         _______ _______ _______ _____ _____    ______ ____
ROOT
ATOM      1  C   UNL     1     -11.210   6.219 131.631  0.00  0.00    +0.000 C 
ENDROOT
BRANCH   1   2
ATOM      2  C   UNL     1      -9.690   6.254 131.758  0.00  0.00    +0.000 A 
ATOM      3  C   UNL     1      -8.878   6.908 130.812  0.00  0.00    +0.000 A 
ATOM      4  C   UNL     1      -7.497   6.942 130.922  0.00  0.00    +0.000 A 
ATOM      5  C   UNL     1      -6.896   6.316 132.011  0.00  0.00    +0.000 A 
ATOM      6  I   UNL     1      -4.828   6.211 132.086  0.00  0.00    +0.000 I 
ATOM      7  C   UNL     1      -7.678   5.727 133.001  0.00  0.00    +0.000 A 
ATOM      8  C   UNL     1      -9.068   5.669 132.870  0.00  0.00    +0.000 A 
ENDBRANCH   1   2
BRANCH   1   9
ATOM      9  C   UNL     1     -11.734   7.255 130.602  0.00  0.00    +0.000 C 
ATOM     10  C   UNL     1     -12.993   7.892 131.219  0.00  0.00    +0.000 C 
BRANCH   9  11
ATOM     11  N   UNL     1     -11.977   6.662 129.270  0.00  0.00    +0.000 NA
ATOM     12  H   UNL     1     -11.182   6.057 129.043  0.00  0.00    +0.000 HD
BRANCH  11  14
ATOM     13  C   UNL     1     -10.754   8.314 127.940  0.00  0.00    +0.000 C 
ATOM     14  C   UNL     1     -12.113   7.653 128.178  0.00  0.00    +0.000 C 
ATOM     15  C   UNL     1     -12.540   7.070 126.829  0.00  0.00    +0.000 C 
ENDBRANCH  11  14
ENDBRANCH   9  11
ENDBRANCH   1   9
TORSDOF 4
ENDMDL
MODEL 5
REMARK VINA RESULT:      -5.5      8.497     10.754
REMARK  Name = Iofetamine I-123
REMARK  7 active torsions:
REMARK  status: ('A' for Active; 'I' for Inactive)
REMARK    1  A    between atoms: C_1  and  C_2
REMARK    2  A    between atoms: C_2  and  C_3
REMARK    3  A    between atoms: C_2  and  N_4
REMARK    4  A    between atoms: N_4  and  C_5
REMARK    5  A    between atoms: C_5  and  C_6
REMARK    6  A    between atoms: C_5  and  C_7
REMARK    7  A    between atoms: C_7  and  C_8
REMARK                            x       y       z     vdW  Elec       q    Type
REMARK                         _______ _______ _______ _____ _____    ______ ____
ROOT
ATOM      1  C   UNL     1      -8.832   5.901 132.816  0.00  0.00    +0.000 C 
ENDROOT
BRANCH   1   2
ATOM      2  C   UNL     1      -9.820   6.406 131.767  0.00  0.00    +0.000 A 
ATOM      3  C   UNL     1     -11.212   6.354 131.968  0.00  0.00    +0.000 A 
ATOM      4  C   UNL     1     -12.113   6.811 131.019  0.00  0.00    +0.000 A 
ATOM      5  C   UNL     1     -11.620   7.347 129.832  0.00  0.00    +0.000 A 
ATOM      6  I   UNL     1     -12.961   7.866 128.340  0.00  0.00    +0.000 I 
ATOM      7  C   UNL     1     -10.248   7.481 129.638  0.00  0.00    +0.000 A 
ATOM      8  C   UNL     1      -9.344   6.991 130.585  0.00  0.00    +0.000 A 
ENDBRANCH   1   2
BRANCH   1   9
ATOM      9  C   UNL     1      -8.911   4.362 132.997  0.00  0.00    +0.000 C 
ATOM     10  C   UNL     1      -8.478   4.066 134.446  0.00  0.00    +0.000 C 
BRANCH   9  11
ATOM     11  N   UNL     1      -8.112   3.629 131.993  0.00  0.00    +0.000 NA
ATOM     12  H   UNL     1      -7.717   4.314 131.342  0.00  0.00    +0.000 HD
BRANCH  11  14
ATOM     13  C   UNL     1      -9.837   1.897 132.133  0.00  0.00    +0.000 C 
ATOM     14  C   UNL     1      -8.885   2.646 131.199  0.00  0.00    +0.000 C 
ATOM     15  C   UNL     1      -9.762   3.252 130.101  0.00  0.00    +0.000 C 
ENDBRANCH  11  14
ENDBRANCH   9  11
ENDBRANCH   1   9
TORSDOF 4
ENDMDL
MODEL 6
REMARK VINA RESULT:      -5.5      3.744      5.542
REMARK  Name = Iofetamine I-123
REMARK  7 active torsions:
REMARK  status: ('A' for Active; 'I' for Inactive)
REMARK    1  A    between atoms: C_1  and  C_2
REMARK    2  A    between atoms: C_2  and  C_3
REMARK    3  A    between atoms: C_2  and  N_4
REMARK    4  A    between atoms: N_4  and  C_5
REMARK    5  A    between atoms: C_5  and  C_6
REMARK    6  A    between atoms: C_5  and  C_7
REMARK    7  A    between atoms: C_7  and  C_8
REMARK                            x       y       z     vdW  Elec       q    Type
REMARK                         _______ _______ _______ _____ _____    ______ ____
ROOT
ATOM      1  C   UNL     1      -7.066  -3.315 130.372  0.00  0.00    +0.000 C 
ENDROOT
BRANCH   1   2
ATOM      2  C   UNL     1      -7.505  -3.204 128.915  0.00  0.00    +0.000 A 
ATOM      3  C   UNL     1      -8.720  -3.750 128.458  0.00  0.00    +0.000 A 
ATOM      4  C   UNL     1      -9.123  -3.651 127.135  0.00  0.00    +0.000 A 
ATOM      5  C   UNL     1      -8.301  -2.981 126.234  0.00  0.00    +0.000 A 
ATOM      6  I   UNL     1      -8.811  -2.985 124.225  0.00  0.00    +0.000 I 
ATOM      7  C   UNL     1      -7.132  -2.365 126.672  0.00  0.00    +0.000 A 
ATOM      8  C   UNL     1      -6.715  -2.493 128.000  0.00  0.00    +0.000 A 
ENDBRANCH   1   2
BRANCH   1   9
ATOM      9  C   UNL     1      -5.588  -3.768 130.503  0.00  0.00    +0.000 C 
ATOM     10  C   UNL     1      -5.616  -5.242 130.947  0.00  0.00    +0.000 C 
BRANCH   9  11
ATOM     11  N   UNL     1      -4.806  -2.904 131.412  0.00  0.00    +0.000 NA
ATOM     12  H   UNL     1      -5.447  -2.220 131.827  0.00  0.00    +0.000 HD
BRANCH  11  14
ATOM     13  C   UNL     1      -3.255  -2.935 129.518  0.00  0.00    +0.000 C 
ATOM     14  C   UNL     1      -3.715  -2.153 130.751  0.00  0.00    +0.000 C 
ATOM     15  C   UNL     1      -4.103  -0.762 130.246  0.00  0.00    +0.000 C 
ENDBRANCH  11  14
ENDBRANCH   9  11
ENDBRANCH   1   9
TORSDOF 4
ENDMDL
MODEL 7
REMARK VINA RESULT:      -5.4      3.568      5.774
REMARK  Name = Iofetamine I-123
REMARK  7 active torsions:
REMARK  status: ('A' for Active; 'I' for Inactive)
REMARK    1  A    between atoms: C_1  and  C_2
REMARK    2  A    between atoms: C_2  and  C_3
REMARK    3  A    between atoms: C_2  and  N_4
REMARK    4  A    between atoms: N_4  and  C_5
REMARK    5  A    between atoms: C_5  and  C_6
REMARK    6  A    between atoms: C_5  and  C_7
REMARK    7  A    between atoms: C_7  and  C_8
REMARK                            x       y       z     vdW  Elec       q    Type
REMARK                         _______ _______ _______ _____ _____    ______ ____
ROOT
ATOM      1  C   UNL     1      -7.641  -1.810 130.802  0.00  0.00    +0.000 C 
ENDROOT
BRANCH   1   2
ATOM      2  C   UNL     1      -7.902  -2.154 129.338  0.00  0.00    +0.000 A 
ATOM      3  C   UNL     1      -7.529  -1.290 128.291  0.00  0.00    +0.000 A 
ATOM      4  C   UNL     1      -7.764  -1.599 126.961  0.00  0.00    +0.000 A 
ATOM      5  C   UNL     1      -8.381  -2.808 126.652  0.00  0.00    +0.000 A 
ATOM      6  I   UNL     1      -8.895  -3.193 124.682  0.00  0.00    +0.000 I 
ATOM      7  C   UNL     1      -8.692  -3.716 127.662  0.00  0.00    +0.000 A 
ATOM      8  C   UNL     1      -8.480  -3.387 129.004  0.00  0.00    +0.000 A 
ENDBRANCH   1   2
BRANCH   1   9
ATOM      9  C   UNL     1      -6.953  -2.975 131.562  0.00  0.00    +0.000 C 
ATOM     10  C   UNL     1      -7.588  -3.023 132.964  0.00  0.00    +0.000 C 
BRANCH   9  11
ATOM     11  N   UNL     1      -5.482  -2.842 131.596  0.00  0.00    +0.000 NA
ATOM     12  H   UNL     1      -5.240  -1.909 131.246  0.00  0.00    +0.000 HD
BRANCH  11  14
ATOM     13  C   UNL     1      -5.602  -5.108 130.677  0.00  0.00    +0.000 C 
ATOM     14  C   UNL     1      -4.761  -3.833 130.765  0.00  0.00    +0.000 C 
ATOM     15  C   UNL     1      -4.503  -3.398 129.321  0.00  0.00    +0.000 C 
ENDBRANCH  11  14
ENDBRANCH   9  11
ENDBRANCH   1   9
TORSDOF 4
ENDMDL
MODEL 8
REMARK VINA RESULT:      -5.3      1.916      2.729
REMARK  Name = Iofetamine I-123
REMARK  7 active torsions:
REMARK  status: ('A' for Active; 'I' for Inactive)
REMARK    1  A    between atoms: C_1  and  C_2
REMARK    2  A    between atoms: C_2  and  C_3
REMARK    3  A    between atoms: C_2  and  N_4
REMARK    4  A    between atoms: N_4  and  C_5
REMARK    5  A    between atoms: C_5  and  C_6
REMARK    6  A    between atoms: C_5  and  C_7
REMARK    7  A    between atoms: C_7  and  C_8
REMARK                            x       y       z     vdW  Elec       q    Type
REMARK                         _______ _______ _______ _____ _____    ______ ____
ROOT
ATOM      1  C   UNL     1      -8.033  -3.345 125.176  0.00  0.00    +0.000 C 
ENDROOT
BRANCH   1   2
ATOM      2  C   UNL     1      -7.841  -3.112 126.672  0.00  0.00    +0.000 A 
ATOM      3  C   UNL     1      -6.819  -2.281 127.171  0.00  0.00    +0.000 A 
ATOM      4  C   UNL     1      -6.641  -2.066 128.529  0.00  0.00    +0.000 A 
ATOM      5  C   UNL     1      -7.508  -2.685 129.425  0.00  0.00    +0.000 A 
ATOM      6  I   UNL     1      -7.136  -2.511 131.456  0.00  0.00    +0.000 I 
ATOM      7  C   UNL     1      -8.573  -3.450 128.956  0.00  0.00    +0.000 A 
ATOM      8  C   UNL     1      -8.731  -3.688 127.588  0.00  0.00    +0.000 A 
ENDBRANCH   1   2
BRANCH   1   9
ATOM      9  C   UNL     1      -9.358  -2.729 124.655  0.00  0.00    +0.000 C 
ATOM     10  C   UNL     1      -9.609  -3.336 123.262  0.00  0.00    +0.000 C 
BRANCH   9  11
ATOM     11  N   UNL     1      -9.334  -1.251 124.647  0.00  0.00    +0.000 NA
ATOM     12  H   UNL     1     -10.297  -0.918 124.758  0.00  0.00    +0.000 HD
BRANCH  11  14
ATOM     13  C   UNL     1      -9.703   0.498 122.974  0.00  0.00    +0.000 C 
ATOM     14  C   UNL     1      -8.795  -0.657 123.402  0.00  0.00    +0.000 C 
ATOM     15  C   UNL     1      -7.390  -0.065 123.526  0.00  0.00    +0.000 C 
ENDBRANCH  11  14
ENDBRANCH   9  11
ENDBRANCH   1   9
TORSDOF 4
ENDMDL
MODEL 9
REMARK VINA RESULT:      -5.3     10.255     11.287
REMARK  Name = Iofetamine I-123
REMARK  7 active torsions:
REMARK  status: ('A' for Active; 'I' for Inactive)
REMARK    1  A    between atoms: C_1  and  C_2
REMARK    2  A    between atoms: C_2  and  C_3
REMARK    3  A    between atoms: C_2  and  N_4
REMARK    4  A    between atoms: N_4  and  C_5
REMARK    5  A    between atoms: C_5  and  C_6
REMARK    6  A    between atoms: C_5  and  C_7
REMARK    7  A    between atoms: C_7  and  C_8
REMARK                            x       y       z     vdW  Elec       q    Type
REMARK                         _______ _______ _______ _____ _____    ______ ____
ROOT
ATOM      1  C   UNL     1      -9.169   5.961 132.844  0.00  0.00    +0.000 C 
ENDROOT
BRANCH   1   2
ATOM      2  C   UNL     1     -10.117   6.439 131.747  0.00  0.00    +0.000 A 
ATOM      3  C   UNL     1     -11.514   6.441 131.919  0.00  0.00    +0.000 A 
ATOM      4  C   UNL     1     -12.379   6.874 130.925  0.00  0.00    +0.000 A 
ATOM      5  C   UNL     1     -11.844   7.330 129.724  0.00  0.00    +0.000 A 
ATOM      6  I   UNL     1     -13.135   7.809 128.175  0.00  0.00    +0.000 I 
ATOM      7  C   UNL     1     -10.464   7.410 129.555  0.00  0.00    +0.000 A 
ATOM      8  C   UNL     1      -9.597   6.945 130.547  0.00  0.00    +0.000 A 
ENDBRANCH   1   2
BRANCH   1   9
ATOM      9  C   UNL     1      -8.561   4.569 132.523  0.00  0.00    +0.000 C 
ATOM     10  C   UNL     1      -8.948   3.641 133.689  0.00  0.00    +0.000 C 
BRANCH   9  11
ATOM     11  N   UNL     1      -7.104   4.626 132.287  0.00  0.00    +0.000 NA
ATOM     12  H   UNL     1      -6.656   3.946 132.910  0.00  0.00    +0.000 HD
BRANCH  11  14
ATOM     13  C   UNL     1      -5.328   5.766 133.528  0.00  0.00    +0.000 C 
ATOM     14  C   UNL     1      -6.494   5.948 132.554  0.00  0.00    +0.000 C 
ATOM     15  C   UNL     1      -5.911   6.649 131.325  0.00  0.00    +0.000 C 
ENDBRANCH  11  14
ENDBRANCH   9  11
ENDBRANCH   1   9
TORSDOF 4
ENDMDL
