MODEL 1
REMARK VINA RESULT:      -6.7      0.000      0.000
REMARK  Name = Ioflupane I-123
REMARK  7 active torsions:
REMARK  status: ('A' for Active; 'I' for Inactive)
REMARK    1  A    between atoms: C_7  and  C_17
REMARK    2  A    between atoms: C_8  and  C_10
REMARK    3  A    between atoms: C_17  and  O_19
REMARK    4  A    between atoms: O_19  and  C_20
REMARK    5  A    between atoms: N_21  and  C_22
REMARK    6  A    between atoms: C_22  and  C_23
REMARK    7  A    between atoms: C_23  and  C_24
REMARK                            x       y       z     vdW  Elec       q    Type
REMARK                         _______ _______ _______ _____ _____    ______ ____
ROOT
ATOM      1  C   UNL     1      -6.277  -2.676 124.885  0.00  0.00    +0.000 C 
ATOM      2  C   UNL     1      -5.608  -2.598 123.505  0.00  0.00    +0.000 C 
ATOM      3  C   UNL     1      -6.597  -1.796 122.641  0.00  0.00    +0.000 C 
ATOM      4  C   UNL     1      -7.782  -1.458 123.587  0.00  0.00    +0.000 C 
ATOM      5  C   UNL     1      -7.591  -0.101 124.337  0.00  0.00    +0.000 C 
ATOM      6  C   UNL     1      -6.240  -0.161 125.117  0.00  0.00    +0.000 C 
ATOM      7  C   UNL     1      -5.890  -1.482 125.811  0.00  0.00    +0.000 C 
ATOM      8  N   UNL     1      -7.703  -2.630 124.495  0.00  0.00    +0.000 NA
ENDROOT
BRANCH   6   9
ATOM      9  C   UNL     1      -5.870   1.162 125.744  0.00  0.00    +0.000 A 
ATOM     10  C   UNL     1      -5.836   2.436 125.152  0.00  0.00    +0.000 A 
ATOM     11  C   UNL     1      -5.017   3.428 125.712  0.00  0.00    +0.000 A 
ATOM     12  C   UNL     1      -4.377   3.190 126.928  0.00  0.00    +0.000 A 
ATOM     13  I   UNL     1      -3.036   4.535 127.745  0.00  0.00    +0.000 I 
ATOM     14  C   UNL     1      -4.577   1.999 127.607  0.00  0.00    +0.000 A 
ATOM     15  C   UNL     1      -5.281   0.990 126.998  0.00  0.00    +0.000 A 
ENDBRANCH   6   9
BRANCH   5  16
ATOM     16  C   UNL     1      -8.750   0.311 125.270  0.00  0.00    +0.000 C 
ATOM     17  O   UNL     1      -8.668   0.378 126.486  0.00  0.00    +0.000 OA
BRANCH  16  18
ATOM     18  O   UNL     1      -9.942   0.500 124.641  0.00  0.00    +0.000 OA
ATOM     19  C   UNL     1      -9.877   1.683 123.823  0.00  0.00    +0.000 C 
ENDBRANCH  16  18
ENDBRANCH   5  16
BRANCH   8  20
ATOM     20  C   UNL     1      -8.599  -2.504 125.636  0.00  0.00    +0.000 C 
BRANCH  20  21
ATOM     21  C   UNL     1      -8.697  -3.674 126.579  0.00  0.00    +0.000 C 
BRANCH  21  22
ATOM     22  C   UNL     1      -8.436  -3.153 127.985  0.00  0.00    +0.000 C 
ATOM     23  F   UNL     1      -9.243  -3.817 128.847  0.00  0.00    +0.000 F 
ENDBRANCH  21  22
ENDBRANCH  20  21
ENDBRANCH   8  20
TORSDOF 6
ENDMDL
MODEL 2
REMARK VINA RESULT:      -6.4      3.254      5.038
REMARK  Name = Ioflupane I-123
REMARK  7 active torsions:
REMARK  status: ('A' for Active; 'I' for Inactive)
REMARK    1  A    between atoms: C_7  and  C_17
REMARK    2  A    between atoms: C_8  and  C_10
REMARK    3  A    between atoms: C_17  and  O_19
REMARK    4  A    between atoms: O_19  and  C_20
REMARK    5  A    between atoms: N_21  and  C_22
REMARK    6  A    between atoms: C_22  and  C_23
REMARK    7  A    between atoms: C_23  and  C_24
REMARK                            x       y       z     vdW  Elec       q    Type
REMARK                         _______ _______ _______ _____ _____    ______ ____
ROOT
ATOM      1  C   UNL     1      -9.303  -2.338 124.902  0.00  0.00    +0.000 C 
ATOM      2  C   UNL     1      -8.522  -3.290 123.982  0.00  0.00    +0.000 C 
ATOM      3  C   UNL     1      -7.278  -2.489 123.564  0.00  0.00    +0.000 C 
ATOM      4  C   UNL     1      -7.419  -1.116 124.276  0.00  0.00    +0.000 C 
ATOM      5  C   UNL     1      -6.755  -1.095 125.691  0.00  0.00    +0.000 C 
ATOM      6  C   UNL     1      -7.383  -2.244 126.540  0.00  0.00    +0.000 C 
ATOM      7  C   UNL     1      -8.891  -2.476 126.400  0.00  0.00    +0.000 C 
ATOM      8  N   UNL     1      -8.901  -1.032 124.338  0.00  0.00    +0.000 NA
ENDROOT
BRANCH   6   9
ATOM      9  C   UNL     1      -6.695  -2.426 127.872  0.00  0.00    +0.000 A 
ATOM     10  C   UNL     1      -5.318  -2.464 128.152  0.00  0.00    +0.000 A 
ATOM     11  C   UNL     1      -4.874  -3.121 129.310  0.00  0.00    +0.000 A 
ATOM     12  C   UNL     1      -5.804  -3.584 130.240  0.00  0.00    +0.000 A 
ATOM     13  I   UNL     1      -5.244  -4.693 131.893  0.00  0.00    +0.000 I 
ATOM     14  C   UNL     1      -7.159  -3.363 130.051  0.00  0.00    +0.000 A 
ATOM     15  C   UNL     1      -7.591  -2.828 128.863  0.00  0.00    +0.000 A 
ENDBRANCH   6   9
BRANCH   5  16
ATOM     16  C   UNL     1      -6.832   0.253 126.440  0.00  0.00    +0.000 C 
ATOM     17  O   UNL     1      -7.431   0.426 127.489  0.00  0.00    +0.000 OA
BRANCH  16  18
ATOM     18  O   UNL     1      -6.259   1.298 125.784  0.00  0.00    +0.000 OA
ATOM     19  C   UNL     1      -5.006   1.634 126.407  0.00  0.00    +0.000 C 
ENDBRANCH  16  18
ENDBRANCH   5  16
BRANCH   8  20
ATOM     20  C   UNL     1      -9.355   0.095 125.140  0.00  0.00    +0.000 C 
BRANCH  20  21
ATOM     21  C   UNL     1      -9.988   1.255 124.418  0.00  0.00    +0.000 C 
BRANCH  21  22
ATOM     22  C   UNL     1      -9.767   1.044 122.927  0.00  0.00    +0.000 C 
ATOM     23  F   UNL     1     -10.874   0.462 122.406  0.00  0.00    +0.000 F 
ENDBRANCH  21  22
ENDBRANCH  20  21
ENDBRANCH   8  20
TORSDOF 6
ENDMDL
MODEL 3
REMARK VINA RESULT:      -6.4      2.733      3.981
REMARK  Name = Ioflupane I-123
REMARK  7 active torsions:
REMARK  status: ('A' for Active; 'I' for Inactive)
REMARK    1  A    between atoms: C_7  and  C_17
REMARK    2  A    between atoms: C_8  and  C_10
REMARK    3  A    between atoms: C_17  and  O_19
REMARK    4  A    between atoms: O_19  and  C_20
REMARK    5  A    between atoms: N_21  and  C_22
REMARK    6  A    between atoms: C_22  and  C_23
REMARK    7  A    between atoms: C_23  and  C_24
REMARK                            x       y       z     vdW  Elec       q    Type
REMARK                         _______ _______ _______ _____ _____    ______ ____
ROOT
ATOM      1  C   UNL     1      -7.548  -2.278 123.164  0.00  0.00    +0.000 C 
ATOM      2  C   UNL     1      -9.039  -2.643 123.193  0.00  0.00    +0.000 C 
ATOM      3  C   UNL     1      -9.271  -3.213 124.603  0.00  0.00    +0.000 C 
ATOM      4  C   UNL     1      -7.887  -3.137 125.304  0.00  0.00    +0.000 C 
ATOM      5  C   UNL     1      -7.664  -1.790 126.064  0.00  0.00    +0.000 C 
ATOM      6  C   UNL     1      -7.851  -0.621 125.046  0.00  0.00    +0.000 C 
ATOM      7  C   UNL     1      -7.276  -0.817 123.640  0.00  0.00    +0.000 C 
ATOM      8  N   UNL     1      -7.009  -3.275 124.114  0.00  0.00    +0.000 NA
ENDROOT
BRANCH   6   9
ATOM      9  C   UNL     1      -7.825   0.737 125.708  0.00  0.00    +0.000 A 
ATOM     10  C   UNL     1      -6.958   1.815 125.466  0.00  0.00    +0.000 A 
ATOM     11  C   UNL     1      -6.755   2.769 126.474  0.00  0.00    +0.000 A 
ATOM     12  C   UNL     1      -7.531   2.724 127.632  0.00  0.00    +0.000 A 
ATOM     13  I   UNL     1      -7.195   3.995 129.229  0.00  0.00    +0.000 I 
ATOM     14  C   UNL     1      -8.527   1.772 127.775  0.00  0.00    +0.000 A 
ATOM     15  C   UNL     1      -8.639   0.773 126.841  0.00  0.00    +0.000 A 
ENDBRANCH   6   9
BRANCH   5  16
ATOM     16  C   UNL     1      -6.319  -1.663 126.811  0.00  0.00    +0.000 C 
ATOM     17  O   UNL     1      -5.375  -0.993 126.424  0.00  0.00    +0.000 OA
BRANCH  16  18
ATOM     18  O   UNL     1      -6.208  -2.455 127.911  0.00  0.00    +0.000 OA
ATOM     19  C   UNL     1      -7.203  -2.081 128.882  0.00  0.00    +0.000 C 
ENDBRANCH  16  18
ENDBRANCH   5  16
BRANCH   8  20
ATOM     20  C   UNL     1      -5.607  -3.053 124.436  0.00  0.00    +0.000 C 
BRANCH  20  21
ATOM     21  C   UNL     1      -4.593  -3.308 123.351  0.00  0.00    +0.000 C 
BRANCH  21  22
ATOM     22  C   UNL     1      -3.882  -4.611 123.686  0.00  0.00    +0.000 C 
ATOM     23  F   UNL     1      -4.464  -5.612 122.982  0.00  0.00    +0.000 F 
ENDBRANCH  21  22
ENDBRANCH  20  21
ENDBRANCH   8  20
TORSDOF 6
ENDMDL
MODEL 4
REMARK VINA RESULT:      -6.0      6.245      8.356
REMARK  Name = Ioflupane I-123
REMARK  7 active torsions:
REMARK  status: ('A' for Active; 'I' for Inactive)
REMARK    1  A    between atoms: C_7  and  C_17
REMARK    2  A    between atoms: C_8  and  C_10
REMARK    3  A    between atoms: C_17  and  O_19
REMARK    4  A    between atoms: O_19  and  C_20
REMARK    5  A    between atoms: N_21  and  C_22
REMARK    6  A    between atoms: C_22  and  C_23
REMARK    7  A    between atoms: C_23  and  C_24
REMARK                            x       y       z     vdW  Elec       q    Type
REMARK                         _______ _______ _______ _____ _____    ______ ____
ROOT
ATOM      1  C   UNL     1      -8.461   5.607 133.462  0.00  0.00    +0.000 C 
ATOM      2  C   UNL     1      -8.320   4.393 134.393  0.00  0.00    +0.000 C 
ATOM      3  C   UNL     1      -8.805   3.201 133.550  0.00  0.00    +0.000 C 
ATOM      4  C   UNL     1      -9.196   3.807 132.175  0.00  0.00    +0.000 C 
ATOM      5  C   UNL     1      -8.007   3.829 131.161  0.00  0.00    +0.000 C 
ATOM      6  C   UNL     1      -6.826   4.612 131.813  0.00  0.00    +0.000 C 
ATOM      7  C   UNL     1      -7.177   5.869 132.617  0.00  0.00    +0.000 C 
ATOM      8  N   UNL     1      -9.594   5.167 132.619  0.00  0.00    +0.000 NA
ENDROOT
BRANCH   6   9
ATOM      9  C   UNL     1      -5.561   4.552 130.990  0.00  0.00    +0.000 A 
ATOM     10  C   UNL     1      -4.881   5.600 130.347  0.00  0.00    +0.000 A 
ATOM     11  C   UNL     1      -4.051   5.308 129.254  0.00  0.00    +0.000 A 
ATOM     12  C   UNL     1      -3.788   3.978 128.924  0.00  0.00    +0.000 A 
ATOM     13  I   UNL     1      -2.703   3.459 127.242  0.00  0.00    +0.000 I 
ATOM     14  C   UNL     1      -4.306   2.947 129.690  0.00  0.00    +0.000 A 
ATOM     15  C   UNL     1      -5.210   3.237 130.681  0.00  0.00    +0.000 A 
ENDBRANCH   6   9
BRANCH   5  16
ATOM     16  C   UNL     1      -8.338   4.390 129.762  0.00  0.00    +0.000 C 
ATOM     17  O   UNL     1      -8.059   5.518 129.386  0.00  0.00    +0.000 OA
BRANCH  16  18
ATOM     18  O   UNL     1      -9.079   3.559 128.980  0.00  0.00    +0.000 OA
ATOM     19  C   UNL     1      -8.383   2.312 128.799  0.00  0.00    +0.000 C 
ENDBRANCH  16  18
ENDBRANCH   5  16
BRANCH   8  20
ATOM     20  C   UNL     1      -9.846   6.061 131.498  0.00  0.00    +0.000 C 
BRANCH  20  21
ATOM     21  C   UNL     1     -11.263   6.524 131.279  0.00  0.00    +0.000 C 
BRANCH  21  22
ATOM     22  C   UNL     1     -11.756   5.895 129.984  0.00  0.00    +0.000 C 
ATOM     23  F   UNL     1     -11.717   4.547 130.118  0.00  0.00    +0.000 F 
ENDBRANCH  21  22
ENDBRANCH  20  21
ENDBRANCH   8  20
TORSDOF 6
ENDMDL
MODEL 5
REMARK VINA RESULT:      -6.0      1.752      2.812
REMARK  Name = Ioflupane I-123
REMARK  7 active torsions:
REMARK  status: ('A' for Active; 'I' for Inactive)
REMARK    1  A    between atoms: C_7  and  C_17
REMARK    2  A    between atoms: C_8  and  C_10
REMARK    3  A    between atoms: C_17  and  O_19
REMARK    4  A    between atoms: O_19  and  C_20
REMARK    5  A    between atoms: N_21  and  C_22
REMARK    6  A    between atoms: C_22  and  C_23
REMARK    7  A    between atoms: C_23  and  C_24
REMARK                            x       y       z     vdW  Elec       q    Type
REMARK                         _______ _______ _______ _____ _____    ______ ____
ROOT
ATOM      1  C   UNL     1      -8.649  -0.540 123.894  0.00  0.00    +0.000 C 
ATOM      2  C   UNL     1      -9.431   0.523 123.108  0.00  0.00    +0.000 C 
ATOM      3  C   UNL     1     -10.145   1.354 124.188  0.00  0.00    +0.000 C 
ATOM      4  C   UNL     1      -9.723   0.714 125.539  0.00  0.00    +0.000 C 
ATOM      5  C   UNL     1      -8.428   1.353 126.135  0.00  0.00    +0.000 C 
ATOM      6  C   UNL     1      -7.293   1.235 125.071  0.00  0.00    +0.000 C 
ATOM      7  C   UNL     1      -7.211  -0.071 124.274  0.00  0.00    +0.000 C 
ATOM      8  N   UNL     1      -9.514  -0.684 125.085  0.00  0.00    +0.000 NA
ENDROOT
BRANCH   6   9
ATOM      9  C   UNL     1      -6.037   1.972 125.474  0.00  0.00    +0.000 A 
ATOM     10  C   UNL     1      -4.868   1.460 126.062  0.00  0.00    +0.000 A 
ATOM     11  C   UNL     1      -4.044   2.318 126.804  0.00  0.00    +0.000 A 
ATOM     12  C   UNL     1      -4.306   3.688 126.815  0.00  0.00    +0.000 A 
ATOM     13  I   UNL     1      -3.235   5.001 128.001  0.00  0.00    +0.000 I 
ATOM     14  C   UNL     1      -5.347   4.212 126.067  0.00  0.00    +0.000 A 
ATOM     15  C   UNL     1      -6.220   3.355 125.441  0.00  0.00    +0.000 A 
ENDBRANCH   6   9
BRANCH   5  16
ATOM     16  C   UNL     1      -7.973   0.783 127.496  0.00  0.00    +0.000 C 
ATOM     17  O   UNL     1      -7.262  -0.200 127.630  0.00  0.00    +0.000 OA
BRANCH  16  18
ATOM     18  O   UNL     1      -8.516   1.403 128.578  0.00  0.00    +0.000 OA
ATOM     19  C   UNL     1      -7.804   2.626 128.846  0.00  0.00    +0.000 C 
ENDBRANCH  16  18
ENDBRANCH   5  16
BRANCH   8  20
ATOM     20  C   UNL     1      -8.920  -1.516 126.120  0.00  0.00    +0.000 C 
BRANCH  20  21
ATOM     21  C   UNL     1      -9.298  -2.974 126.147  0.00  0.00    +0.000 C 
BRANCH  21  22
ATOM     22  C   UNL     1      -8.728  -3.572 127.425  0.00  0.00    +0.000 C 
ATOM     23  F   UNL     1      -9.698  -4.300 128.029  0.00  0.00    +0.000 F 
ENDBRANCH  21  22
ENDBRANCH  20  21
ENDBRANCH   8  20
TORSDOF 6
ENDMDL
MODEL 6
REMARK VINA RESULT:      -5.9      3.470      5.438
REMARK  Name = Ioflupane I-123
REMARK  7 active torsions:
REMARK  status: ('A' for Active; 'I' for Inactive)
REMARK    1  A    between atoms: C_7  and  C_17
REMARK    2  A    between atoms: C_8  and  C_10
REMARK    3  A    between atoms: C_17  and  O_19
REMARK    4  A    between atoms: O_19  and  C_20
REMARK    5  A    between atoms: N_21  and  C_22
REMARK    6  A    between atoms: C_22  and  C_23
REMARK    7  A    between atoms: C_23  and  C_24
REMARK                            x       y       z     vdW  Elec       q    Type
REMARK                         _______ _______ _______ _____ _____    ______ ____
ROOT
ATOM      1  C   UNL     1      -5.964   0.821 126.361  0.00  0.00    +0.000 C 
ATOM      2  C   UNL     1      -6.662   1.926 127.168  0.00  0.00    +0.000 C 
ATOM      3  C   UNL     1      -8.163   1.619 127.025  0.00  0.00    +0.000 C 
ATOM      4  C   UNL     1      -8.235   0.345 126.139  0.00  0.00    +0.000 C 
ATOM      5  C   UNL     1      -8.212  -0.976 126.973  0.00  0.00    +0.000 C 
ATOM      6  C   UNL     1      -6.927  -0.971 127.859  0.00  0.00    +0.000 C 
ATOM      7  C   UNL     1      -5.639  -0.439 127.221  0.00  0.00    +0.000 C 
ATOM      8  N   UNL     1      -6.998   0.540 125.341  0.00  0.00    +0.000 NA
ENDROOT
BRANCH   6   9
ATOM      9  C   UNL     1      -6.886  -2.123 128.834  0.00  0.00    +0.000 A 
ATOM     10  C   UNL     1      -7.832  -2.483 129.809  0.00  0.00    +0.000 A 
ATOM     11  C   UNL     1      -7.418  -3.237 130.917  0.00  0.00    +0.000 A 
ATOM     12  C   UNL     1      -6.123  -3.752 130.956  0.00  0.00    +0.000 A 
ATOM     13  I   UNL     1      -5.385  -4.742 132.615  0.00  0.00    +0.000 I 
ATOM     14  C   UNL     1      -5.256  -3.560 129.892  0.00  0.00    +0.000 A 
ATOM     15  C   UNL     1      -5.627  -2.723 128.869  0.00  0.00    +0.000 A 
ENDBRANCH   6   9
BRANCH   5  16
ATOM     16  C   UNL     1      -8.314  -2.280 126.154  0.00  0.00    +0.000 C 
ATOM     17  O   UNL     1      -7.391  -3.059 125.978  0.00  0.00    +0.000 OA
BRANCH  16  18
ATOM     18  O   UNL     1      -9.510  -2.463 125.530  0.00  0.00    +0.000 OA
ATOM     19  C   UNL     1      -9.319  -3.241 124.334  0.00  0.00    +0.000 C 
ENDBRANCH  16  18
ENDBRANCH   5  16
BRANCH   8  20
ATOM     20  C   UNL     1      -6.684  -0.621 124.521  0.00  0.00    +0.000 C 
BRANCH  20  21
ATOM     21  C   UNL     1      -7.049  -0.563 123.061  0.00  0.00    +0.000 C 
BRANCH  21  22
ATOM     22  C   UNL     1      -6.436  -1.781 122.386  0.00  0.00    +0.000 C 
ATOM     23  F   UNL     1      -5.743  -2.484 123.314  0.00  0.00    +0.000 F 
ENDBRANCH  21  22
ENDBRANCH  20  21
ENDBRANCH   8  20
TORSDOF 6
ENDMDL
MODEL 7
REMARK VINA RESULT:      -5.8      5.248      7.606
REMARK  Name = Ioflupane I-123
REMARK  7 active torsions:
REMARK  status: ('A' for Active; 'I' for Inactive)
REMARK    1  A    between atoms: C_7  and  C_17
REMARK    2  A    between atoms: C_8  and  C_10
REMARK    3  A    between atoms: C_17  and  O_19
REMARK    4  A    between atoms: O_19  and  C_20
REMARK    5  A    between atoms: N_21  and  C_22
REMARK    6  A    between atoms: C_22  and  C_23
REMARK    7  A    between atoms: C_23  and  C_24
REMARK                            x       y       z     vdW  Elec       q    Type
REMARK                         _______ _______ _______ _____ _____    ______ ____
ROOT
ATOM      1  C   UNL     1      -4.398  -3.383 131.401  0.00  0.00    +0.000 C 
ATOM      2  C   UNL     1      -4.761  -4.801 131.866  0.00  0.00    +0.000 C 
ATOM      3  C   UNL     1      -6.055  -4.622 132.679  0.00  0.00    +0.000 C 
ATOM      4  C   UNL     1      -6.359  -3.099 132.629  0.00  0.00    +0.000 C 
ATOM      5  C   UNL     1      -7.260  -2.701 131.416  0.00  0.00    +0.000 C 
ATOM      6  C   UNL     1      -6.559  -3.184 130.108  0.00  0.00    +0.000 C 
ATOM      7  C   UNL     1      -5.038  -3.018 130.026  0.00  0.00    +0.000 C 
ATOM      8  N   UNL     1      -4.972  -2.583 132.505  0.00  0.00    +0.000 NA
ENDROOT
BRANCH   6   9
ATOM      9  C   UNL     1      -7.422  -3.002 128.882  0.00  0.00    +0.000 A 
ATOM     10  C   UNL     1      -8.656  -3.603 128.580  0.00  0.00    +0.000 A 
ATOM     11  C   UNL     1      -9.053  -3.712 127.239  0.00  0.00    +0.000 A 
ATOM     12  C   UNL     1      -8.302  -3.085 126.244  0.00  0.00    +0.000 A 
ATOM     13  I   UNL     1      -8.728  -3.321 124.235  0.00  0.00    +0.000 I 
ATOM     14  C   UNL     1      -7.193  -2.324 126.574  0.00  0.00    +0.000 A 
ATOM     15  C   UNL     1      -6.743  -2.321 127.871  0.00  0.00    +0.000 A 
ENDBRANCH   6   9
BRANCH   5  16
ATOM     16  C   UNL     1      -7.628  -1.204 131.326  0.00  0.00    +0.000 C 
ATOM     17  O   UNL     1      -7.205  -0.439 130.474  0.00  0.00    +0.000 OA
BRANCH  16  18
ATOM     18  O   UNL     1      -8.396  -0.748 132.352  0.00  0.00    +0.000 OA
ATOM     19  C   UNL     1      -8.765   0.623 132.111  0.00  0.00    +0.000 C 
ENDBRANCH  16  18
ENDBRANCH   5  16
BRANCH   8  20
ATOM     20  C   UNL     1      -4.939  -1.152 132.245  0.00  0.00    +0.000 C 
BRANCH  20  21
ATOM     21  C   UNL     1      -3.606  -0.456 132.337  0.00  0.00    +0.000 C 
BRANCH  21  22
ATOM     22  C   UNL     1      -2.931  -0.928 133.617  0.00  0.00    +0.000 C 
ATOM     23  F   UNL     1      -1.678  -1.345 133.313  0.00  0.00    +0.000 F 
ENDBRANCH  21  22
ENDBRANCH  20  21
ENDBRANCH   8  20
TORSDOF 6
ENDMDL
MODEL 8
REMARK VINA RESULT:      -5.8      7.134      8.842
REMARK  Name = Ioflupane I-123
REMARK  7 active torsions:
REMARK  status: ('A' for Active; 'I' for Inactive)
REMARK    1  A    between atoms: C_7  and  C_17
REMARK    2  A    between atoms: C_8  and  C_10
REMARK    3  A    between atoms: C_17  and  O_19
REMARK    4  A    between atoms: O_19  and  C_20
REMARK    5  A    between atoms: N_21  and  C_22
REMARK    6  A    between atoms: C_22  and  C_23
REMARK    7  A    between atoms: C_23  and  C_24
REMARK                            x       y       z     vdW  Elec       q    Type
REMARK                         _______ _______ _______ _____ _____    ______ ____
ROOT
ATOM      1  C   UNL     1      -7.860   5.292 132.975  0.00  0.00    +0.000 C 
ATOM      2  C   UNL     1      -6.652   6.207 132.726  0.00  0.00    +0.000 C 
ATOM      3  C   UNL     1      -6.095   5.751 131.366  0.00  0.00    +0.000 C 
ATOM      4  C   UNL     1      -7.027   4.595 130.912  0.00  0.00    +0.000 C 
ATOM      5  C   UNL     1      -8.242   5.091 130.064  0.00  0.00    +0.000 C 
ATOM      6  C   UNL     1      -9.019   6.153 130.902  0.00  0.00    +0.000 C 
ATOM      7  C   UNL     1      -9.187   5.878 132.401  0.00  0.00    +0.000 C 
ATOM      8  N   UNL     1      -7.433   4.079 132.245  0.00  0.00    +0.000 NA
ENDROOT
BRANCH   6   9
ATOM      9  C   UNL     1     -10.118   6.828 130.115  0.00  0.00    +0.000 A 
ATOM     10  C   UNL     1     -10.029   7.508 128.889  0.00  0.00    +0.000 A 
ATOM     11  C   UNL     1     -11.000   8.468 128.568  0.00  0.00    +0.000 A 
ATOM     12  C   UNL     1     -12.119   8.618 129.387  0.00  0.00    +0.000 A 
ATOM     13  I   UNL     1     -13.518  10.108 129.072  0.00  0.00    +0.000 I 
ATOM     14  C   UNL     1     -12.298   7.800 130.490  0.00  0.00    +0.000 A 
ATOM     15  C   UNL     1     -11.289   6.948 130.864  0.00  0.00    +0.000 A 
ENDBRANCH   6   9
BRANCH   5  16
ATOM     16  C   UNL     1      -9.191   3.987 129.553  0.00  0.00    +0.000 C 
ATOM     17  O   UNL     1     -10.315   3.787 129.985  0.00  0.00    +0.000 OA
BRANCH  16  18
ATOM     18  O   UNL     1      -8.641   3.152 128.630  0.00  0.00    +0.000 OA
ATOM     19  C   UNL     1      -7.884   3.916 127.673  0.00  0.00    +0.000 C 
ENDBRANCH  16  18
ENDBRANCH   5  16
BRANCH   8  20
ATOM     20  C   UNL     1      -8.483   3.075 132.150  0.00  0.00    +0.000 C 
BRANCH  20  21
ATOM     21  C   UNL     1      -8.160   1.681 132.621  0.00  0.00    +0.000 C 
BRANCH  21  22
ATOM     22  C   UNL     1      -8.693   0.709 131.579  0.00  0.00    +0.000 C 
ATOM     23  F   UNL     1      -9.991   0.442 131.864  0.00  0.00    +0.000 F 
ENDBRANCH  21  22
ENDBRANCH  20  21
ENDBRANCH   8  20
TORSDOF 6
ENDMDL
MODEL 9
REMARK VINA RESULT:      -5.7      6.751      8.745
REMARK  Name = Ioflupane I-123
REMARK  7 active torsions:
REMARK  status: ('A' for Active; 'I' for Inactive)
REMARK    1  A    between atoms: C_7  and  C_17
REMARK    2  A    between atoms: C_8  and  C_10
REMARK    3  A    between atoms: C_17  and  O_19
REMARK    4  A    between atoms: O_19  and  C_20
REMARK    5  A    between atoms: N_21  and  C_22
REMARK    6  A    between atoms: C_22  and  C_23
REMARK    7  A    between atoms: C_23  and  C_24
REMARK                            x       y       z     vdW  Elec       q    Type
REMARK                         _______ _______ _______ _____ _____    ______ ____
ROOT
ATOM      1  C   UNL     1      -9.342   5.138 132.987  0.00  0.00    +0.000 C 
ATOM      2  C   UNL     1      -9.178   3.927 133.917  0.00  0.00    +0.000 C 
ATOM      3  C   UNL     1      -9.058   2.723 132.968  0.00  0.00    +0.000 C 
ATOM      4  C   UNL     1      -9.158   3.321 131.538  0.00  0.00    +0.000 C 
ATOM      5  C   UNL     1      -7.767   3.717 130.947  0.00  0.00    +0.000 C 
ATOM      6  C   UNL     1      -7.085   4.715 131.934  0.00  0.00    +0.000 C 
ATOM      7  C   UNL     1      -7.977   5.777 132.585  0.00  0.00    +0.000 C 
ATOM      8  N   UNL     1     -10.012   4.500 131.833  0.00  0.00    +0.000 NA
ENDROOT
BRANCH   6   9
ATOM      9  C   UNL     1      -5.661   5.036 131.548  0.00  0.00    +0.000 A 
ATOM     10  C   UNL     1      -4.627   4.152 131.191  0.00  0.00    +0.000 A 
ATOM     11  C   UNL     1      -3.295   4.560 131.352  0.00  0.00    +0.000 A 
ATOM     12  C   UNL     1      -3.014   5.879 131.707  0.00  0.00    +0.000 A 
ATOM     13  I   UNL     1      -1.091   6.522 132.112  0.00  0.00    +0.000 I 
ATOM     14  C   UNL     1      -4.038   6.799 131.862  0.00  0.00    +0.000 A 
ATOM     15  C   UNL     1      -5.340   6.366 131.821  0.00  0.00    +0.000 A 
ENDBRANCH   6   9
BRANCH   5  16
ATOM     16  C   UNL     1      -7.794   4.289 129.513  0.00  0.00    +0.000 C 
ATOM     17  O   UNL     1      -7.381   5.395 129.203  0.00  0.00    +0.000 OA
BRANCH  16  18
ATOM     18  O   UNL     1      -8.422   3.499 128.601  0.00  0.00    +0.000 OA
ATOM     19  C   UNL     1      -7.580   3.324 127.447  0.00  0.00    +0.000 C 
ENDBRANCH  16  18
ENDBRANCH   5  16
BRANCH   8  20
ATOM     20  C   UNL     1     -10.136   5.390 130.687  0.00  0.00    +0.000 C 
BRANCH  20  21
ATOM     21  C   UNL     1     -10.906   6.670 130.878  0.00  0.00    +0.000 C 
BRANCH  21  22
ATOM     22  C   UNL     1     -10.554   7.594 129.721  0.00  0.00    +0.000 C 
ATOM     23  F   UNL     1     -11.556   8.493 129.569  0.00  0.00    +0.000 F 
ENDBRANCH  21  22
ENDBRANCH  20  21
ENDBRANCH   8  20
TORSDOF 6
ENDMDL
