MODEL 1
REMARK VINA RESULT:      -5.4      0.000      0.000
REMARK  Name = Iopanoic acid
REMARK  7 active torsions:
REMARK  status: ('A' for Active; 'I' for Inactive)
REMARK    1  A    between atoms: C_1  and  C_2
REMARK    2  A    between atoms: C_2  and  C_3
REMARK    3  A    between atoms: C_3  and  C_4
REMARK    4  A    between atoms: C_3  and  C_15
REMARK    5  A    between atoms: C_4  and  C_5
REMARK    6  A    between atoms: C_8  and  N_9
REMARK    7  A    between atoms: C_15  and  O_16
REMARK                            x       y       z     vdW  Elec       q    Type
REMARK                         _______ _______ _______ _____ _____    ______ ____
ROOT
ATOM      1  C   UNL     1      -7.499  -0.476 125.439  0.00  0.00    +0.000 A 
ATOM      2  C   UNL     1      -6.641  -0.129 126.518  0.00  0.00    +0.000 A 
ATOM      3  I   UNL     1      -5.375   1.606 126.427  0.00  0.00    +0.000 I 
ATOM      4  C   UNL     1      -6.491  -0.962 127.666  0.00  0.00    +0.000 A 
ATOM      5  C   UNL     1      -7.414  -2.000 127.832  0.00  0.00    +0.000 A 
ATOM      6  I   UNL     1      -7.560  -3.102 129.614  0.00  0.00    +0.000 I 
ATOM      7  C   UNL     1      -8.187  -2.412 126.756  0.00  0.00    +0.000 A 
ATOM      8  C   UNL     1      -8.025  -1.789 125.506  0.00  0.00    +0.000 A 
ATOM      9  I   UNL     1      -8.922  -2.873 123.843  0.00  0.00    +0.000 I 
ENDROOT
BRANCH   4  10
ATOM     10  N   UNL     1      -5.599  -0.632 128.706  0.00  0.00    +0.000 N 
ATOM     11  H   UNL     1      -4.906   0.062 128.434  0.00  0.00    +0.000 HD
ATOM     12  H   UNL     1      -5.192  -1.441 129.170  0.00  0.00    +0.000 HD
ENDBRANCH   4  10
BRANCH   1  13
ATOM     13  C   UNL     1      -7.923   0.534 124.353  0.00  0.00    +0.000 C 
BRANCH  13  14
ATOM     14  C   UNL     1      -9.106   1.564 124.603  0.00  0.00    +0.000 C 
BRANCH  14  16
ATOM     15  C   UNL     1     -10.193   0.640 122.497  0.00  0.00    +0.000 C 
ATOM     16  C   UNL     1     -10.409   1.329 123.819  0.00  0.00    +0.000 C 
ENDBRANCH  14  16
BRANCH  14  17
ATOM     17  C   UNL     1      -8.562   2.983 124.337  0.00  0.00    +0.000 C 
ATOM     18  O   UNL     1      -7.814   3.236 123.420  0.00  0.00    +0.000 OA
BRANCH  17  19
ATOM     19  O   UNL     1      -8.977   3.971 125.170  0.00  0.00    +0.000 OA
ATOM     20  H   UNL     1      -8.815   3.894 126.125  0.00  0.00    +0.000 HD
ENDBRANCH  17  19
ENDBRANCH  14  17
ENDBRANCH  13  14
ENDBRANCH   1  13
TORSDOF 6
ENDMDL
MODEL 2
REMARK VINA RESULT:      -5.4      2.228      2.759
REMARK  Name = Iopanoic acid
REMARK  7 active torsions:
REMARK  status: ('A' for Active; 'I' for Inactive)
REMARK    1  A    between atoms: C_1  and  C_2
REMARK    2  A    between atoms: C_2  and  C_3
REMARK    3  A    between atoms: C_3  and  C_4
REMARK    4  A    between atoms: C_3  and  C_15
REMARK    5  A    between atoms: C_4  and  C_5
REMARK    6  A    between atoms: C_8  and  N_9
REMARK    7  A    between atoms: C_15  and  O_16
REMARK                            x       y       z     vdW  Elec       q    Type
REMARK                         _______ _______ _______ _____ _____    ______ ____
ROOT
ATOM      1  C   UNL     1      -6.407  -0.468 124.891  0.00  0.00    +0.000 A 
ATOM      2  C   UNL     1      -6.298   0.487 125.939  0.00  0.00    +0.000 A 
ATOM      3  I   UNL     1      -6.814   2.551 125.632  0.00  0.00    +0.000 I 
ATOM      4  C   UNL     1      -5.742   0.156 127.210  0.00  0.00    +0.000 A 
ATOM      5  C   UNL     1      -5.554  -1.201 127.497  0.00  0.00    +0.000 A 
ATOM      6  I   UNL     1      -5.076  -1.888 129.423  0.00  0.00    +0.000 I 
ATOM      7  C   UNL     1      -5.561  -2.129 126.466  0.00  0.00    +0.000 A 
ATOM      8  C   UNL     1      -5.745  -1.693 125.141  0.00  0.00    +0.000 A 
ATOM      9  I   UNL     1      -5.227  -3.177 123.632  0.00  0.00    +0.000 I 
ENDROOT
BRANCH   4  10
ATOM     10  N   UNL     1      -5.592   1.123 128.224  0.00  0.00    +0.000 N 
ATOM     11  H   UNL     1      -5.407   2.057 127.863  0.00  0.00    +0.000 HD
ATOM     12  H   UNL     1      -4.950   0.847 128.964  0.00  0.00    +0.000 HD
ENDBRANCH   4  10
BRANCH   1  13
ATOM     13  C   UNL     1      -7.280  -0.236 123.640  0.00  0.00    +0.000 C 
BRANCH  13  14
ATOM     14  C   UNL     1      -8.781  -0.747 123.577  0.00  0.00    +0.000 C 
BRANCH  14  16
ATOM     15  C   UNL     1      -9.331  -3.215 123.852  0.00  0.00    +0.000 C 
ATOM     16  C   UNL     1      -9.027  -2.100 122.886  0.00  0.00    +0.000 C 
ENDBRANCH  14  16
BRANCH  14  17
ATOM     17  C   UNL     1      -9.631   0.360 122.918  0.00  0.00    +0.000 C 
ATOM     18  O   UNL     1     -10.754   0.166 122.510  0.00  0.00    +0.000 OA
BRANCH  17  19
ATOM     19  O   UNL     1      -9.077   1.596 122.829  0.00  0.00    +0.000 OA
ATOM     20  H   UNL     1      -9.064   2.174 123.610  0.00  0.00    +0.000 HD
ENDBRANCH  17  19
ENDBRANCH  14  17
ENDBRANCH  13  14
ENDBRANCH   1  13
TORSDOF 6
ENDMDL
MODEL 3
REMARK VINA RESULT:      -5.3      3.082      4.318
REMARK  Name = Iopanoic acid
REMARK  7 active torsions:
REMARK  status: ('A' for Active; 'I' for Inactive)
REMARK    1  A    between atoms: C_1  and  C_2
REMARK    2  A    between atoms: C_2  and  C_3
REMARK    3  A    between atoms: C_3  and  C_4
REMARK    4  A    between atoms: C_3  and  C_15
REMARK    5  A    between atoms: C_4  and  C_5
REMARK    6  A    between atoms: C_8  and  N_9
REMARK    7  A    between atoms: C_15  and  O_16
REMARK                            x       y       z     vdW  Elec       q    Type
REMARK                         _______ _______ _______ _____ _____    ______ ____
ROOT
ATOM      1  C   UNL     1      -7.418   1.156 124.827  0.00  0.00    +0.000 A 
ATOM      2  C   UNL     1      -8.033   0.243 123.927  0.00  0.00    +0.000 A 
ATOM      3  I   UNL     1      -9.853   0.743 122.898  0.00  0.00    +0.000 I 
ATOM      4  C   UNL     1      -7.544  -1.083 123.739  0.00  0.00    +0.000 A 
ATOM      5  C   UNL     1      -6.279  -1.382 124.259  0.00  0.00    +0.000 A 
ATOM      6  I   UNL     1      -5.260  -3.156 123.788  0.00  0.00    +0.000 I 
ATOM      7  C   UNL     1      -5.714  -0.548 125.213  0.00  0.00    +0.000 A 
ATOM      8  C   UNL     1      -6.423   0.582 125.655  0.00  0.00    +0.000 A 
ATOM      9  I   UNL     1      -5.636   1.473 127.481  0.00  0.00    +0.000 I 
ENDROOT
BRANCH   4  10
ATOM     10  N   UNL     1      -8.192  -1.994 122.882  0.00  0.00    +0.000 N 
ATOM     11  H   UNL     1      -9.170  -1.764 122.718  0.00  0.00    +0.000 HD
ATOM     12  H   UNL     1      -8.049  -2.970 123.135  0.00  0.00    +0.000 HD
ENDBRANCH   4  10
BRANCH   1  13
ATOM     13  C   UNL     1      -7.717   2.669 124.816  0.00  0.00    +0.000 C 
BRANCH  13  14
ATOM     14  C   UNL     1      -6.994   3.644 123.794  0.00  0.00    +0.000 C 
BRANCH  14  16
ATOM     15  C   UNL     1      -5.923   3.964 121.509  0.00  0.00    +0.000 C 
ATOM     16  C   UNL     1      -6.265   2.991 122.607  0.00  0.00    +0.000 C 
ENDBRANCH  14  16
BRANCH  14  17
ATOM     17  C   UNL     1      -6.027   4.539 124.597  0.00  0.00    +0.000 C 
ATOM     18  O   UNL     1      -4.917   4.179 124.919  0.00  0.00    +0.000 OA
BRANCH  17  19
ATOM     19  O   UNL     1      -6.459   5.785 124.919  0.00  0.00    +0.000 OA
ATOM     20  H   UNL     1      -5.968   6.561 124.602  0.00  0.00    +0.000 HD
ENDBRANCH  17  19
ENDBRANCH  14  17
ENDBRANCH  13  14
ENDBRANCH   1  13
TORSDOF 6
ENDMDL
MODEL 4
REMARK VINA RESULT:      -5.3      3.320      4.774
REMARK  Name = Iopanoic acid
REMARK  7 active torsions:
REMARK  status: ('A' for Active; 'I' for Inactive)
REMARK    1  A    between atoms: C_1  and  C_2
REMARK    2  A    between atoms: C_2  and  C_3
REMARK    3  A    between atoms: C_3  and  C_4
REMARK    4  A    between atoms: C_3  and  C_15
REMARK    5  A    between atoms: C_4  and  C_5
REMARK    6  A    between atoms: C_8  and  N_9
REMARK    7  A    between atoms: C_15  and  O_16
REMARK                            x       y       z     vdW  Elec       q    Type
REMARK                         _______ _______ _______ _____ _____    ______ ____
ROOT
ATOM      1  C   UNL     1      -6.559   1.350 125.598  0.00  0.00    +0.000 A 
ATOM      2  C   UNL     1      -7.195   0.809 124.447  0.00  0.00    +0.000 A 
ATOM      3  I   UNL     1      -8.593   1.964 123.294  0.00  0.00    +0.000 I 
ATOM      4  C   UNL     1      -7.027  -0.553 124.058  0.00  0.00    +0.000 A 
ATOM      5  C   UNL     1      -6.005  -1.279 124.681  0.00  0.00    +0.000 A 
ATOM      6  I   UNL     1      -5.391  -3.168 124.001  0.00  0.00    +0.000 I 
ATOM      7  C   UNL     1      -5.446  -0.806 125.860  0.00  0.00    +0.000 A 
ATOM      8  C   UNL     1      -5.922   0.391 126.423  0.00  0.00    +0.000 A 
ATOM      9  I   UNL     1      -5.311   0.714 128.489  0.00  0.00    +0.000 I 
ENDROOT
BRANCH   4  10
ATOM     10  N   UNL     1      -7.702  -1.091 122.945  0.00  0.00    +0.000 N 
ATOM     11  H   UNL     1      -7.995  -0.384 122.274  0.00  0.00    +0.000 HD
ATOM     12  H   UNL     1      -8.446  -1.742 123.190  0.00  0.00    +0.000 HD
ENDBRANCH   4  10
BRANCH   1  13
ATOM     13  C   UNL     1      -6.462   2.867 125.861  0.00  0.00    +0.000 C 
BRANCH  13  14
ATOM     14  C   UNL     1      -5.218   3.712 125.355  0.00  0.00    +0.000 C 
BRANCH  14  16
ATOM     15  C   UNL     1      -3.018   3.595 126.626  0.00  0.00    +0.000 C 
ATOM     16  C   UNL     1      -4.315   4.335 126.434  0.00  0.00    +0.000 C 
ENDBRANCH  14  16
BRANCH  14  17
ATOM     17  C   UNL     1      -5.743   4.800 124.394  0.00  0.00    +0.000 C 
ATOM     18  O   UNL     1      -5.593   4.740 123.195  0.00  0.00    +0.000 OA
BRANCH  17  19
ATOM     19  O   UNL     1      -6.417   5.841 124.946  0.00  0.00    +0.000 OA
ATOM     20  H   UNL     1      -7.157   5.667 125.552  0.00  0.00    +0.000 HD
ENDBRANCH  17  19
ENDBRANCH  14  17
ENDBRANCH  13  14
ENDBRANCH   1  13
TORSDOF 6
ENDMDL
MODEL 5
REMARK VINA RESULT:      -5.2      2.881      4.622
REMARK  Name = Iopanoic acid
REMARK  7 active torsions:
REMARK  status: ('A' for Active; 'I' for Inactive)
REMARK    1  A    between atoms: C_1  and  C_2
REMARK    2  A    between atoms: C_2  and  C_3
REMARK    3  A    between atoms: C_3  and  C_4
REMARK    4  A    between atoms: C_3  and  C_15
REMARK    5  A    between atoms: C_4  and  C_5
REMARK    6  A    between atoms: C_8  and  N_9
REMARK    7  A    between atoms: C_15  and  O_16
REMARK                            x       y       z     vdW  Elec       q    Type
REMARK                         _______ _______ _______ _____ _____    ______ ____
ROOT
ATOM      1  C   UNL     1      -7.577  -0.709 126.290  0.00  0.00    +0.000 A 
ATOM      2  C   UNL     1      -6.598  -0.760 127.320  0.00  0.00    +0.000 A 
ATOM      3  I   UNL     1      -6.504  -2.412 128.693  0.00  0.00    +0.000 I 
ATOM      4  C   UNL     1      -5.701   0.320 127.569  0.00  0.00    +0.000 A 
ATOM      5  C   UNL     1      -5.623   1.328 126.600  0.00  0.00    +0.000 A 
ATOM      6  I   UNL     1      -4.128   2.802 126.627  0.00  0.00    +0.000 I 
ATOM      7  C   UNL     1      -6.627   1.446 125.649  0.00  0.00    +0.000 A 
ATOM      8  C   UNL     1      -7.718   0.559 125.677  0.00  0.00    +0.000 A 
ATOM      9  I   UNL     1      -9.415   1.191 124.466  0.00  0.00    +0.000 I 
ENDROOT
BRANCH   4  10
ATOM     10  N   UNL     1      -4.770   0.278 128.625  0.00  0.00    +0.000 N 
ATOM     11  H   UNL     1      -5.203   0.348 129.544  0.00  0.00    +0.000 HD
ATOM     12  H   UNL     1      -3.983   0.914 128.506  0.00  0.00    +0.000 HD
ENDBRANCH   4  10
BRANCH   1  13
ATOM     13  C   UNL     1      -8.331  -1.960 125.793  0.00  0.00    +0.000 C 
BRANCH  13  14
ATOM     14  C   UNL     1      -7.808  -2.798 124.551  0.00  0.00    +0.000 C 
BRANCH  14  16
ATOM     15  C   UNL     1      -5.445  -3.633 124.116  0.00  0.00    +0.000 C 
ATOM     16  C   UNL     1      -6.397  -2.469 124.035  0.00  0.00    +0.000 C 
ENDBRANCH  14  16
BRANCH  14  17
ATOM     17  C   UNL     1      -8.845  -2.663 123.417  0.00  0.00    +0.000 C 
ATOM     18  O   UNL     1      -8.643  -2.006 122.421  0.00  0.00    +0.000 OA
BRANCH  17  19
ATOM     19  O   UNL     1     -10.012  -3.341 123.561  0.00  0.00    +0.000 OA
ATOM     20  H   UNL     1     -10.001  -4.248 123.911  0.00  0.00    +0.000 HD
ENDBRANCH  17  19
ENDBRANCH  14  17
ENDBRANCH  13  14
ENDBRANCH   1  13
TORSDOF 6
ENDMDL
MODEL 6
REMARK VINA RESULT:      -5.2      1.815      2.205
REMARK  Name = Iopanoic acid
REMARK  7 active torsions:
REMARK  status: ('A' for Active; 'I' for Inactive)
REMARK    1  A    between atoms: C_1  and  C_2
REMARK    2  A    between atoms: C_2  and  C_3
REMARK    3  A    between atoms: C_3  and  C_4
REMARK    4  A    between atoms: C_3  and  C_15
REMARK    5  A    between atoms: C_4  and  C_5
REMARK    6  A    between atoms: C_8  and  N_9
REMARK    7  A    between atoms: C_15  and  O_16
REMARK                            x       y       z     vdW  Elec       q    Type
REMARK                         _______ _______ _______ _____ _____    ______ ____
ROOT
ATOM      1  C   UNL     1      -8.627  -0.307 126.442  0.00  0.00    +0.000 A 
ATOM      2  C   UNL     1      -7.939   0.197 127.580  0.00  0.00    +0.000 A 
ATOM      3  I   UNL     1      -7.745   2.310 127.925  0.00  0.00    +0.000 I 
ATOM      4  C   UNL     1      -7.252  -0.658 128.491  0.00  0.00    +0.000 A 
ATOM      5  C   UNL     1      -7.495  -2.033 128.391  0.00  0.00    +0.000 A 
ATOM      6  I   UNL     1      -6.849  -3.399 129.849  0.00  0.00    +0.000 I 
ATOM      7  C   UNL     1      -8.077  -2.546 127.241  0.00  0.00    +0.000 A 
ATOM      8  C   UNL     1      -8.405  -1.680 126.183  0.00  0.00    +0.000 A 
ATOM      9  I   UNL     1      -8.823  -2.690 124.298  0.00  0.00    +0.000 I 
ENDROOT
BRANCH   4  10
ATOM     10  N   UNL     1      -6.531  -0.143 129.587  0.00  0.00    +0.000 N 
ATOM     11  H   UNL     1      -7.128   0.272 130.299  0.00  0.00    +0.000 HD
ATOM     12  H   UNL     1      -5.751   0.456 129.321  0.00  0.00    +0.000 HD
ENDBRANCH   4  10
BRANCH   1  13
ATOM     13  C   UNL     1      -9.631   0.539 125.633  0.00  0.00    +0.000 C 
BRANCH  13  14
ATOM     14  C   UNL     1      -9.248   1.137 124.213  0.00  0.00    +0.000 C 
BRANCH  14  16
ATOM     15  C   UNL     1      -7.323   2.706 123.665  0.00  0.00    +0.000 C 
ATOM     16  C   UNL     1      -8.731   2.586 124.185  0.00  0.00    +0.000 C 
ENDBRANCH  14  16
BRANCH  14  17
ATOM     17  C   UNL     1     -10.473   0.981 123.287  0.00  0.00    +0.000 C 
ATOM     18  O   UNL     1     -10.385   0.574 122.151  0.00  0.00    +0.000 OA
BRANCH  17  19
ATOM     19  O   UNL     1     -11.686   1.300 123.805  0.00  0.00    +0.000 OA
ATOM     20  H   UNL     1     -11.854   2.206 124.114  0.00  0.00    +0.000 HD
ENDBRANCH  17  19
ENDBRANCH  14  17
ENDBRANCH  13  14
ENDBRANCH   1  13
TORSDOF 6
ENDMDL
MODEL 7
REMARK VINA RESULT:      -5.1      3.364      4.738
REMARK  Name = Iopanoic acid
REMARK  7 active torsions:
REMARK  status: ('A' for Active; 'I' for Inactive)
REMARK    1  A    between atoms: C_1  and  C_2
REMARK    2  A    between atoms: C_2  and  C_3
REMARK    3  A    between atoms: C_3  and  C_4
REMARK    4  A    between atoms: C_3  and  C_15
REMARK    5  A    between atoms: C_4  and  C_5
REMARK    6  A    between atoms: C_8  and  N_9
REMARK    7  A    between atoms: C_15  and  O_16
REMARK                            x       y       z     vdW  Elec       q    Type
REMARK                         _______ _______ _______ _____ _____    ______ ____
ROOT
ATOM      1  C   UNL     1      -8.354  -0.380 126.386  0.00  0.00    +0.000 A 
ATOM      2  C   UNL     1      -8.348   0.946 125.872  0.00  0.00    +0.000 A 
ATOM      3  I   UNL     1      -8.706   1.340 123.789  0.00  0.00    +0.000 I 
ATOM      4  C   UNL     1      -8.000   2.070 126.678  0.00  0.00    +0.000 A 
ATOM      5  C   UNL     1      -7.926   1.872 128.061  0.00  0.00    +0.000 A 
ATOM      6  I   UNL     1      -7.769   3.466 129.419  0.00  0.00    +0.000 I 
ATOM      7  C   UNL     1      -7.832   0.583 128.567  0.00  0.00    +0.000 A 
ATOM      8  C   UNL     1      -7.799  -0.509 127.682  0.00  0.00    +0.000 A 
ATOM      9  I   UNL     1      -7.145  -2.377 128.592  0.00  0.00    +0.000 I 
ENDROOT
BRANCH   4  10
ATOM     10  N   UNL     1      -7.949   3.373 126.144  0.00  0.00    +0.000 N 
ATOM     11  H   UNL     1      -7.003   3.682 125.932  0.00  0.00    +0.000 HD
ATOM     12  H   UNL     1      -8.482   4.057 126.677  0.00  0.00    +0.000 HD
ENDBRANCH   4  10
BRANCH   1  13
ATOM     13  C   UNL     1      -9.022  -1.558 125.648  0.00  0.00    +0.000 C 
BRANCH  13  14
ATOM     14  C   UNL     1      -8.179  -2.535 124.723  0.00  0.00    +0.000 C 
BRANCH  14  16
ATOM     15  C   UNL     1      -5.811  -3.338 124.258  0.00  0.00    +0.000 C 
ATOM     16  C   UNL     1      -6.714  -2.149 124.457  0.00  0.00    +0.000 C 
ENDBRANCH  14  16
BRANCH  14  17
ATOM     17  C   UNL     1      -8.944  -2.708 123.394  0.00  0.00    +0.000 C 
ATOM     18  O   UNL     1      -8.547  -2.249 122.347  0.00  0.00    +0.000 OA
BRANCH  17  19
ATOM     19  O   UNL     1     -10.093  -3.430 123.430  0.00  0.00    +0.000 OA
ATOM     20  H   UNL     1     -10.101  -4.299 123.864  0.00  0.00    +0.000 HD
ENDBRANCH  17  19
ENDBRANCH  14  17
ENDBRANCH  13  14
ENDBRANCH   1  13
TORSDOF 6
ENDMDL
MODEL 8
REMARK VINA RESULT:      -5.0      2.968      4.151
REMARK  Name = Iopanoic acid
REMARK  7 active torsions:
REMARK  status: ('A' for Active; 'I' for Inactive)
REMARK    1  A    between atoms: C_1  and  C_2
REMARK    2  A    between atoms: C_2  and  C_3
REMARK    3  A    between atoms: C_3  and  C_4
REMARK    4  A    between atoms: C_3  and  C_15
REMARK    5  A    between atoms: C_4  and  C_5
REMARK    6  A    between atoms: C_8  and  N_9
REMARK    7  A    between atoms: C_15  and  O_16
REMARK                            x       y       z     vdW  Elec       q    Type
REMARK                         _______ _______ _______ _____ _____    ______ ____
ROOT
ATOM      1  C   UNL     1      -6.685   1.083 124.399  0.00  0.00    +0.000 A 
ATOM      2  C   UNL     1      -6.449   2.476 124.233  0.00  0.00    +0.000 A 
ATOM      3  I   UNL     1      -6.518   3.398 122.292  0.00  0.00    +0.000 I 
ATOM      4  C   UNL     1      -6.050   3.312 125.317  0.00  0.00    +0.000 A 
ATOM      5  C   UNL     1      -6.158   2.786 126.609  0.00  0.00    +0.000 A 
ATOM      6  I   UNL     1      -5.947   3.973 128.328  0.00  0.00    +0.000 I 
ATOM      7  C   UNL     1      -6.289   1.416 126.785  0.00  0.00    +0.000 A 
ATOM      8  C   UNL     1      -6.301   0.570 125.662  0.00  0.00    +0.000 A 
ATOM      9  I   UNL     1      -6.001  -1.538 126.126  0.00  0.00    +0.000 I 
ENDROOT
BRANCH   4  10
ATOM     10  N   UNL     1      -5.771   4.680 125.129  0.00  0.00    +0.000 N 
ATOM     11  H   UNL     1      -4.775   4.880 125.062  0.00  0.00    +0.000 HD
ATOM     12  H   UNL     1      -6.258   5.293 125.780  0.00  0.00    +0.000 HD
ENDBRANCH   4  10
BRANCH   1  13
ATOM     13  C   UNL     1      -7.414   0.229 123.343  0.00  0.00    +0.000 C 
BRANCH  13  14
ATOM     14  C   UNL     1      -8.840  -0.406 123.637  0.00  0.00    +0.000 C 
BRANCH  14  16
ATOM     15  C   UNL     1      -9.186  -2.899 124.002  0.00  0.00    +0.000 C 
ATOM     16  C   UNL     1      -9.137  -1.774 123.001  0.00  0.00    +0.000 C 
ENDBRANCH  14  16
BRANCH  14  17
ATOM     17  C   UNL     1      -9.911   0.626 123.228  0.00  0.00    +0.000 C 
ATOM     18  O   UNL     1     -10.731   0.410 122.363  0.00  0.00    +0.000 OA
BRANCH  17  19
ATOM     19  O   UNL     1      -9.924   1.806 123.899  0.00  0.00    +0.000 OA
ATOM     20  H   UNL     1     -10.674   2.020 124.479  0.00  0.00    +0.000 HD
ENDBRANCH  17  19
ENDBRANCH  14  17
ENDBRANCH  13  14
ENDBRANCH   1  13
TORSDOF 6
ENDMDL
MODEL 9
REMARK VINA RESULT:      -5.0      1.960      3.158
REMARK  Name = Iopanoic acid
REMARK  7 active torsions:
REMARK  status: ('A' for Active; 'I' for Inactive)
REMARK    1  A    between atoms: C_1  and  C_2
REMARK    2  A    between atoms: C_2  and  C_3
REMARK    3  A    between atoms: C_3  and  C_4
REMARK    4  A    between atoms: C_3  and  C_15
REMARK    5  A    between atoms: C_4  and  C_5
REMARK    6  A    between atoms: C_8  and  N_9
REMARK    7  A    between atoms: C_15  and  O_16
REMARK                            x       y       z     vdW  Elec       q    Type
REMARK                         _______ _______ _______ _____ _____    ______ ____
ROOT
ATOM      1  C   UNL     1      -7.665   0.118 125.510  0.00  0.00    +0.000 A 
ATOM      2  C   UNL     1      -8.145  -1.196 125.255  0.00  0.00    +0.000 A 
ATOM      3  I   UNL     1      -8.701  -1.820 123.275  0.00  0.00    +0.000 I 
ATOM      4  C   UNL     1      -8.386  -2.131 126.304  0.00  0.00    +0.000 A 
ATOM      5  C   UNL     1      -7.882  -1.820 127.573  0.00  0.00    +0.000 A 
ATOM      6  I   UNL     1      -7.840  -3.217 129.140  0.00  0.00    +0.000 I 
ATOM      7  C   UNL     1      -7.503  -0.517 127.861  0.00  0.00    +0.000 A 
ATOM      8  C   UNL     1      -7.641   0.480 126.879  0.00  0.00    +0.000 A 
ATOM      9  I   UNL     1      -7.489   2.515 127.642  0.00  0.00    +0.000 I 
ENDROOT
BRANCH   4  10
ATOM     10  N   UNL     1      -8.910  -3.413 126.044  0.00  0.00    +0.000 N 
ATOM     11  H   UNL     1      -8.264  -4.014 125.535  0.00  0.00    +0.000 HD
ATOM     12  H   UNL     1      -9.845  -3.402 125.643  0.00  0.00    +0.000 HD
ENDBRANCH   4  10
BRANCH   1  13
ATOM     13  C   UNL     1      -7.098   1.028 124.401  0.00  0.00    +0.000 C 
BRANCH  13  14
ATOM     14  C   UNL     1      -8.052   1.737 123.349  0.00  0.00    +0.000 C 
BRANCH  14  16
ATOM     15  C   UNL     1      -8.365   3.408 121.457  0.00  0.00    +0.000 C 
ATOM     16  C   UNL     1      -7.459   2.914 122.555  0.00  0.00    +0.000 C 
ENDBRANCH  14  16
BRANCH  14  17
ATOM     17  C   UNL     1      -9.333   2.174 124.090  0.00  0.00    +0.000 C 
ATOM     18  O   UNL     1     -10.353   1.523 124.073  0.00  0.00    +0.000 OA
BRANCH  17  19
ATOM     19  O   UNL     1      -9.274   3.329 124.801  0.00  0.00    +0.000 OA
ATOM     20  H   UNL     1      -9.591   3.345 125.719  0.00  0.00    +0.000 HD
ENDBRANCH  17  19
ENDBRANCH  14  17
ENDBRANCH  13  14
ENDBRANCH   1  13
TORSDOF 6
ENDMDL
