MODEL 1
REMARK VINA RESULT:      -5.8      0.000      0.000
REMARK  Name = Iophendylate
REMARK  14 active torsions:
REMARK  status: ('A' for Active; 'I' for Inactive)
REMARK    1  A    between atoms: C_1  and  C_2
REMARK    2  A    between atoms: C_2  and  O_3
REMARK    3  A    between atoms: O_3  and  C_4
REMARK    4  A    between atoms: C_4  and  C_6
REMARK    5  A    between atoms: C_6  and  C_7
REMARK    6  A    between atoms: C_7  and  C_8
REMARK    7  A    between atoms: C_8  and  C_9
REMARK    8  A    between atoms: C_9  and  C_10
REMARK    9  A    between atoms: C_10  and  C_11
REMARK   10  A    between atoms: C_11  and  C_12
REMARK   11  A    between atoms: C_12  and  C_13
REMARK   12  A    between atoms: C_13  and  C_14
REMARK   13  A    between atoms: C_14  and  C_15
REMARK   14  A    between atoms: C_14  and  C_16
REMARK                            x       y       z     vdW  Elec       q    Type
REMARK                         _______ _______ _______ _____ _____    ______ ____
ROOT
ATOM      1  C   UNL     1      -8.424  -3.220 129.385  0.00  0.00    +0.000 C 
ENDROOT
BRANCH   1   2
ATOM      2  C   UNL     1      -9.021  -3.883 128.154  0.00  0.00    +0.000 C 
BRANCH   2   3
ATOM      3  C   UNL     1      -8.402  -3.301 126.898  0.00  0.00    +0.000 C 
BRANCH   3   4
ATOM      4  C   UNL     1      -9.484  -2.968 125.877  0.00  0.00    +0.000 C 
BRANCH   4   5
ATOM      5  C   UNL     1      -8.969  -3.225 124.469  0.00  0.00    +0.000 C 
BRANCH   5   6
ATOM      6  C   UNL     1      -7.449  -3.380 124.420  0.00  0.00    +0.000 C 
BRANCH   6   7
ATOM      7  C   UNL     1      -6.867  -2.469 123.360  0.00  0.00    +0.000 C 
ATOM      8  O   UNL     1      -7.508  -1.611 122.758  0.00  0.00    +0.000 OA
BRANCH   7   9
ATOM      9  O   UNL     1      -5.542  -2.721 123.156  0.00  0.00    +0.000 OA
BRANCH   9  11
ATOM     10  C   UNL     1      -4.176  -4.702 123.423  0.00  0.00    +0.000 C 
ATOM     11  C   UNL     1      -4.981  -3.624 124.126  0.00  0.00    +0.000 C 
ENDBRANCH   9  11
ENDBRANCH   7   9
ENDBRANCH   6   7
ENDBRANCH   5   6
ENDBRANCH   4   5
ENDBRANCH   3   4
ENDBRANCH   2   3
ENDBRANCH   1   2
BRANCH   1  12
ATOM     12  C   UNL     1      -6.964  -3.609 129.498  0.00  0.00    +0.000 C 
BRANCH  12  13
ATOM     13  C   UNL     1      -6.186  -2.555 130.269  0.00  0.00    +0.000 C 
BRANCH  13  14
ATOM     14  C   UNL     1      -4.880  -2.176 129.558  0.00  0.00    +0.000 C 
ATOM     15  C   UNL     1      -4.145  -3.367 128.937  0.00  0.00    +0.000 C 
BRANCH  14  16
ATOM     16  C   UNL     1      -5.153  -1.064 128.556  0.00  0.00    +0.000 A 
ATOM     17  C   UNL     1      -5.365  -1.462 127.212  0.00  0.00    +0.000 A 
ATOM     18  C   UNL     1      -5.620  -0.526 126.208  0.00  0.00    +0.000 A 
ATOM     19  C   UNL     1      -5.664   0.825 126.520  0.00  0.00    +0.000 A 
ATOM     20  C   UNL     1      -5.444   1.243 127.826  0.00  0.00    +0.000 A 
ATOM     21  C   UNL     1      -5.174   0.320 128.841  0.00  0.00    +0.000 A 
ATOM     22  I   UNL     1      -4.762   1.276 130.691  0.00  0.00    +0.000 I 
ENDBRANCH  14  16
ENDBRANCH  13  14
ENDBRANCH  12  13
ENDBRANCH   1  12
TORSDOF 12
ENDMDL
MODEL 2
REMARK VINA RESULT:      -5.7      7.563     10.230
REMARK  Name = Iophendylate
REMARK  14 active torsions:
REMARK  status: ('A' for Active; 'I' for Inactive)
REMARK    1  A    between atoms: C_1  and  C_2
REMARK    2  A    between atoms: C_2  and  O_3
REMARK    3  A    between atoms: O_3  and  C_4
REMARK    4  A    between atoms: C_4  and  C_6
REMARK    5  A    between atoms: C_6  and  C_7
REMARK    6  A    between atoms: C_7  and  C_8
REMARK    7  A    between atoms: C_8  and  C_9
REMARK    8  A    between atoms: C_9  and  C_10
REMARK    9  A    between atoms: C_10  and  C_11
REMARK   10  A    between atoms: C_11  and  C_12
REMARK   11  A    between atoms: C_12  and  C_13
REMARK   12  A    between atoms: C_13  and  C_14
REMARK   13  A    between atoms: C_14  and  C_15
REMARK   14  A    between atoms: C_14  and  C_16
REMARK                            x       y       z     vdW  Elec       q    Type
REMARK                         _______ _______ _______ _____ _____    ______ ____
ROOT
ATOM      1  C   UNL     1      -5.810   5.979 131.778  0.00  0.00    +0.000 C 
ENDROOT
BRANCH   1   2
ATOM      2  C   UNL     1      -6.868   6.898 131.189  0.00  0.00    +0.000 C 
BRANCH   2   3
ATOM      3  C   UNL     1      -8.246   6.473 131.659  0.00  0.00    +0.000 C 
BRANCH   3   4
ATOM      4  C   UNL     1      -9.309   6.931 130.667  0.00  0.00    +0.000 C 
BRANCH   4   5
ATOM      5  C   UNL     1      -9.899   5.729 129.944  0.00  0.00    +0.000 C 
BRANCH   5   6
ATOM      6  C   UNL     1     -11.185   5.224 130.601  0.00  0.00    +0.000 C 
BRANCH   6   7
ATOM      7  C   UNL     1     -12.242   6.306 130.572  0.00  0.00    +0.000 C 
ATOM      8  O   UNL     1     -12.693   6.861 131.572  0.00  0.00    +0.000 OA
BRANCH   7   9
ATOM      9  O   UNL     1     -12.635   6.588 129.296  0.00  0.00    +0.000 OA
BRANCH   9  11
ATOM     10  C   UNL     1     -11.697   8.571 128.272  0.00  0.00    +0.000 C 
ATOM     11  C   UNL     1     -12.853   7.991 129.067  0.00  0.00    +0.000 C 
ENDBRANCH   9  11
ENDBRANCH   7   9
ENDBRANCH   6   7
ENDBRANCH   5   6
ENDBRANCH   4   5
ENDBRANCH   3   4
ENDBRANCH   2   3
ENDBRANCH   1   2
BRANCH   1  12
ATOM     12  C   UNL     1      -6.137   5.716 133.234  0.00  0.00    +0.000 C 
BRANCH  12  13
ATOM     13  C   UNL     1      -5.904   4.255 133.581  0.00  0.00    +0.000 C 
BRANCH  13  14
ATOM     14  C   UNL     1      -7.091   3.653 134.345  0.00  0.00    +0.000 C 
ATOM     15  C   UNL     1      -8.046   4.698 134.928  0.00  0.00    +0.000 C 
BRANCH  14  16
ATOM     16  C   UNL     1      -7.798   2.635 133.462  0.00  0.00    +0.000 A 
ATOM     17  C   UNL     1      -9.083   2.997 132.985  0.00  0.00    +0.000 A 
ATOM     18  C   UNL     1      -9.825   2.139 132.171  0.00  0.00    +0.000 A 
ATOM     19  C   UNL     1      -9.306   0.902 131.819  0.00  0.00    +0.000 A 
ATOM     20  C   UNL     1      -8.056   0.516 132.286  0.00  0.00    +0.000 A 
ATOM     21  C   UNL     1      -7.306   1.358 133.114  0.00  0.00    +0.000 A 
ATOM     22  I   UNL     1      -5.506   0.435 133.757  0.00  0.00    +0.000 I 
ENDBRANCH  14  16
ENDBRANCH  13  14
ENDBRANCH  12  13
ENDBRANCH   1  12
TORSDOF 12
ENDMDL
MODEL 3
REMARK VINA RESULT:      -5.7      2.503      4.303
REMARK  Name = Iophendylate
REMARK  14 active torsions:
REMARK  status: ('A' for Active; 'I' for Inactive)
REMARK    1  A    between atoms: C_1  and  C_2
REMARK    2  A    between atoms: C_2  and  O_3
REMARK    3  A    between atoms: O_3  and  C_4
REMARK    4  A    between atoms: C_4  and  C_6
REMARK    5  A    between atoms: C_6  and  C_7
REMARK    6  A    between atoms: C_7  and  C_8
REMARK    7  A    between atoms: C_8  and  C_9
REMARK    8  A    between atoms: C_9  and  C_10
REMARK    9  A    between atoms: C_10  and  C_11
REMARK   10  A    between atoms: C_11  and  C_12
REMARK   11  A    between atoms: C_12  and  C_13
REMARK   12  A    between atoms: C_13  and  C_14
REMARK   13  A    between atoms: C_14  and  C_15
REMARK   14  A    between atoms: C_14  and  C_16
REMARK                            x       y       z     vdW  Elec       q    Type
REMARK                         _______ _______ _______ _____ _____    ______ ____
ROOT
ATOM      1  C   UNL     1      -8.246  -3.491 129.319  0.00  0.00    +0.000 C 
ENDROOT
BRANCH   1   2
ATOM      2  C   UNL     1      -8.879  -3.869 127.990  0.00  0.00    +0.000 C 
BRANCH   2   3
ATOM      3  C   UNL     1      -8.489  -2.864 126.923  0.00  0.00    +0.000 C 
BRANCH   3   4
ATOM      4  C   UNL     1      -9.464  -2.926 125.753  0.00  0.00    +0.000 C 
BRANCH   4   5
ATOM      5  C   UNL     1      -8.804  -3.601 124.560  0.00  0.00    +0.000 C 
BRANCH   5   6
ATOM      6  C   UNL     1      -9.383  -3.128 123.226  0.00  0.00    +0.000 C 
BRANCH   6   7
ATOM      7  C   UNL     1      -8.979  -1.693 122.964  0.00  0.00    +0.000 C 
ATOM      8  O   UNL     1      -9.761  -0.746 122.945  0.00  0.00    +0.000 OA
BRANCH   7   9
ATOM      9  O   UNL     1      -7.636  -1.583 122.751  0.00  0.00    +0.000 OA
BRANCH   9  11
ATOM     10  C   UNL     1      -6.374  -0.745 124.639  0.00  0.00    +0.000 C 
ATOM     11  C   UNL     1      -7.065  -0.398 123.333  0.00  0.00    +0.000 C 
ENDBRANCH   9  11
ENDBRANCH   7   9
ENDBRANCH   6   7
ENDBRANCH   5   6
ENDBRANCH   4   5
ENDBRANCH   3   4
ENDBRANCH   2   3
ENDBRANCH   1   2
BRANCH   1  12
ATOM     12  C   UNL     1      -7.906  -2.014 129.304  0.00  0.00    +0.000 C 
BRANCH  12  13
ATOM     13  C   UNL     1      -7.917  -1.446 130.713  0.00  0.00    +0.000 C 
BRANCH  13  14
ATOM     14  C   UNL     1      -6.505  -1.372 131.311  0.00  0.00    +0.000 C 
ATOM     15  C   UNL     1      -6.311  -0.216 132.296  0.00  0.00    +0.000 C 
BRANCH  14  16
ATOM     16  C   UNL     1      -6.135  -2.723 131.905  0.00  0.00    +0.000 A 
ATOM     17  C   UNL     1      -6.776  -3.075 133.120  0.00  0.00    +0.000 A 
ATOM     18  C   UNL     1      -6.509  -4.289 133.757  0.00  0.00    +0.000 A 
ATOM     19  C   UNL     1      -5.597  -5.174 133.201  0.00  0.00    +0.000 A 
ATOM     20  C   UNL     1      -4.944  -4.845 132.020  0.00  0.00    +0.000 A 
ATOM     21  C   UNL     1      -5.189  -3.628 131.376  0.00  0.00    +0.000 A 
ATOM     22  I   UNL     1      -3.950  -3.371 129.672  0.00  0.00    +0.000 I 
ENDBRANCH  14  16
ENDBRANCH  13  14
ENDBRANCH  12  13
ENDBRANCH   1  12
TORSDOF 12
ENDMDL
MODEL 4
REMARK VINA RESULT:      -5.6      2.217      2.955
REMARK  Name = Iophendylate
REMARK  14 active torsions:
REMARK  status: ('A' for Active; 'I' for Inactive)
REMARK    1  A    between atoms: C_1  and  C_2
REMARK    2  A    between atoms: C_2  and  O_3
REMARK    3  A    between atoms: O_3  and  C_4
REMARK    4  A    between atoms: C_4  and  C_6
REMARK    5  A    between atoms: C_6  and  C_7
REMARK    6  A    between atoms: C_7  and  C_8
REMARK    7  A    between atoms: C_8  and  C_9
REMARK    8  A    between atoms: C_9  and  C_10
REMARK    9  A    between atoms: C_10  and  C_11
REMARK   10  A    between atoms: C_11  and  C_12
REMARK   11  A    between atoms: C_12  and  C_13
REMARK   12  A    between atoms: C_13  and  C_14
REMARK   13  A    between atoms: C_14  and  C_15
REMARK   14  A    between atoms: C_14  and  C_16
REMARK                            x       y       z     vdW  Elec       q    Type
REMARK                         _______ _______ _______ _____ _____    ______ ____
ROOT
ATOM      1  C   UNL     1      -8.960  -3.933 127.709  0.00  0.00    +0.000 C 
ENDROOT
BRANCH   1   2
ATOM      2  C   UNL     1      -8.747  -3.003 126.526  0.00  0.00    +0.000 C 
BRANCH   2   3
ATOM      3  C   UNL     1      -8.360  -3.804 125.298  0.00  0.00    +0.000 C 
BRANCH   3   4
ATOM      4  C   UNL     1      -9.307  -3.496 124.144  0.00  0.00    +0.000 C 
BRANCH   4   5
ATOM      5  C   UNL     1      -9.034  -2.100 123.604  0.00  0.00    +0.000 C 
BRANCH   5   6
ATOM      6  C   UNL     1      -8.073  -2.110 122.414  0.00  0.00    +0.000 C 
BRANCH   6   7
ATOM      7  C   UNL     1      -6.760  -1.464 122.803  0.00  0.00    +0.000 C 
ATOM      8  O   UNL     1      -6.651  -0.314 123.221  0.00  0.00    +0.000 OA
BRANCH   7   9
ATOM      9  O   UNL     1      -5.711  -2.320 122.630  0.00  0.00    +0.000 OA
BRANCH   9  11
ATOM     10  C   UNL     1      -4.689  -4.209 123.747  0.00  0.00    +0.000 C 
ATOM     11  C   UNL     1      -5.129  -2.761 123.869  0.00  0.00    +0.000 C 
ENDBRANCH   9  11
ENDBRANCH   7   9
ENDBRANCH   6   7
ENDBRANCH   5   6
ENDBRANCH   4   5
ENDBRANCH   3   4
ENDBRANCH   2   3
ENDBRANCH   1   2
BRANCH   1  12
ATOM     12  C   UNL     1      -8.288  -3.343 128.932  0.00  0.00    +0.000 C 
BRANCH  12  13
ATOM     13  C   UNL     1      -6.973  -2.681 128.554  0.00  0.00    +0.000 C 
BRANCH  13  14
ATOM     14  C   UNL     1      -6.293  -2.029 129.766  0.00  0.00    +0.000 C 
ATOM     15  C   UNL     1      -4.898  -1.472 129.467  0.00  0.00    +0.000 C 
BRANCH  14  16
ATOM     16  C   UNL     1      -7.225  -0.991 130.373  0.00  0.00    +0.000 A 
ATOM     17  C   UNL     1      -7.533   0.131 129.563  0.00  0.00    +0.000 A 
ATOM     18  C   UNL     1      -8.374   1.148 130.020  0.00  0.00    +0.000 A 
ATOM     19  C   UNL     1      -8.922   1.071 131.291  0.00  0.00    +0.000 A 
ATOM     20  C   UNL     1      -8.624  -0.011 132.110  0.00  0.00    +0.000 A 
ATOM     21  C   UNL     1      -7.772  -1.030 131.674  0.00  0.00    +0.000 A 
ATOM     22  I   UNL     1      -7.418  -2.469 133.194  0.00  0.00    +0.000 I 
ENDBRANCH  14  16
ENDBRANCH  13  14
ENDBRANCH  12  13
ENDBRANCH   1  12
TORSDOF 12
ENDMDL
MODEL 5
REMARK VINA RESULT:      -5.6      2.001      3.019
REMARK  Name = Iophendylate
REMARK  14 active torsions:
REMARK  status: ('A' for Active; 'I' for Inactive)
REMARK    1  A    between atoms: C_1  and  C_2
REMARK    2  A    between atoms: C_2  and  O_3
REMARK    3  A    between atoms: O_3  and  C_4
REMARK    4  A    between atoms: C_4  and  C_6
REMARK    5  A    between atoms: C_6  and  C_7
REMARK    6  A    between atoms: C_7  and  C_8
REMARK    7  A    between atoms: C_8  and  C_9
REMARK    8  A    between atoms: C_9  and  C_10
REMARK    9  A    between atoms: C_10  and  C_11
REMARK   10  A    between atoms: C_11  and  C_12
REMARK   11  A    between atoms: C_12  and  C_13
REMARK   12  A    between atoms: C_13  and  C_14
REMARK   13  A    between atoms: C_14  and  C_15
REMARK   14  A    between atoms: C_14  and  C_16
REMARK                            x       y       z     vdW  Elec       q    Type
REMARK                         _______ _______ _______ _____ _____    ______ ____
ROOT
ATOM      1  C   UNL     1      -7.502  -3.771 129.500  0.00  0.00    +0.000 C 
ENDROOT
BRANCH   1   2
ATOM      2  C   UNL     1      -8.481  -3.034 128.601  0.00  0.00    +0.000 C 
BRANCH   2   3
ATOM      3  C   UNL     1      -8.735  -3.836 127.338  0.00  0.00    +0.000 C 
BRANCH   3   4
ATOM      4  C   UNL     1      -8.772  -2.917 126.124  0.00  0.00    +0.000 C 
BRANCH   4   5
ATOM      5  C   UNL     1      -8.574  -3.727 124.851  0.00  0.00    +0.000 C 
BRANCH   5   6
ATOM      6  C   UNL     1      -9.522  -3.297 123.730  0.00  0.00    +0.000 C 
BRANCH   6   7
ATOM      7  C   UNL     1      -9.054  -1.990 123.127  0.00  0.00    +0.000 C 
ATOM      8  O   UNL     1      -8.104  -1.885 122.355  0.00  0.00    +0.000 OA
BRANCH   7   9
ATOM      9  O   UNL     1      -9.819  -0.942 123.550  0.00  0.00    +0.000 OA
BRANCH   9  11
ATOM     10  C   UNL     1      -9.745   1.477 123.628  0.00  0.00    +0.000 C 
ATOM     11  C   UNL     1      -9.650   0.242 122.750  0.00  0.00    +0.000 C 
ENDBRANCH   9  11
ENDBRANCH   7   9
ENDBRANCH   6   7
ENDBRANCH   5   6
ENDBRANCH   4   5
ENDBRANCH   3   4
ENDBRANCH   2   3
ENDBRANCH   1   2
BRANCH   1  12
ATOM     12  C   UNL     1      -6.647  -2.760 130.235  0.00  0.00    +0.000 C 
BRANCH  12  13
ATOM     13  C   UNL     1      -7.095  -1.343 129.915  0.00  0.00    +0.000 C 
BRANCH  13  14
ATOM     14  C   UNL     1      -5.959  -0.508 129.309  0.00  0.00    +0.000 C 
ATOM     15  C   UNL     1      -4.564  -0.928 129.779  0.00  0.00    +0.000 C 
BRANCH  14  16
ATOM     16  C   UNL     1      -6.092  -0.496 127.793  0.00  0.00    +0.000 A 
ATOM     17  C   UNL     1      -5.322  -1.453 127.084  0.00  0.00    +0.000 A 
ATOM     18  C   UNL     1      -5.362  -1.530 125.690  0.00  0.00    +0.000 A 
ATOM     19  C   UNL     1      -6.165  -0.654 124.974  0.00  0.00    +0.000 A 
ATOM     20  C   UNL     1      -6.917   0.302 125.644  0.00  0.00    +0.000 A 
ATOM     21  C   UNL     1      -6.878   0.402 127.038  0.00  0.00    +0.000 A 
ATOM     22  I   UNL     1      -8.033   2.036 127.747  0.00  0.00    +0.000 I 
ENDBRANCH  14  16
ENDBRANCH  13  14
ENDBRANCH  12  13
ENDBRANCH   1  12
TORSDOF 12
ENDMDL
MODEL 6
REMARK VINA RESULT:      -5.5      3.171      5.146
REMARK  Name = Iophendylate
REMARK  14 active torsions:
REMARK  status: ('A' for Active; 'I' for Inactive)
REMARK    1  A    between atoms: C_1  and  C_2
REMARK    2  A    between atoms: C_2  and  O_3
REMARK    3  A    between atoms: O_3  and  C_4
REMARK    4  A    between atoms: C_4  and  C_6
REMARK    5  A    between atoms: C_6  and  C_7
REMARK    6  A    between atoms: C_7  and  C_8
REMARK    7  A    between atoms: C_8  and  C_9
REMARK    8  A    between atoms: C_9  and  C_10
REMARK    9  A    between atoms: C_10  and  C_11
REMARK   10  A    between atoms: C_11  and  C_12
REMARK   11  A    between atoms: C_12  and  C_13
REMARK   12  A    between atoms: C_13  and  C_14
REMARK   13  A    between atoms: C_14  and  C_15
REMARK   14  A    between atoms: C_14  and  C_16
REMARK                            x       y       z     vdW  Elec       q    Type
REMARK                         _______ _______ _______ _____ _____    ______ ____
ROOT
ATOM      1  C   UNL     1      -7.319  -2.362 128.885  0.00  0.00    +0.000 C 
ENDROOT
BRANCH   1   2
ATOM      2  C   UNL     1      -8.454  -3.358 129.064  0.00  0.00    +0.000 C 
BRANCH   2   3
ATOM      3  C   UNL     1      -8.894  -3.893 127.714  0.00  0.00    +0.000 C 
BRANCH   3   4
ATOM      4  C   UNL     1      -8.697  -2.836 126.634  0.00  0.00    +0.000 C 
BRANCH   4   5
ATOM      5  C   UNL     1      -8.337  -3.500 125.314  0.00  0.00    +0.000 C 
BRANCH   5   6
ATOM      6  C   UNL     1      -9.357  -3.206 124.213  0.00  0.00    +0.000 C 
BRANCH   6   7
ATOM      7  C   UNL     1      -8.863  -2.075 123.337  0.00  0.00    +0.000 C 
ATOM      8  O   UNL     1      -7.869  -2.139 122.618  0.00  0.00    +0.000 OA
BRANCH   7   9
ATOM      9  O   UNL     1      -9.660  -0.973 123.447  0.00  0.00    +0.000 OA
BRANCH   9  11
ATOM     10  C   UNL     1     -10.012   1.237 124.371  0.00  0.00    +0.000 C 
ATOM     11  C   UNL     1      -9.003   0.142 124.075  0.00  0.00    +0.000 C 
ENDBRANCH   9  11
ENDBRANCH   7   9
ENDBRANCH   6   7
ENDBRANCH   5   6
ENDBRANCH   4   5
ENDBRANCH   3   4
ENDBRANCH   2   3
ENDBRANCH   1   2
BRANCH   1  12
ATOM     12  C   UNL     1      -6.006  -3.043 129.214  0.00  0.00    +0.000 C 
BRANCH  12  13
ATOM     13  C   UNL     1      -6.213  -4.136 130.250  0.00  0.00    +0.000 C 
BRANCH  13  14
ATOM     14  C   UNL     1      -5.373  -3.892 131.512  0.00  0.00    +0.000 C 
ATOM     15  C   UNL     1      -4.464  -2.663 131.422  0.00  0.00    +0.000 C 
BRANCH  14  16
ATOM     16  C   UNL     1      -6.285  -3.863 132.729  0.00  0.00    +0.000 A 
ATOM     17  C   UNL     1      -7.422  -3.020 132.648  0.00  0.00    +0.000 A 
ATOM     18  C   UNL     1      -8.325  -2.911 133.707  0.00  0.00    +0.000 A 
ATOM     19  C   UNL     1      -8.113  -3.637 134.870  0.00  0.00    +0.000 A 
ATOM     20  C   UNL     1      -6.999  -4.459 134.981  0.00  0.00    +0.000 A 
ATOM     21  C   UNL     1      -6.078  -4.568 133.936  0.00  0.00    +0.000 A 
ATOM     22  I   UNL     1      -4.429  -5.798 134.459  0.00  0.00    +0.000 I 
ENDBRANCH  14  16
ENDBRANCH  13  14
ENDBRANCH  12  13
ENDBRANCH   1  12
TORSDOF 12
ENDMDL
MODEL 7
REMARK VINA RESULT:      -5.5      2.253      4.558
REMARK  Name = Iophendylate
REMARK  14 active torsions:
REMARK  status: ('A' for Active; 'I' for Inactive)
REMARK    1  A    between atoms: C_1  and  C_2
REMARK    2  A    between atoms: C_2  and  O_3
REMARK    3  A    between atoms: O_3  and  C_4
REMARK    4  A    between atoms: C_4  and  C_6
REMARK    5  A    between atoms: C_6  and  C_7
REMARK    6  A    between atoms: C_7  and  C_8
REMARK    7  A    between atoms: C_8  and  C_9
REMARK    8  A    between atoms: C_9  and  C_10
REMARK    9  A    between atoms: C_10  and  C_11
REMARK   10  A    between atoms: C_11  and  C_12
REMARK   11  A    between atoms: C_12  and  C_13
REMARK   12  A    between atoms: C_13  and  C_14
REMARK   13  A    between atoms: C_14  and  C_15
REMARK   14  A    between atoms: C_14  and  C_16
REMARK                            x       y       z     vdW  Elec       q    Type
REMARK                         _______ _______ _______ _____ _____    ______ ____
ROOT
ATOM      1  C   UNL     1      -5.746  -1.895 125.331  0.00  0.00    +0.000 C 
ENDROOT
BRANCH   1   2
ATOM      2  C   UNL     1      -6.312  -2.567 124.091  0.00  0.00    +0.000 C 
BRANCH   2   3
ATOM      3  C   UNL     1      -7.455  -3.489 124.473  0.00  0.00    +0.000 C 
BRANCH   3   4
ATOM      4  C   UNL     1      -8.729  -3.086 123.741  0.00  0.00    +0.000 C 
BRANCH   4   5
ATOM      5  C   UNL     1      -8.418  -2.024 122.698  0.00  0.00    +0.000 C 
BRANCH   5   6
ATOM      6  C   UNL     1      -9.474  -0.918 122.655  0.00  0.00    +0.000 C 
BRANCH   6   7
ATOM      7  C   UNL     1      -9.027   0.260 123.494  0.00  0.00    +0.000 C 
ATOM      8  O   UNL     1      -8.125   1.032 123.178  0.00  0.00    +0.000 OA
BRANCH   7   9
ATOM      9  O   UNL     1      -9.751   0.356 124.646  0.00  0.00    +0.000 OA
BRANCH   9  11
ATOM     10  C   UNL     1      -8.874   0.989 126.812  0.00  0.00    +0.000 C 
ATOM     11  C   UNL     1      -9.046  -0.130 125.801  0.00  0.00    +0.000 C 
ENDBRANCH   9  11
ENDBRANCH   7   9
ENDBRANCH   6   7
ENDBRANCH   5   6
ENDBRANCH   4   5
ENDBRANCH   3   4
ENDBRANCH   2   3
ENDBRANCH   1   2
BRANCH   1  12
ATOM     12  C   UNL     1      -6.187  -2.668 126.558  0.00  0.00    +0.000 C 
BRANCH  12  13
ATOM     13  C   UNL     1      -6.350  -1.738 127.748  0.00  0.00    +0.000 C 
BRANCH  13  14
ATOM     14  C   UNL     1      -7.549  -2.134 128.622  0.00  0.00    +0.000 C 
ATOM     15  C   UNL     1      -8.494  -3.138 127.957  0.00  0.00    +0.000 C 
BRANCH  14  16
ATOM     16  C   UNL     1      -7.051  -2.603 129.981  0.00  0.00    +0.000 A 
ATOM     17  C   UNL     1      -6.358  -3.839 130.008  0.00  0.00    +0.000 A 
ATOM     18  C   UNL     1      -5.861  -4.369 131.201  0.00  0.00    +0.000 A 
ATOM     19  C   UNL     1      -6.048  -3.682 132.391  0.00  0.00    +0.000 A 
ATOM     20  C   UNL     1      -6.737  -2.476 132.394  0.00  0.00    +0.000 A 
ATOM     21  C   UNL     1      -7.254  -1.939 131.211  0.00  0.00    +0.000 A 
ATOM     22  I   UNL     1      -8.357  -0.161 131.566  0.00  0.00    +0.000 I 
ENDBRANCH  14  16
ENDBRANCH  13  14
ENDBRANCH  12  13
ENDBRANCH   1  12
TORSDOF 12
ENDMDL
MODEL 8
REMARK VINA RESULT:      -5.4      3.136      5.245
REMARK  Name = Iophendylate
REMARK  14 active torsions:
REMARK  status: ('A' for Active; 'I' for Inactive)
REMARK    1  A    between atoms: C_1  and  C_2
REMARK    2  A    between atoms: C_2  and  O_3
REMARK    3  A    between atoms: O_3  and  C_4
REMARK    4  A    between atoms: C_4  and  C_6
REMARK    5  A    between atoms: C_6  and  C_7
REMARK    6  A    between atoms: C_7  and  C_8
REMARK    7  A    between atoms: C_8  and  C_9
REMARK    8  A    between atoms: C_9  and  C_10
REMARK    9  A    between atoms: C_10  and  C_11
REMARK   10  A    between atoms: C_11  and  C_12
REMARK   11  A    between atoms: C_12  and  C_13
REMARK   12  A    between atoms: C_13  and  C_14
REMARK   13  A    between atoms: C_14  and  C_15
REMARK   14  A    between atoms: C_14  and  C_16
REMARK                            x       y       z     vdW  Elec       q    Type
REMARK                         _______ _______ _______ _____ _____    ______ ____
ROOT
ATOM      1  C   UNL     1      -6.026   1.900 127.464  0.00  0.00    +0.000 C 
ENDROOT
BRANCH   1   2
ATOM      2  C   UNL     1      -6.979   1.745 128.638  0.00  0.00    +0.000 C 
BRANCH   2   3
ATOM      3  C   UNL     1      -8.275   1.105 128.175  0.00  0.00    +0.000 C 
BRANCH   3   4
ATOM      4  C   UNL     1      -8.714   1.700 126.843  0.00  0.00    +0.000 C 
BRANCH   4   5
ATOM      5  C   UNL     1      -9.505   0.671 126.049  0.00  0.00    +0.000 C 
BRANCH   5   6
ATOM      6  C   UNL     1      -8.844   0.328 124.712  0.00  0.00    +0.000 C 
BRANCH   6   7
ATOM      7  C   UNL     1      -9.553   1.047 123.584  0.00  0.00    +0.000 C 
ATOM      8  O   UNL     1     -10.774   1.143 123.482  0.00  0.00    +0.000 OA
BRANCH   7   9
ATOM      9  O   UNL     1      -8.665   1.574 122.692  0.00  0.00    +0.000 OA
BRANCH   9  11
ATOM     10  C   UNL     1      -6.892   3.045 123.435  0.00  0.00    +0.000 C 
ATOM     11  C   UNL     1      -8.333   2.946 122.966  0.00  0.00    +0.000 C 
ENDBRANCH   9  11
ENDBRANCH   7   9
ENDBRANCH   6   7
ENDBRANCH   5   6
ENDBRANCH   4   5
ENDBRANCH   3   4
ENDBRANCH   2   3
ENDBRANCH   1   2
BRANCH   1  12
ATOM     12  C   UNL     1      -5.042   0.748 127.470  0.00  0.00    +0.000 C 
BRANCH  12  13
ATOM     13  C   UNL     1      -5.369  -0.243 126.365  0.00  0.00    +0.000 C 
BRANCH  13  14
ATOM     14  C   UNL     1      -5.538  -1.669 126.907  0.00  0.00    +0.000 C 
ATOM     15  C   UNL     1      -5.592  -1.746 128.435  0.00  0.00    +0.000 C 
BRANCH  14  16
ATOM     16  C   UNL     1      -6.736  -2.326 126.240  0.00  0.00    +0.000 A 
ATOM     17  C   UNL     1      -7.919  -2.419 127.015  0.00  0.00    +0.000 A 
ATOM     18  C   UNL     1      -9.079  -3.007 126.506  0.00  0.00    +0.000 A 
ATOM     19  C   UNL     1      -9.083  -3.519 125.217  0.00  0.00    +0.000 A 
ATOM     20  C   UNL     1      -7.933  -3.454 124.442  0.00  0.00    +0.000 A 
ATOM     21  C   UNL     1      -6.759  -2.881 124.941  0.00  0.00    +0.000 A 
ATOM     22  I   UNL     1      -5.150  -3.048 123.567  0.00  0.00    +0.000 I 
ENDBRANCH  14  16
ENDBRANCH  13  14
ENDBRANCH  12  13
ENDBRANCH   1  12
TORSDOF 12
ENDMDL
MODEL 9
REMARK VINA RESULT:      -5.4      2.206      2.856
REMARK  Name = Iophendylate
REMARK  14 active torsions:
REMARK  status: ('A' for Active; 'I' for Inactive)
REMARK    1  A    between atoms: C_1  and  C_2
REMARK    2  A    between atoms: C_2  and  O_3
REMARK    3  A    between atoms: O_3  and  C_4
REMARK    4  A    between atoms: C_4  and  C_6
REMARK    5  A    between atoms: C_6  and  C_7
REMARK    6  A    between atoms: C_7  and  C_8
REMARK    7  A    between atoms: C_8  and  C_9
REMARK    8  A    between atoms: C_9  and  C_10
REMARK    9  A    between atoms: C_10  and  C_11
REMARK   10  A    between atoms: C_11  and  C_12
REMARK   11  A    between atoms: C_12  and  C_13
REMARK   12  A    between atoms: C_13  and  C_14
REMARK   13  A    between atoms: C_14  and  C_15
REMARK   14  A    between atoms: C_14  and  C_16
REMARK                            x       y       z     vdW  Elec       q    Type
REMARK                         _______ _______ _______ _____ _____    ______ ____
ROOT
ATOM      1  C   UNL     1      -8.323  -3.159 129.290  0.00  0.00    +0.000 C 
ENDROOT
BRANCH   1   2
ATOM      2  C   UNL     1      -8.921  -3.834 128.066  0.00  0.00    +0.000 C 
BRANCH   2   3
ATOM      3  C   UNL     1      -8.291  -3.275 126.805  0.00  0.00    +0.000 C 
BRANCH   3   4
ATOM      4  C   UNL     1      -9.358  -2.664 125.905  0.00  0.00    +0.000 C 
BRANCH   4   5
ATOM      5  C   UNL     1      -9.242  -3.232 124.498  0.00  0.00    +0.000 C 
BRANCH   5   6
ATOM      6  C   UNL     1      -7.792  -3.505 124.095  0.00  0.00    +0.000 C 
BRANCH   6   7
ATOM      7  C   UNL     1      -7.208  -2.291 123.404  0.00  0.00    +0.000 C 
ATOM      8  O   UNL     1      -7.876  -1.431 122.834  0.00  0.00    +0.000 OA
BRANCH   7   9
ATOM      9  O   UNL     1      -5.847  -2.272 123.493  0.00  0.00    +0.000 OA
BRANCH   9  11
ATOM     10  C   UNL     1      -4.241  -4.083 123.503  0.00  0.00    +0.000 C 
ATOM     11  C   UNL     1      -5.315  -3.349 124.284  0.00  0.00    +0.000 C 
ENDBRANCH   9  11
ENDBRANCH   7   9
ENDBRANCH   6   7
ENDBRANCH   5   6
ENDBRANCH   4   5
ENDBRANCH   3   4
ENDBRANCH   2   3
ENDBRANCH   1   2
BRANCH   1  12
ATOM     12  C   UNL     1      -6.815  -3.296 129.244  0.00  0.00    +0.000 C 
BRANCH  12  13
ATOM     13  C   UNL     1      -6.293  -3.927 130.524  0.00  0.00    +0.000 C 
BRANCH  13  14
ATOM     14  C   UNL     1      -6.667  -3.100 131.762  0.00  0.00    +0.000 C 
ATOM     15  C   UNL     1      -6.556  -3.874 133.079  0.00  0.00    +0.000 C 
BRANCH  14  16
ATOM     16  C   UNL     1      -5.868  -1.806 131.768  0.00  0.00    +0.000 A 
ATOM     17  C   UNL     1      -4.464  -1.932 131.923  0.00  0.00    +0.000 A 
ATOM     18  C   UNL     1      -3.632  -0.811 131.948  0.00  0.00    +0.000 A 
ATOM     19  C   UNL     1      -4.179   0.457 131.823  0.00  0.00    +0.000 A 
ATOM     20  C   UNL     1      -5.553   0.609 131.686  0.00  0.00    +0.000 A 
ATOM     21  C   UNL     1      -6.402  -0.502 131.673  0.00  0.00    +0.000 A 
ATOM     22  I   UNL     1      -8.445   0.065 131.576  0.00  0.00    +0.000 I 
ENDBRANCH  14  16
ENDBRANCH  13  14
ENDBRANCH  12  13
ENDBRANCH   1  12
TORSDOF 12
ENDMDL
