MODEL 1
REMARK VINA RESULT:      -5.8      0.000      0.000
REMARK  Name = Iopodic acid
REMARK  7 active torsions:
REMARK  status: ('A' for Active; 'I' for Inactive)
REMARK    1  A    between atoms: C_1  and  N_2
REMARK    2  A    between atoms: N_2  and  C_3
REMARK    3  A    between atoms: N_5  and  C_6
REMARK    4  A    between atoms: C_12  and  C_13
REMARK    5  A    between atoms: C_13  and  C_14
REMARK    6  A    between atoms: C_14  and  C_15
REMARK    7  A    between atoms: C_15  and  O_16
REMARK                            x       y       z     vdW  Elec       q    Type
REMARK                         _______ _______ _______ _____ _____    ______ ____
ROOT
ATOM      1  C   UNL     1      -7.745   2.027 123.992  0.00  0.00    +0.000 A 
ATOM      2  C   UNL     1      -6.803   2.420 124.951  0.00  0.00    +0.000 A 
ATOM      3  I   UNL     1      -5.637   4.169 124.791  0.00  0.00    +0.000 I 
ATOM      4  C   UNL     1      -6.658   1.706 126.143  0.00  0.00    +0.000 A 
ATOM      5  C   UNL     1      -7.489   0.615 126.427  0.00  0.00    +0.000 A 
ATOM      6  I   UNL     1      -7.244  -0.176 128.396  0.00  0.00    +0.000 I 
ATOM      7  C   UNL     1      -8.452   0.137 125.499  0.00  0.00    +0.000 A 
ATOM      8  C   UNL     1      -8.549   0.876 124.273  0.00  0.00    +0.000 A 
ATOM      9  I   UNL     1      -9.987   0.469 122.571  0.00  0.00    +0.000 I 
ENDROOT
BRANCH   1  14
ATOM     10  C   UNL     1      -6.435   4.326 119.968  0.00  0.00    +0.000 C 
ATOM     11  N   UNL     1      -7.481   3.773 120.800  0.00  0.00    +0.000 N 
ATOM     12  C   UNL     1      -8.864   3.949 120.381  0.00  0.00    +0.000 C 
ATOM     13  C   UNL     1      -7.193   3.111 121.968  0.00  0.00    +0.000 C 
ATOM     14  N   UNL     1      -8.072   2.792 122.854  0.00  0.00    +0.000 NA
ENDBRANCH   1  14
BRANCH   7  15
ATOM     15  C   UNL     1      -9.267  -1.081 125.928  0.00  0.00    +0.000 C 
BRANCH  15  16
ATOM     16  C   UNL     1      -8.761  -2.428 125.490  0.00  0.00    +0.000 C 
BRANCH  16  17
ATOM     17  C   UNL     1      -8.870  -2.887 124.075  0.00  0.00    +0.000 C 
ATOM     18  O   UNL     1      -7.913  -2.791 123.307  0.00  0.00    +0.000 OA
BRANCH  17  19
ATOM     19  O   UNL     1     -10.043  -3.397 123.684  0.00  0.00    +0.000 OA
ATOM     20  H   UNL     1     -10.609  -2.813 123.152  0.00  0.00    +0.000 HD
ENDBRANCH  17  19
ENDBRANCH  16  17
ENDBRANCH  15  16
ENDBRANCH   7  15
TORSDOF 5
ENDMDL
MODEL 2
REMARK VINA RESULT:      -5.5      3.631      6.391
REMARK  Name = Iopodic acid
REMARK  7 active torsions:
REMARK  status: ('A' for Active; 'I' for Inactive)
REMARK    1  A    between atoms: C_1  and  N_2
REMARK    2  A    between atoms: N_2  and  C_3
REMARK    3  A    between atoms: N_5  and  C_6
REMARK    4  A    between atoms: C_12  and  C_13
REMARK    5  A    between atoms: C_13  and  C_14
REMARK    6  A    between atoms: C_14  and  C_15
REMARK    7  A    between atoms: C_15  and  O_16
REMARK                            x       y       z     vdW  Elec       q    Type
REMARK                         _______ _______ _______ _____ _____    ______ ____
ROOT
ATOM      1  C   UNL     1      -7.225  -0.502 127.463  0.00  0.00    +0.000 A 
ATOM      2  C   UNL     1      -7.662  -1.832 127.505  0.00  0.00    +0.000 A 
ATOM      3  I   UNL     1      -7.867  -2.937 129.288  0.00  0.00    +0.000 I 
ATOM      4  C   UNL     1      -8.093  -2.477 126.343  0.00  0.00    +0.000 A 
ATOM      5  C   UNL     1      -8.147  -1.791 125.123  0.00  0.00    +0.000 A 
ATOM      6  I   UNL     1      -9.052  -2.902 123.539  0.00  0.00    +0.000 I 
ATOM      7  C   UNL     1      -7.700  -0.449 124.991  0.00  0.00    +0.000 A 
ATOM      8  C   UNL     1      -7.234   0.169 126.198  0.00  0.00    +0.000 A 
ATOM      9  I   UNL     1      -6.491   2.298 126.417  0.00  0.00    +0.000 I 
ENDROOT
BRANCH   1  14
ATOM     10  C   UNL     1      -8.712   2.118 131.221  0.00  0.00    +0.000 C 
ATOM     11  N   UNL     1      -7.651   1.405 130.544  0.00  0.00    +0.000 N 
ATOM     12  C   UNL     1      -6.318   1.429 131.129  0.00  0.00    +0.000 C 
ATOM     13  C   UNL     1      -7.877   0.731 129.369  0.00  0.00    +0.000 C 
ATOM     14  N   UNL     1      -6.945   0.267 128.611  0.00  0.00    +0.000 NA
ENDBRANCH   1  14
BRANCH   7  15
ATOM     15  C   UNL     1      -7.787   0.164 123.596  0.00  0.00    +0.000 C 
BRANCH  15  16
ATOM     16  C   UNL     1      -8.778   1.279 123.401  0.00  0.00    +0.000 C 
BRANCH  16  17
ATOM     17  C   UNL     1     -10.248   1.028 123.365  0.00  0.00    +0.000 C 
ATOM     18  O   UNL     1     -10.751   0.368 122.456  0.00  0.00    +0.000 OA
BRANCH  17  19
ATOM     19  O   UNL     1     -10.983   1.549 124.353  0.00  0.00    +0.000 OA
ATOM     20  H   UNL     1     -11.736   1.014 124.656  0.00  0.00    +0.000 HD
ENDBRANCH  17  19
ENDBRANCH  16  17
ENDBRANCH  15  16
ENDBRANCH   7  15
TORSDOF 5
ENDMDL
MODEL 3
REMARK VINA RESULT:      -5.4      3.827      6.552
REMARK  Name = Iopodic acid
REMARK  7 active torsions:
REMARK  status: ('A' for Active; 'I' for Inactive)
REMARK    1  A    between atoms: C_1  and  N_2
REMARK    2  A    between atoms: N_2  and  C_3
REMARK    3  A    between atoms: N_5  and  C_6
REMARK    4  A    between atoms: C_12  and  C_13
REMARK    5  A    between atoms: C_13  and  C_14
REMARK    6  A    between atoms: C_14  and  C_15
REMARK    7  A    between atoms: C_15  and  O_16
REMARK                            x       y       z     vdW  Elec       q    Type
REMARK                         _______ _______ _______ _____ _____    ______ ____
ROOT
ATOM      1  C   UNL     1      -6.916  -0.646 127.410  0.00  0.00    +0.000 A 
ATOM      2  C   UNL     1      -7.529  -1.903 127.477  0.00  0.00    +0.000 A 
ATOM      3  I   UNL     1      -7.879  -2.935 129.281  0.00  0.00    +0.000 I 
ATOM      4  C   UNL     1      -8.046  -2.506 126.328  0.00  0.00    +0.000 A 
ATOM      5  C   UNL     1      -8.009  -1.843 125.095  0.00  0.00    +0.000 A 
ATOM      6  I   UNL     1      -9.058  -2.852 123.532  0.00  0.00    +0.000 I 
ATOM      7  C   UNL     1      -7.384  -0.578 124.936  0.00  0.00    +0.000 A 
ATOM      8  C   UNL     1      -6.836  -0.005 126.132  0.00  0.00    +0.000 A 
ATOM      9  I   UNL     1      -5.811   2.007 126.308  0.00  0.00    +0.000 I 
ENDROOT
BRANCH   1  14
ATOM     10  C   UNL     1      -4.110  -0.037 131.277  0.00  0.00    +0.000 C 
ATOM     11  N   UNL     1      -5.064   0.506 130.334  0.00  0.00    +0.000 N 
ATOM     12  C   UNL     1      -5.540   1.866 130.537  0.00  0.00    +0.000 C 
ATOM     13  C   UNL     1      -5.531  -0.238 129.279  0.00  0.00    +0.000 C 
ATOM     14  N   UNL     1      -6.532   0.101 128.542  0.00  0.00    +0.000 NA
ENDBRANCH   1  14
BRANCH   7  15
ATOM     15  C   UNL     1      -7.389   0.014 123.529  0.00  0.00    +0.000 C 
BRANCH  15  16
ATOM     16  C   UNL     1      -8.175   1.280 123.325  0.00  0.00    +0.000 C 
BRANCH  16  17
ATOM     17  C   UNL     1      -9.555   1.446 123.867  0.00  0.00    +0.000 C 
ATOM     18  O   UNL     1     -10.475   0.730 123.475  0.00  0.00    +0.000 OA
BRANCH  17  19
ATOM     19  O   UNL     1      -9.741   2.400 124.786  0.00  0.00    +0.000 OA
ATOM     20  H   UNL     1     -10.360   3.112 124.546  0.00  0.00    +0.000 HD
ENDBRANCH  17  19
ENDBRANCH  16  17
ENDBRANCH  15  16
ENDBRANCH   7  15
TORSDOF 5
ENDMDL
MODEL 4
REMARK VINA RESULT:      -5.2      3.995      6.239
REMARK  Name = Iopodic acid
REMARK  7 active torsions:
REMARK  status: ('A' for Active; 'I' for Inactive)
REMARK    1  A    between atoms: C_1  and  N_2
REMARK    2  A    between atoms: N_2  and  C_3
REMARK    3  A    between atoms: N_5  and  C_6
REMARK    4  A    between atoms: C_12  and  C_13
REMARK    5  A    between atoms: C_13  and  C_14
REMARK    6  A    between atoms: C_14  and  C_15
REMARK    7  A    between atoms: C_15  and  O_16
REMARK                            x       y       z     vdW  Elec       q    Type
REMARK                         _______ _______ _______ _____ _____    ______ ____
ROOT
ATOM      1  C   UNL     1      -6.854   0.288 126.389  0.00  0.00    +0.000 A 
ATOM      2  C   UNL     1      -5.875   0.229 127.389  0.00  0.00    +0.000 A 
ATOM      3  I   UNL     1      -5.659  -1.395 128.715  0.00  0.00    +0.000 I 
ATOM      4  C   UNL     1      -4.902   1.226 127.494  0.00  0.00    +0.000 A 
ATOM      5  C   UNL     1      -4.853   2.277 126.568  0.00  0.00    +0.000 A 
ATOM      6  I   UNL     1      -3.151   3.548 126.785  0.00  0.00    +0.000 I 
ATOM      7  C   UNL     1      -5.822   2.423 125.541  0.00  0.00    +0.000 A 
ATOM      8  C   UNL     1      -6.825   1.398 125.485  0.00  0.00    +0.000 A 
ATOM      9  I   UNL     1      -8.503   1.243 123.973  0.00  0.00    +0.000 I 
ENDROOT
BRANCH   1  14
ATOM     10  C   UNL     1      -7.794  -4.040 124.498  0.00  0.00    +0.000 C 
ATOM     11  N   UNL     1      -8.196  -2.940 125.347  0.00  0.00    +0.000 N 
ATOM     12  C   UNL     1      -9.510  -2.992 125.972  0.00  0.00    +0.000 C 
ATOM     13  C   UNL     1      -7.376  -1.858 125.554  0.00  0.00    +0.000 C 
ATOM     14  N   UNL     1      -7.754  -0.760 126.110  0.00  0.00    +0.000 NA
ENDBRANCH   1  14
BRANCH   7  15
ATOM     15  C   UNL     1      -5.665   3.633 124.623  0.00  0.00    +0.000 C 
BRANCH  15  16
ATOM     16  C   UNL     1      -6.418   4.879 125.001  0.00  0.00    +0.000 C 
BRANCH  16  17
ATOM     17  C   UNL     1      -7.650   4.829 125.841  0.00  0.00    +0.000 C 
ATOM     18  O   UNL     1      -7.579   4.908 127.067  0.00  0.00    +0.000 OA
BRANCH  17  19
ATOM     19  O   UNL     1      -8.819   4.692 125.206  0.00  0.00    +0.000 OA
ATOM     20  H   UNL     1      -9.047   3.792 124.916  0.00  0.00    +0.000 HD
ENDBRANCH  17  19
ENDBRANCH  16  17
ENDBRANCH  15  16
ENDBRANCH   7  15
TORSDOF 5
ENDMDL
MODEL 5
REMARK VINA RESULT:      -5.1      7.967      9.376
REMARK  Name = Iopodic acid
REMARK  7 active torsions:
REMARK  status: ('A' for Active; 'I' for Inactive)
REMARK    1  A    between atoms: C_1  and  N_2
REMARK    2  A    between atoms: N_2  and  C_3
REMARK    3  A    between atoms: N_5  and  C_6
REMARK    4  A    between atoms: C_12  and  C_13
REMARK    5  A    between atoms: C_13  and  C_14
REMARK    6  A    between atoms: C_14  and  C_15
REMARK    7  A    between atoms: C_15  and  O_16
REMARK                            x       y       z     vdW  Elec       q    Type
REMARK                         _______ _______ _______ _____ _____    ______ ____
ROOT
ATOM      1  C   UNL     1      -5.231   5.018 131.324  0.00  0.00    +0.000 A 
ATOM      2  C   UNL     1      -4.626   5.950 132.176  0.00  0.00    +0.000 A 
ATOM      3  I   UNL     1      -3.231   7.391 131.526  0.00  0.00    +0.000 I 
ATOM      4  C   UNL     1      -5.004   6.040 133.518  0.00  0.00    +0.000 A 
ATOM      5  C   UNL     1      -6.033   5.236 134.025  0.00  0.00    +0.000 A 
ATOM      6  I   UNL     1      -6.595   5.706 136.031  0.00  0.00    +0.000 I 
ATOM      7  C   UNL     1      -6.681   4.250 133.234  0.00  0.00    +0.000 A 
ATOM      8  C   UNL     1      -6.243   4.166 131.871  0.00  0.00    +0.000 A 
ATOM      9  I   UNL     1      -7.057   2.769 130.284  0.00  0.00    +0.000 I 
ENDROOT
BRANCH   1  14
ATOM     10  C   UNL     1      -2.460   4.058 127.503  0.00  0.00    +0.000 C 
ATOM     11  N   UNL     1      -3.765   4.367 128.048  0.00  0.00    +0.000 N 
ATOM     12  C   UNL     1      -4.874   4.550 127.123  0.00  0.00    +0.000 C 
ATOM     13  C   UNL     1      -3.963   4.503 129.399  0.00  0.00    +0.000 C 
ATOM     14  N   UNL     1      -5.033   4.987 129.928  0.00  0.00    +0.000 NA
ENDBRANCH   1  14
BRANCH   7  15
ATOM     15  C   UNL     1      -7.763   3.425 133.926  0.00  0.00    +0.000 C 
BRANCH  15  16
ATOM     16  C   UNL     1      -9.187   3.870 133.734  0.00  0.00    +0.000 C 
BRANCH  16  17
ATOM     17  C   UNL     1      -9.534   5.061 132.905  0.00  0.00    +0.000 C 
ATOM     18  O   UNL     1      -9.825   4.937 131.716  0.00  0.00    +0.000 OA
BRANCH  17  19
ATOM     19  O   UNL     1      -9.511   6.255 133.508  0.00  0.00    +0.000 OA
ATOM     20  H   UNL     1      -9.168   6.996 132.980  0.00  0.00    +0.000 HD
ENDBRANCH  17  19
ENDBRANCH  16  17
ENDBRANCH  15  16
ENDBRANCH   7  15
TORSDOF 5
ENDMDL
MODEL 6
REMARK VINA RESULT:      -5.1      4.068      6.485
REMARK  Name = Iopodic acid
REMARK  7 active torsions:
REMARK  status: ('A' for Active; 'I' for Inactive)
REMARK    1  A    between atoms: C_1  and  N_2
REMARK    2  A    between atoms: N_2  and  C_3
REMARK    3  A    between atoms: N_5  and  C_6
REMARK    4  A    between atoms: C_12  and  C_13
REMARK    5  A    between atoms: C_13  and  C_14
REMARK    6  A    between atoms: C_14  and  C_15
REMARK    7  A    between atoms: C_15  and  O_16
REMARK                            x       y       z     vdW  Elec       q    Type
REMARK                         _______ _______ _______ _____ _____    ______ ____
ROOT
ATOM      1  C   UNL     1      -6.200  -0.167 127.369  0.00  0.00    +0.000 A 
ATOM      2  C   UNL     1      -5.716   1.078 127.789  0.00  0.00    +0.000 A 
ATOM      3  I   UNL     1      -4.800   1.402 129.660  0.00  0.00    +0.000 I 
ATOM      4  C   UNL     1      -5.725   2.175 126.924  0.00  0.00    +0.000 A 
ATOM      5  C   UNL     1      -6.168   2.039 125.602  0.00  0.00    +0.000 A 
ATOM      6  I   UNL     1      -5.876   3.782 124.403  0.00  0.00    +0.000 I 
ATOM      7  C   UNL     1      -6.697   0.818 125.105  0.00  0.00    +0.000 A 
ATOM      8  C   UNL     1      -6.702  -0.276 126.032  0.00  0.00    +0.000 A 
ATOM      9  I   UNL     1      -7.409  -2.387 125.613  0.00  0.00    +0.000 I 
ENDROOT
BRANCH   1  14
ATOM     10  C   UNL     1      -3.471  -3.725 129.127  0.00  0.00    +0.000 C 
ATOM     11  N   UNL     1      -4.726  -3.004 129.125  0.00  0.00    +0.000 N 
ATOM     12  C   UNL     1      -5.801  -3.485 129.981  0.00  0.00    +0.000 C 
ATOM     13  C   UNL     1      -4.918  -1.902 128.329  0.00  0.00    +0.000 C 
ATOM     14  N   UNL     1      -6.064  -1.354 128.116  0.00  0.00    +0.000 NA
ENDBRANCH   1  14
BRANCH   7  15
ATOM     15  C   UNL     1      -7.172   0.822 123.655  0.00  0.00    +0.000 C 
BRANCH  15  16
ATOM     16  C   UNL     1      -8.653   0.940 123.422  0.00  0.00    +0.000 C 
BRANCH  16  17
ATOM     17  C   UNL     1      -9.589   1.357 124.507  0.00  0.00    +0.000 C 
ATOM     18  O   UNL     1     -10.262   0.524 125.113  0.00  0.00    +0.000 OA
BRANCH  17  19
ATOM     19  O   UNL     1      -9.662   2.664 124.784  0.00  0.00    +0.000 OA
ATOM     20  H   UNL     1      -9.272   2.946 125.629  0.00  0.00    +0.000 HD
ENDBRANCH  17  19
ENDBRANCH  16  17
ENDBRANCH  15  16
ENDBRANCH   7  15
TORSDOF 5
ENDMDL
MODEL 7
REMARK VINA RESULT:      -5.0      4.496      6.312
REMARK  Name = Iopodic acid
REMARK  7 active torsions:
REMARK  status: ('A' for Active; 'I' for Inactive)
REMARK    1  A    between atoms: C_1  and  N_2
REMARK    2  A    between atoms: N_2  and  C_3
REMARK    3  A    between atoms: N_5  and  C_6
REMARK    4  A    between atoms: C_12  and  C_13
REMARK    5  A    between atoms: C_13  and  C_14
REMARK    6  A    between atoms: C_14  and  C_15
REMARK    7  A    between atoms: C_15  and  O_16
REMARK                            x       y       z     vdW  Elec       q    Type
REMARK                         _______ _______ _______ _____ _____    ______ ____
ROOT
ATOM      1  C   UNL     1      -7.921  -0.650 127.571  0.00  0.00    +0.000 A 
ATOM      2  C   UNL     1      -7.362  -0.930 128.824  0.00  0.00    +0.000 A 
ATOM      3  I   UNL     1      -6.720  -2.849 129.413  0.00  0.00    +0.000 I 
ATOM      4  C   UNL     1      -7.101   0.098 129.734  0.00  0.00    +0.000 A 
ATOM      5  C   UNL     1      -7.344   1.434 129.390  0.00  0.00    +0.000 A 
ATOM      6  I   UNL     1      -6.657   2.843 130.841  0.00  0.00    +0.000 I 
ATOM      7  C   UNL     1      -7.931   1.801 128.150  0.00  0.00    +0.000 A 
ATOM      8  C   UNL     1      -8.214   0.716 127.256  0.00  0.00    +0.000 A 
ATOM      9  I   UNL     1      -9.097   0.886 125.177  0.00  0.00    +0.000 I 
ENDROOT
BRANCH   1  14
ATOM     10  C   UNL     1      -5.978  -3.320 124.065  0.00  0.00    +0.000 C 
ATOM     11  N   UNL     1      -7.095  -3.038 124.940  0.00  0.00    +0.000 N 
ATOM     12  C   UNL     1      -8.310  -3.824 124.785  0.00  0.00    +0.000 C 
ATOM     13  C   UNL     1      -7.031  -2.046 125.887  0.00  0.00    +0.000 C 
ATOM     14  N   UNL     1      -8.048  -1.602 126.539  0.00  0.00    +0.000 NA
ENDBRANCH   1  14
BRANCH   7  15
ATOM     15  C   UNL     1      -8.167   3.291 127.922  0.00  0.00    +0.000 C 
BRANCH  15  16
ATOM     16  C   UNL     1      -7.426   3.933 126.781  0.00  0.00    +0.000 C 
BRANCH  16  17
ATOM     17  C   UNL     1      -8.128   4.753 125.750  0.00  0.00    +0.000 C 
ATOM     18  O   UNL     1      -8.909   5.645 126.080  0.00  0.00    +0.000 OA
BRANCH  17  19
ATOM     19  O   UNL     1      -7.873   4.473 124.467  0.00  0.00    +0.000 OA
ATOM     20  H   UNL     1      -7.024   4.035 124.284  0.00  0.00    +0.000 HD
ENDBRANCH  17  19
ENDBRANCH  16  17
ENDBRANCH  15  16
ENDBRANCH   7  15
TORSDOF 5
ENDMDL
MODEL 8
REMARK VINA RESULT:      -5.0      7.983     10.369
REMARK  Name = Iopodic acid
REMARK  7 active torsions:
REMARK  status: ('A' for Active; 'I' for Inactive)
REMARK    1  A    between atoms: C_1  and  N_2
REMARK    2  A    between atoms: N_2  and  C_3
REMARK    3  A    between atoms: N_5  and  C_6
REMARK    4  A    between atoms: C_12  and  C_13
REMARK    5  A    between atoms: C_13  and  C_14
REMARK    6  A    between atoms: C_14  and  C_15
REMARK    7  A    between atoms: C_15  and  O_16
REMARK                            x       y       z     vdW  Elec       q    Type
REMARK                         _______ _______ _______ _____ _____    ______ ____
ROOT
ATOM      1  C   UNL     1      -5.378   4.403 131.902  0.00  0.00    +0.000 A 
ATOM      2  C   UNL     1      -5.561   5.340 132.926  0.00  0.00    +0.000 A 
ATOM      3  I   UNL     1      -7.032   5.157 134.425  0.00  0.00    +0.000 I 
ATOM      4  C   UNL     1      -4.686   6.419 133.069  0.00  0.00    +0.000 A 
ATOM      5  C   UNL     1      -3.578   6.557 132.224  0.00  0.00    +0.000 A 
ATOM      6  I   UNL     1      -2.257   8.144 132.771  0.00  0.00    +0.000 I 
ATOM      7  C   UNL     1      -3.335   5.665 131.145  0.00  0.00    +0.000 A 
ATOM      8  C   UNL     1      -4.273   4.588 131.011  0.00  0.00    +0.000 A 
ATOM      9  I   UNL     1      -4.207   2.936 129.463  0.00  0.00    +0.000 I 
ENDROOT
BRANCH   1  14
ATOM     10  C   UNL     1      -9.549   2.061 131.331  0.00  0.00    +0.000 C 
ATOM     11  N   UNL     1      -8.102   2.039 131.353  0.00  0.00    +0.000 N 
ATOM     12  C   UNL     1      -7.428   0.761 131.176  0.00  0.00    +0.000 C 
ATOM     13  C   UNL     1      -7.370   3.183 131.552  0.00  0.00    +0.000 C 
ATOM     14  N   UNL     1      -6.107   3.200 131.800  0.00  0.00    +0.000 NA
ENDBRANCH   1  14
BRANCH   7  15
ATOM     15  C   UNL     1      -2.107   5.953 130.285  0.00  0.00    +0.000 C 
BRANCH  15  16
ATOM     16  C   UNL     1      -2.353   6.497 128.905  0.00  0.00    +0.000 C 
BRANCH  16  17
ATOM     17  C   UNL     1      -3.687   7.025 128.494  0.00  0.00    +0.000 C 
ATOM     18  O   UNL     1      -4.418   6.375 127.747  0.00  0.00    +0.000 OA
BRANCH  17  19
ATOM     19  O   UNL     1      -4.044   8.224 128.968  0.00  0.00    +0.000 OA
ATOM     20  H   UNL     1      -4.752   8.228 129.635  0.00  0.00    +0.000 HD
ENDBRANCH  17  19
ENDBRANCH  16  17
ENDBRANCH  15  16
ENDBRANCH   7  15
TORSDOF 5
ENDMDL
MODEL 9
REMARK VINA RESULT:      -4.9      4.064      6.802
REMARK  Name = Iopodic acid
REMARK  7 active torsions:
REMARK  status: ('A' for Active; 'I' for Inactive)
REMARK    1  A    between atoms: C_1  and  N_2
REMARK    2  A    between atoms: N_2  and  C_3
REMARK    3  A    between atoms: N_5  and  C_6
REMARK    4  A    between atoms: C_12  and  C_13
REMARK    5  A    between atoms: C_13  and  C_14
REMARK    6  A    between atoms: C_14  and  C_15
REMARK    7  A    between atoms: C_15  and  O_16
REMARK                            x       y       z     vdW  Elec       q    Type
REMARK                         _______ _______ _______ _____ _____    ______ ____
ROOT
ATOM      1  C   UNL     1      -7.677  -0.386 127.796  0.00  0.00    +0.000 A 
ATOM      2  C   UNL     1      -7.764  -1.774 127.630  0.00  0.00    +0.000 A 
ATOM      3  I   UNL     1      -7.660  -3.149 129.225  0.00  0.00    +0.000 I 
ATOM      4  C   UNL     1      -8.036  -2.326 126.376  0.00  0.00    +0.000 A 
ATOM      5  C   UNL     1      -8.278  -1.501 125.270  0.00  0.00    +0.000 A 
ATOM      6  I   UNL     1      -8.895  -2.555 123.518  0.00  0.00    +0.000 I 
ATOM      7  C   UNL     1      -8.184  -0.086 125.348  0.00  0.00    +0.000 A 
ATOM      8  C   UNL     1      -7.872   0.442 126.645  0.00  0.00    +0.000 A 
ATOM      9  I   UNL     1      -7.686   2.632 127.193  0.00  0.00    +0.000 I 
ENDROOT
BRANCH   1  14
ATOM     10  C   UNL     1      -5.142   0.804 131.715  0.00  0.00    +0.000 C 
ATOM     11  N   UNL     1      -6.318   0.985 130.891  0.00  0.00    +0.000 N 
ATOM     12  C   UNL     1      -7.348   1.905 131.350  0.00  0.00    +0.000 C 
ATOM     13  C   UNL     1      -6.479   0.301 129.712  0.00  0.00    +0.000 C 
ATOM     14  N   UNL     1      -7.583   0.248 129.051  0.00  0.00    +0.000 NA
ENDBRANCH   1  14
BRANCH   7  15
ATOM     15  C   UNL     1      -8.442   0.687 124.057  0.00  0.00    +0.000 C 
BRANCH  15  16
ATOM     16  C   UNL     1      -7.262   1.370 123.423  0.00  0.00    +0.000 C 
BRANCH  16  17
ATOM     17  C   UNL     1      -7.193   2.855 123.288  0.00  0.00    +0.000 C 
ATOM     18  O   UNL     1      -6.123   3.449 123.419  0.00  0.00    +0.000 OA
BRANCH  17  19
ATOM     19  O   UNL     1      -8.335   3.500 123.025  0.00  0.00    +0.000 OA
ATOM     20  H   UNL     1      -8.269   4.260 122.422  0.00  0.00    +0.000 HD
ENDBRANCH  17  19
ENDBRANCH  16  17
ENDBRANCH  15  16
ENDBRANCH   7  15
TORSDOF 5
ENDMDL
