MODEL 1
REMARK VINA RESULT:      -5.5      0.000      0.000
REMARK  Name = Iothalamic acid
REMARK  6 active torsions:
REMARK  status: ('A' for Active; 'I' for Inactive)
REMARK    1  A    between atoms: C_1  and  N_2
REMARK    2  A    between atoms: C_3  and  C_5
REMARK    3  A    between atoms: C_8  and  C_9
REMARK    4  A    between atoms: C_9  and  O_10
REMARK    5  A    between atoms: C_14  and  N_15
REMARK    6  A    between atoms: C_16  and  C_17
REMARK                            x       y       z     vdW  Elec       q    Type
REMARK                         _______ _______ _______ _____ _____    ______ ____
ROOT
ATOM      1  C   UNL     1      -7.252   0.635 127.556  0.00  0.00    +0.000 A 
ATOM      2  C   UNL     1      -7.328   1.906 126.938  0.00  0.00    +0.000 A 
ATOM      3  I   UNL     1      -6.100   3.460 127.932  0.00  0.00    +0.000 I 
ATOM      4  C   UNL     1      -8.029   2.116 125.708  0.00  0.00    +0.000 A 
ATOM      5  C   UNL     1      -8.608   0.943 125.100  0.00  0.00    +0.000 A 
ATOM      6  I   UNL     1      -9.526   1.071 123.063  0.00  0.00    +0.000 I 
ATOM      7  C   UNL     1      -8.574  -0.404 125.689  0.00  0.00    +0.000 A 
ATOM      8  C   UNL     1      -7.849  -0.506 126.954  0.00  0.00    +0.000 A 
ATOM      9  I   UNL     1      -7.357  -2.419 128.472  0.00  0.00    +0.000 I 
ENDROOT
BRANCH   1  12
ATOM     10  C   UNL     1      -4.289   0.021 129.808  0.00  0.00    +0.000 C 
ATOM     11  N   UNL     1      -5.113   0.136 128.630  0.00  0.00    +0.000 N 
ATOM     12  C   UNL     1      -6.447   0.443 128.791  0.00  0.00    +0.000 C 
ATOM     13  O   UNL     1      -6.980   0.588 129.885  0.00  0.00    +0.000 OA
ATOM     14  H   UNL     1      -4.833  -0.361 127.793  0.00  0.00    +0.000 HD
ENDBRANCH   1  12
BRANCH   7  15
ATOM     15  N   UNL     1      -9.303  -1.398 124.891  0.00  0.00    +0.000 N 
ATOM     16  C   UNL     1      -8.981  -2.572 124.241  0.00  0.00    +0.000 C 
ATOM     17  C   UNL     1      -7.597  -2.990 124.346  0.00  0.00    +0.000 C 
ATOM     18  O   UNL     1      -9.800  -3.244 123.619  0.00  0.00    +0.000 OA
ATOM     19  H   UNL     1     -10.308  -1.249 124.790  0.00  0.00    +0.000 HD
ENDBRANCH   7  15
BRANCH   4  20
ATOM     20  C   UNL     1      -8.126   3.545 125.170  0.00  0.00    +0.000 C 
ATOM     21  O   UNL     1      -8.942   4.369 125.587  0.00  0.00    +0.000 OA
BRANCH  20  22
ATOM     22  O   UNL     1      -7.353   3.967 124.164  0.00  0.00    +0.000 OA
ATOM     23  H   UNL     1      -7.331   4.915 123.954  0.00  0.00    +0.000 HD
ENDBRANCH  20  22
ENDBRANCH   4  20
TORSDOF 4
ENDMDL
MODEL 2
REMARK VINA RESULT:      -5.5      1.566      5.008
REMARK  Name = Iothalamic acid
REMARK  6 active torsions:
REMARK  status: ('A' for Active; 'I' for Inactive)
REMARK    1  A    between atoms: C_1  and  N_2
REMARK    2  A    between atoms: C_3  and  C_5
REMARK    3  A    between atoms: C_8  and  C_9
REMARK    4  A    between atoms: C_9  and  O_10
REMARK    5  A    between atoms: C_14  and  N_15
REMARK    6  A    between atoms: C_16  and  C_17
REMARK                            x       y       z     vdW  Elec       q    Type
REMARK                         _______ _______ _______ _____ _____    ______ ____
ROOT
ATOM      1  C   UNL     1      -8.179  -0.512 126.374  0.00  0.00    +0.000 A 
ATOM      2  C   UNL     1      -8.263   0.698 125.645  0.00  0.00    +0.000 A 
ATOM      3  I   UNL     1      -9.135   0.466 123.621  0.00  0.00    +0.000 I 
ATOM      4  C   UNL     1      -7.936   1.964 126.227  0.00  0.00    +0.000 A 
ATOM      5  C   UNL     1      -7.572   1.944 127.623  0.00  0.00    +0.000 A 
ATOM      6  I   UNL     1      -7.268   3.865 128.732  0.00  0.00    +0.000 I 
ATOM      7  C   UNL     1      -7.457   0.726 128.438  0.00  0.00    +0.000 A 
ATOM      8  C   UNL     1      -7.795  -0.515 127.742  0.00  0.00    +0.000 A 
ATOM      9  I   UNL     1      -7.863  -2.897 128.470  0.00  0.00    +0.000 I 
ENDROOT
BRANCH   1  12
ATOM     10  C   UNL     1      -7.993  -3.829 124.586  0.00  0.00    +0.000 C 
ATOM     11  N   UNL     1      -7.629  -2.541 125.124  0.00  0.00    +0.000 N 
ATOM     12  C   UNL     1      -8.603  -1.797 125.757  0.00  0.00    +0.000 C 
ATOM     13  O   UNL     1      -9.771  -2.155 125.854  0.00  0.00    +0.000 OA
ATOM     14  H   UNL     1      -6.839  -2.053 124.721  0.00  0.00    +0.000 HD
ENDBRANCH   1  12
BRANCH   7  15
ATOM     15  N   UNL     1      -6.999   0.992 129.808  0.00  0.00    +0.000 N 
ATOM     16  C   UNL     1      -7.482   0.743 131.076  0.00  0.00    +0.000 C 
ATOM     17  C   UNL     1      -8.745   0.033 131.141  0.00  0.00    +0.000 C 
ATOM     18  O   UNL     1      -6.892   1.079 132.100  0.00  0.00    +0.000 OA
ATOM     19  H   UNL     1      -6.086   1.439 129.901  0.00  0.00    +0.000 HD
ENDBRANCH   7  15
BRANCH   4  20
ATOM     20  C   UNL     1      -7.975   3.201 125.328  0.00  0.00    +0.000 C 
ATOM     21  O   UNL     1      -7.006   3.589 124.673  0.00  0.00    +0.000 OA
BRANCH  20  22
ATOM     22  O   UNL     1      -9.064   3.972 125.246  0.00  0.00    +0.000 OA
ATOM     23  H   UNL     1      -9.895   3.655 125.636  0.00  0.00    +0.000 HD
ENDBRANCH  20  22
ENDBRANCH   4  20
TORSDOF 4
ENDMDL
MODEL 3
REMARK VINA RESULT:      -5.5      2.116      5.352
REMARK  Name = Iothalamic acid
REMARK  6 active torsions:
REMARK  status: ('A' for Active; 'I' for Inactive)
REMARK    1  A    between atoms: C_1  and  N_2
REMARK    2  A    between atoms: C_3  and  C_5
REMARK    3  A    between atoms: C_8  and  C_9
REMARK    4  A    between atoms: C_9  and  O_10
REMARK    5  A    between atoms: C_14  and  N_15
REMARK    6  A    between atoms: C_16  and  C_17
REMARK                            x       y       z     vdW  Elec       q    Type
REMARK                         _______ _______ _______ _____ _____    ______ ____
ROOT
ATOM      1  C   UNL     1      -7.067   0.911 124.853  0.00  0.00    +0.000 A 
ATOM      2  C   UNL     1      -6.928   2.219 124.329  0.00  0.00    +0.000 A 
ATOM      3  I   UNL     1      -8.328   2.674 122.674  0.00  0.00    +0.000 I 
ATOM      4  C   UNL     1      -6.053   3.187 124.917  0.00  0.00    +0.000 A 
ATOM      5  C   UNL     1      -5.361   2.772 126.114  0.00  0.00    +0.000 A 
ATOM      6  I   UNL     1      -4.147   4.250 127.277  0.00  0.00    +0.000 I 
ATOM      7  C   UNL     1      -5.452   1.431 126.707  0.00  0.00    +0.000 A 
ATOM      8  C   UNL     1      -6.360   0.513 126.019  0.00  0.00    +0.000 A 
ATOM      9  I   UNL     1      -7.032  -1.845 126.458  0.00  0.00    +0.000 I 
ENDROOT
BRANCH   1  12
ATOM     10  C   UNL     1      -8.497  -1.843 122.708  0.00  0.00    +0.000 C 
ATOM     11  N   UNL     1      -7.594  -0.856 123.247  0.00  0.00    +0.000 N 
ATOM     12  C   UNL     1      -8.046  -0.039 124.262  0.00  0.00    +0.000 C 
ATOM     13  O   UNL     1      -9.187  -0.082 124.707  0.00  0.00    +0.000 OA
ATOM     14  H   UNL     1      -6.838  -0.520 122.662  0.00  0.00    +0.000 HD
ENDBRANCH   1  12
BRANCH   7  15
ATOM     15  N   UNL     1      -4.588   1.262 127.882  0.00  0.00    +0.000 N 
ATOM     16  C   UNL     1      -4.783   1.001 129.222  0.00  0.00    +0.000 C 
ATOM     17  C   UNL     1      -6.162   0.826 129.636  0.00  0.00    +0.000 C 
ATOM     18  O   UNL     1      -3.863   0.906 130.032  0.00  0.00    +0.000 OA
ATOM     19  H   UNL     1      -3.582   1.305 127.714  0.00  0.00    +0.000 HD
ENDBRANCH   7  15
BRANCH   4  20
ATOM     20  C   UNL     1      -5.908   4.542 124.222  0.00  0.00    +0.000 C 
ATOM     21  O   UNL     1      -5.245   4.706 123.196  0.00  0.00    +0.000 OA
BRANCH  20  22
ATOM     22  O   UNL     1      -6.459   5.650 124.728  0.00  0.00    +0.000 OA
ATOM     23  H   UNL     1      -5.898   6.269 125.223  0.00  0.00    +0.000 HD
ENDBRANCH  20  22
ENDBRANCH   4  20
TORSDOF 4
ENDMDL
MODEL 4
REMARK VINA RESULT:      -5.3      2.541      2.906
REMARK  Name = Iothalamic acid
REMARK  6 active torsions:
REMARK  status: ('A' for Active; 'I' for Inactive)
REMARK    1  A    between atoms: C_1  and  N_2
REMARK    2  A    between atoms: C_3  and  C_5
REMARK    3  A    between atoms: C_8  and  C_9
REMARK    4  A    between atoms: C_9  and  O_10
REMARK    5  A    between atoms: C_14  and  N_15
REMARK    6  A    between atoms: C_16  and  C_17
REMARK                            x       y       z     vdW  Elec       q    Type
REMARK                         _______ _______ _______ _____ _____    ______ ____
ROOT
ATOM      1  C   UNL     1      -6.973  -1.544 128.530  0.00  0.00    +0.000 A 
ATOM      2  C   UNL     1      -6.167  -0.395 128.352  0.00  0.00    +0.000 A 
ATOM      3  I   UNL     1      -4.689  -0.077 129.972  0.00  0.00    +0.000 I 
ATOM      4  C   UNL     1      -6.223   0.399 127.162  0.00  0.00    +0.000 A 
ATOM      5  C   UNL     1      -7.108  -0.074 126.126  0.00  0.00    +0.000 A 
ATOM      6  I   UNL     1      -7.125   0.924 124.122  0.00  0.00    +0.000 I 
ATOM      7  C   UNL     1      -7.979  -1.252 126.246  0.00  0.00    +0.000 A 
ATOM      8  C   UNL     1      -7.858  -1.982 127.508  0.00  0.00    +0.000 A 
ATOM      9  I   UNL     1      -8.958  -4.038 128.384  0.00  0.00    +0.000 I 
ENDROOT
BRANCH   1  12
ATOM     10  C   UNL     1      -5.691  -4.199 130.883  0.00  0.00    +0.000 C 
ATOM     11  N   UNL     1      -5.911  -3.415 129.693  0.00  0.00    +0.000 N 
ATOM     12  C   UNL     1      -6.828  -2.387 129.746  0.00  0.00    +0.000 C 
ATOM     13  O   UNL     1      -7.495  -2.127 130.742  0.00  0.00    +0.000 OA
ATOM     14  H   UNL     1      -5.713  -3.834 128.793  0.00  0.00    +0.000 HD
ENDBRANCH   1  12
BRANCH   7  15
ATOM     15  N   UNL     1      -8.829  -1.462 125.067  0.00  0.00    +0.000 N 
ATOM     16  C   UNL     1      -9.012  -2.475 124.150  0.00  0.00    +0.000 C 
ATOM     17  C   UNL     1      -8.205  -3.662 124.353  0.00  0.00    +0.000 C 
ATOM     18  O   UNL     1      -9.812  -2.406 123.219  0.00  0.00    +0.000 OA
ATOM     19  H   UNL     1      -9.491  -0.716 124.848  0.00  0.00    +0.000 HD
ENDBRANCH   7  15
BRANCH   4  20
ATOM     20  C   UNL     1      -5.374   1.671 127.105  0.00  0.00    +0.000 C 
ATOM     21  O   UNL     1      -5.787   2.773 127.471  0.00  0.00    +0.000 OA
BRANCH  20  22
ATOM     22  O   UNL     1      -4.138   1.665 126.598  0.00  0.00    +0.000 OA
ATOM     23  H   UNL     1      -3.427   2.112 127.086  0.00  0.00    +0.000 HD
ENDBRANCH  20  22
ENDBRANCH   4  20
TORSDOF 4
ENDMDL
MODEL 5
REMARK VINA RESULT:      -5.2      1.744      4.619
REMARK  Name = Iothalamic acid
REMARK  6 active torsions:
REMARK  status: ('A' for Active; 'I' for Inactive)
REMARK    1  A    between atoms: C_1  and  N_2
REMARK    2  A    between atoms: C_3  and  C_5
REMARK    3  A    between atoms: C_8  and  C_9
REMARK    4  A    between atoms: C_9  and  O_10
REMARK    5  A    between atoms: C_14  and  N_15
REMARK    6  A    between atoms: C_16  and  C_17
REMARK                            x       y       z     vdW  Elec       q    Type
REMARK                         _______ _______ _______ _____ _____    ______ ____
ROOT
ATOM      1  C   UNL     1      -6.605  -0.434 127.408  0.00  0.00    +0.000 A 
ATOM      2  C   UNL     1      -7.426  -1.551 127.123  0.00  0.00    +0.000 A 
ATOM      3  I   UNL     1      -7.742  -2.895 128.855  0.00  0.00    +0.000 I 
ATOM      4  C   UNL     1      -8.091  -1.708 125.866  0.00  0.00    +0.000 A 
ATOM      5  C   UNL     1      -7.925  -0.629 124.921  0.00  0.00    +0.000 A 
ATOM      6  I   UNL     1      -9.092  -0.618 123.011  0.00  0.00    +0.000 I 
ATOM      7  C   UNL     1      -7.082   0.554 125.148  0.00  0.00    +0.000 A 
ATOM      8  C   UNL     1      -6.433   0.608 126.457  0.00  0.00    +0.000 A 
ATOM      9  I   UNL     1      -4.932   2.280 127.532  0.00  0.00    +0.000 I 
ENDROOT
BRANCH   1  12
ATOM     10  C   UNL     1      -4.104  -0.623 130.226  0.00  0.00    +0.000 C 
ATOM     11  N   UNL     1      -4.755  -0.835 128.956  0.00  0.00    +0.000 N 
ATOM     12  C   UNL     1      -5.996  -0.268 128.754  0.00  0.00    +0.000 C 
ATOM     13  O   UNL     1      -6.592   0.377 129.610  0.00  0.00    +0.000 OA
ATOM     14  H   UNL     1      -4.510  -1.656 128.417  0.00  0.00    +0.000 HD
ENDBRANCH   1  12
BRANCH   7  15
ATOM     15  N   UNL     1      -7.039   1.458 123.991  0.00  0.00    +0.000 N 
ATOM     16  C   UNL     1      -7.512   2.722 123.707  0.00  0.00    +0.000 C 
ATOM     17  C   UNL     1      -8.228   3.382 124.782  0.00  0.00    +0.000 C 
ATOM     18  O   UNL     1      -7.341   3.280 122.626  0.00  0.00    +0.000 OA
ATOM     19  H   UNL     1      -6.509   1.132 123.181  0.00  0.00    +0.000 HD
ENDBRANCH   7  15
BRANCH   4  20
ATOM     20  C   UNL     1      -8.884  -2.995 125.626  0.00  0.00    +0.000 C 
ATOM     21  O   UNL     1      -8.365  -4.042 125.235  0.00  0.00    +0.000 OA
BRANCH  20  22
ATOM     22  O   UNL     1     -10.211  -3.037 125.778  0.00  0.00    +0.000 OA
ATOM     23  H   UNL     1     -10.726  -2.227 125.635  0.00  0.00    +0.000 HD
ENDBRANCH  20  22
ENDBRANCH   4  20
TORSDOF 4
ENDMDL
MODEL 6
REMARK VINA RESULT:      -5.2      2.300      5.820
REMARK  Name = Iothalamic acid
REMARK  6 active torsions:
REMARK  status: ('A' for Active; 'I' for Inactive)
REMARK    1  A    between atoms: C_1  and  N_2
REMARK    2  A    between atoms: C_3  and  C_5
REMARK    3  A    between atoms: C_8  and  C_9
REMARK    4  A    between atoms: C_9  and  O_10
REMARK    5  A    between atoms: C_14  and  N_15
REMARK    6  A    between atoms: C_16  and  C_17
REMARK                            x       y       z     vdW  Elec       q    Type
REMARK                         _______ _______ _______ _____ _____    ______ ____
ROOT
ATOM      1  C   UNL     1      -7.765   1.474 127.161  0.00  0.00    +0.000 A 
ATOM      2  C   UNL     1      -8.019   0.323 126.378  0.00  0.00    +0.000 A 
ATOM      3  I   UNL     1      -8.063   0.715 124.198  0.00  0.00    +0.000 I 
ATOM      4  C   UNL     1      -8.103  -0.986 126.950  0.00  0.00    +0.000 A 
ATOM      5  C   UNL     1      -7.853  -1.075 128.369  0.00  0.00    +0.000 A 
ATOM      6  I   UNL     1      -7.711  -3.076 129.361  0.00  0.00    +0.000 I 
ATOM      7  C   UNL     1      -7.591   0.078 129.243  0.00  0.00    +0.000 A 
ATOM      8  C   UNL     1      -7.545   1.371 128.561  0.00  0.00    +0.000 A 
ATOM      9  I   UNL     1      -7.125   3.691 129.364  0.00  0.00    +0.000 I 
ENDROOT
BRANCH   1  12
ATOM     10  C   UNL     1      -6.163   4.420 125.433  0.00  0.00    +0.000 C 
ATOM     11  N   UNL     1      -6.335   3.169 126.130  0.00  0.00    +0.000 N 
ATOM     12  C   UNL     1      -7.607   2.805 126.518  0.00  0.00    +0.000 C 
ATOM     13  O   UNL     1      -8.597   3.506 126.334  0.00  0.00    +0.000 OA
ATOM     14  H   UNL     1      -5.550   2.789 126.645  0.00  0.00    +0.000 HD
ENDBRANCH   1  12
BRANCH   7  15
ATOM     15  N   UNL     1      -7.442  -0.295 130.656  0.00  0.00    +0.000 N 
ATOM     16  C   UNL     1      -8.131  -0.036 131.822  0.00  0.00    +0.000 C 
ATOM     17  C   UNL     1      -9.313   0.793 131.686  0.00  0.00    +0.000 C 
ATOM     18  O   UNL     1      -7.792  -0.478 132.918  0.00  0.00    +0.000 OA
ATOM     19  H   UNL     1      -6.674  -0.930 130.878  0.00  0.00    +0.000 HD
ENDBRANCH   7  15
BRANCH   4  20
ATOM     20  C   UNL     1      -8.469  -2.152 126.030  0.00  0.00    +0.000 C 
ATOM     21  O   UNL     1      -7.631  -2.903 125.528  0.00  0.00    +0.000 OA
BRANCH  20  22
ATOM     22  O   UNL     1      -9.735  -2.389 125.671  0.00  0.00    +0.000 OA
ATOM     23  H   UNL     1     -10.379  -1.664 125.716  0.00  0.00    +0.000 HD
ENDBRANCH  20  22
ENDBRANCH   4  20
TORSDOF 4
ENDMDL
MODEL 7
REMARK VINA RESULT:      -5.1      1.834      5.769
REMARK  Name = Iothalamic acid
REMARK  6 active torsions:
REMARK  status: ('A' for Active; 'I' for Inactive)
REMARK    1  A    between atoms: C_1  and  N_2
REMARK    2  A    between atoms: C_3  and  C_5
REMARK    3  A    between atoms: C_8  and  C_9
REMARK    4  A    between atoms: C_9  and  O_10
REMARK    5  A    between atoms: C_14  and  N_15
REMARK    6  A    between atoms: C_16  and  C_17
REMARK                            x       y       z     vdW  Elec       q    Type
REMARK                         _______ _______ _______ _____ _____    ______ ____
ROOT
ATOM      1  C   UNL     1      -8.301  -0.594 126.640  0.00  0.00    +0.000 A 
ATOM      2  C   UNL     1      -7.982  -0.790 128.004  0.00  0.00    +0.000 A 
ATOM      3  I   UNL     1      -7.864  -2.920 128.600  0.00  0.00    +0.000 I 
ATOM      4  C   UNL     1      -7.638   0.296 128.871  0.00  0.00    +0.000 A 
ATOM      5  C   UNL     1      -7.577   1.601 128.259  0.00  0.00    +0.000 A 
ATOM      6  I   UNL     1      -6.822   3.355 129.426  0.00  0.00    +0.000 I 
ATOM      7  C   UNL     1      -7.902   1.878 126.852  0.00  0.00    +0.000 A 
ATOM      8  C   UNL     1      -8.259   0.703 126.059  0.00  0.00    +0.000 A 
ATOM      9  I   UNL     1      -8.879   0.403 123.665  0.00  0.00    +0.000 I 
ENDROOT
BRANCH   1  12
ATOM     10  C   UNL     1      -7.720  -3.521 124.333  0.00  0.00    +0.000 C 
ATOM     11  N   UNL     1      -7.494  -2.344 125.135  0.00  0.00    +0.000 N 
ATOM     12  C   UNL     1      -8.576  -1.756 125.754  0.00  0.00    +0.000 C 
ATOM     13  O   UNL     1      -9.728  -2.159 125.630  0.00  0.00    +0.000 OA
ATOM     14  H   UNL     1      -6.686  -1.767 124.933  0.00  0.00    +0.000 HD
ENDBRANCH   1  12
BRANCH   7  15
ATOM     15  N   UNL     1      -7.825   3.305 126.514  0.00  0.00    +0.000 N 
ATOM     16  C   UNL     1      -7.057   4.080 125.671  0.00  0.00    +0.000 C 
ATOM     17  C   UNL     1      -6.072   3.366 124.882  0.00  0.00    +0.000 C 
ATOM     18  O   UNL     1      -7.188   5.297 125.566  0.00  0.00    +0.000 OA
ATOM     19  H   UNL     1      -8.511   3.915 126.963  0.00  0.00    +0.000 HD
ENDBRANCH   7  15
BRANCH   4  20
ATOM     20  C   UNL     1      -7.396  -0.012 130.350  0.00  0.00    +0.000 C 
ATOM     21  O   UNL     1      -8.299  -0.046 131.188  0.00  0.00    +0.000 OA
BRANCH  20  22
ATOM     22  O   UNL     1      -6.164  -0.212 130.831  0.00  0.00    +0.000 OA
ATOM     23  H   UNL     1      -6.043  -0.828 131.571  0.00  0.00    +0.000 HD
ENDBRANCH  20  22
ENDBRANCH   4  20
TORSDOF 4
ENDMDL
MODEL 8
REMARK VINA RESULT:      -5.0      2.704      4.142
REMARK  Name = Iothalamic acid
REMARK  6 active torsions:
REMARK  status: ('A' for Active; 'I' for Inactive)
REMARK    1  A    between atoms: C_1  and  N_2
REMARK    2  A    between atoms: C_3  and  C_5
REMARK    3  A    between atoms: C_8  and  C_9
REMARK    4  A    between atoms: C_9  and  O_10
REMARK    5  A    between atoms: C_14  and  N_15
REMARK    6  A    between atoms: C_16  and  C_17
REMARK                            x       y       z     vdW  Elec       q    Type
REMARK                         _______ _______ _______ _____ _____    ______ ____
ROOT
ATOM      1  C   UNL     1      -6.570   1.466 126.536  0.00  0.00    +0.000 A 
ATOM      2  C   UNL     1      -7.359   1.231 125.385  0.00  0.00    +0.000 A 
ATOM      3  I   UNL     1      -7.132   2.777 123.814  0.00  0.00    +0.000 I 
ATOM      4  C   UNL     1      -8.123   0.033 125.214  0.00  0.00    +0.000 A 
ATOM      5  C   UNL     1      -7.995  -0.954 126.259  0.00  0.00    +0.000 A 
ATOM      6  I   UNL     1      -8.936  -2.971 126.019  0.00  0.00    +0.000 I 
ATOM      7  C   UNL     1      -7.201  -0.775 127.483  0.00  0.00    +0.000 A 
ATOM      8  C   UNL     1      -6.475   0.492 127.567  0.00  0.00    +0.000 A 
ATOM      9  I   UNL     1      -4.942   1.452 129.279  0.00  0.00    +0.000 I 
ENDROOT
BRANCH   1  12
ATOM     10  C   UNL     1      -3.624   3.795 126.180  0.00  0.00    +0.000 C 
ATOM     11  N   UNL     1      -4.438   2.604 126.165  0.00  0.00    +0.000 N 
ATOM     12  C   UNL     1      -5.730   2.688 126.640  0.00  0.00    +0.000 C 
ATOM     13  O   UNL     1      -6.214   3.713 127.107  0.00  0.00    +0.000 OA
ATOM     14  H   UNL     1      -3.977   1.702 126.185  0.00  0.00    +0.000 HD
ENDBRANCH   1  12
BRANCH   7  15
ATOM     15  N   UNL     1      -7.307  -1.910 128.408  0.00  0.00    +0.000 N 
ATOM     16  C   UNL     1      -6.427  -2.808 128.975  0.00  0.00    +0.000 C 
ATOM     17  C   UNL     1      -5.032  -2.632 128.619  0.00  0.00    +0.000 C 
ATOM     18  O   UNL     1      -6.775  -3.700 129.744  0.00  0.00    +0.000 OA
ATOM     19  H   UNL     1      -8.238  -2.105 128.781  0.00  0.00    +0.000 HD
ENDBRANCH   7  15
BRANCH   4  20
ATOM     20  C   UNL     1      -9.012  -0.084 123.974  0.00  0.00    +0.000 C 
ATOM     21  O   UNL     1      -8.659  -0.661 122.944  0.00  0.00    +0.000 OA
BRANCH  20  22
ATOM     22  O   UNL     1     -10.217   0.491 123.921  0.00  0.00    +0.000 OA
ATOM     23  H   UNL     1     -10.274   1.452 123.795  0.00  0.00    +0.000 HD
ENDBRANCH  20  22
ENDBRANCH   4  20
TORSDOF 4
ENDMDL
MODEL 9
REMARK VINA RESULT:      -5.0      2.463      4.887
REMARK  Name = Iothalamic acid
REMARK  6 active torsions:
REMARK  status: ('A' for Active; 'I' for Inactive)
REMARK    1  A    between atoms: C_1  and  N_2
REMARK    2  A    between atoms: C_3  and  C_5
REMARK    3  A    between atoms: C_8  and  C_9
REMARK    4  A    between atoms: C_9  and  O_10
REMARK    5  A    between atoms: C_14  and  N_15
REMARK    6  A    between atoms: C_16  and  C_17
REMARK                            x       y       z     vdW  Elec       q    Type
REMARK                         _______ _______ _______ _____ _____    ______ ____
ROOT
ATOM      1  C   UNL     1      -7.024  -0.719 126.767  0.00  0.00    +0.000 A 
ATOM      2  C   UNL     1      -7.755  -1.164 125.640  0.00  0.00    +0.000 A 
ATOM      3  I   UNL     1      -8.584  -3.206 125.859  0.00  0.00    +0.000 I 
ATOM      4  C   UNL     1      -8.037  -0.308 124.528  0.00  0.00    +0.000 A 
ATOM      5  C   UNL     1      -7.583   1.056 124.646  0.00  0.00    +0.000 A 
ATOM      6  I   UNL     1      -8.157   2.569 123.099  0.00  0.00    +0.000 I 
ATOM      7  C   UNL     1      -6.813   1.583 125.782  0.00  0.00    +0.000 A 
ATOM      8  C   UNL     1      -6.563   0.622 126.856  0.00  0.00    +0.000 A 
ATOM      9  I   UNL     1      -5.391   0.802 129.047  0.00  0.00    +0.000 I 
ENDROOT
BRANCH   1  12
ATOM     10  C   UNL     1      -7.650  -2.497 130.035  0.00  0.00    +0.000 C 
ATOM     11  N   UNL     1      -7.779  -1.583 128.927  0.00  0.00    +0.000 N 
ATOM     12  C   UNL     1      -6.820  -1.615 127.936  0.00  0.00    +0.000 C 
ATOM     13  O   UNL     1      -5.843  -2.355 127.964  0.00  0.00    +0.000 OA
ATOM     14  H   UNL     1      -8.296  -0.723 129.065  0.00  0.00    +0.000 HD
ENDBRANCH   1  12
BRANCH   7  15
ATOM     15  N   UNL     1      -6.420   2.987 125.608  0.00  0.00    +0.000 N 
ATOM     16  C   UNL     1      -6.696   4.176 126.250  0.00  0.00    +0.000 C 
ATOM     17  C   UNL     1      -7.577   4.083 127.397  0.00  0.00    +0.000 C 
ATOM     18  O   UNL     1      -6.228   5.257 125.898  0.00  0.00    +0.000 OA
ATOM     19  H   UNL     1      -5.750   3.181 124.863  0.00  0.00    +0.000 HD
ENDBRANCH   7  15
BRANCH   4  20
ATOM     20  C   UNL     1      -8.759  -0.911 123.321  0.00  0.00    +0.000 C 
ATOM     21  O   UNL     1      -9.964  -0.759 123.111  0.00  0.00    +0.000 OA
BRANCH  20  22
ATOM     22  O   UNL     1      -8.122  -1.693 122.444  0.00  0.00    +0.000 OA
ATOM     23  H   UNL     1      -7.765  -1.296 121.633  0.00  0.00    +0.000 HD
ENDBRANCH  20  22
ENDBRANCH   4  20
TORSDOF 4
ENDMDL
