MODEL 1
REMARK VINA RESULT:      -5.9      0.000      0.000
REMARK  Name = Ioxitalamic acid
REMARK  8 active torsions:
REMARK  status: ('A' for Active; 'I' for Inactive)
REMARK    1  A    between atoms: C_1  and  C_2
REMARK    2  A    between atoms: N_4  and  C_5
REMARK    3  A    between atoms: C_8  and  C_9
REMARK    4  A    between atoms: C_9  and  O_10
REMARK    5  A    between atoms: C_14  and  C_15
REMARK    6  A    between atoms: N_17  and  C_18
REMARK    7  A    between atoms: C_18  and  C_19
REMARK    8  A    between atoms: C_19  and  O_20
REMARK                            x       y       z     vdW  Elec       q    Type
REMARK                         _______ _______ _______ _____ _____    ______ ____
ROOT
ATOM      1  C   UNL     1      -5.615   1.457 126.607  0.00  0.00    +0.000 A 
ATOM      2  C   UNL     1      -5.453   2.738 126.005  0.00  0.00    +0.000 A 
ATOM      3  I   UNL     1      -3.527   3.808 126.545  0.00  0.00    +0.000 I 
ATOM      4  C   UNL     1      -6.264   3.188 124.915  0.00  0.00    +0.000 A 
ATOM      5  C   UNL     1      -7.219   2.240 124.391  0.00  0.00    +0.000 A 
ATOM      6  I   UNL     1      -8.244   2.752 122.440  0.00  0.00    +0.000 I 
ATOM      7  C   UNL     1      -7.428   0.916 124.959  0.00  0.00    +0.000 A 
ATOM      8  C   UNL     1      -6.581   0.554 126.062  0.00  0.00    +0.000 A 
ATOM      9  I   UNL     1      -6.613  -1.390 127.070  0.00  0.00    +0.000 I 
ENDROOT
BRANCH   1  13
ATOM     10  C   UNL     1      -4.151   0.896 130.092  0.00  0.00    +0.000 C 
ATOM     11  C   UNL     1      -5.124   1.368 129.035  0.00  0.00    +0.000 C 
ATOM     12  O   UNL     1      -6.152   1.959 129.354  0.00  0.00    +0.000 OA
ATOM     13  N   UNL     1      -4.789   1.049 127.719  0.00  0.00    +0.000 N 
ATOM     14  H   UNL     1      -4.241   0.201 127.603  0.00  0.00    +0.000 HD
ENDBRANCH   1  13
BRANCH   7  15
ATOM     15  C   UNL     1      -8.547   0.010 124.389  0.00  0.00    +0.000 C 
ATOM     16  O   UNL     1      -9.723   0.093 124.720  0.00  0.00    +0.000 OA
ATOM     17  N   UNL     1      -8.250  -0.979 123.487  0.00  0.00    +0.000 N 
ATOM     18  H   UNL     1      -7.296  -1.138 123.208  0.00  0.00    +0.000 HD
BRANCH  17  19
ATOM     19  C   UNL     1      -9.278  -1.833 122.908  0.00  0.00    +0.000 C 
BRANCH  19  20
ATOM     20  C   UNL     1      -9.369  -3.176 123.625  0.00  0.00    +0.000 C 
BRANCH  20  21
ATOM     21  O   UNL     1      -9.938  -3.041 124.919  0.00  0.00    +0.000 OA
ATOM     22  H   UNL     1      -9.477  -2.313 125.371  0.00  0.00    +0.000 HD
ENDBRANCH  20  21
ENDBRANCH  19  20
ENDBRANCH  17  19
ENDBRANCH   7  15
BRANCH   4  23
ATOM     23  C   UNL     1      -6.080   4.628 124.429  0.00  0.00    +0.000 C 
ATOM     24  O   UNL     1      -5.387   4.951 123.474  0.00  0.00    +0.000 OA
BRANCH  23  25
ATOM     25  O   UNL     1      -6.648   5.643 125.093  0.00  0.00    +0.000 OA
ATOM     26  H   UNL     1      -6.563   5.643 126.061  0.00  0.00    +0.000 HD
ENDBRANCH  23  25
ENDBRANCH   4  23
TORSDOF 7
ENDMDL
MODEL 2
REMARK VINA RESULT:      -5.5      3.214      6.190
REMARK  Name = Ioxitalamic acid
REMARK  8 active torsions:
REMARK  status: ('A' for Active; 'I' for Inactive)
REMARK    1  A    between atoms: C_1  and  C_2
REMARK    2  A    between atoms: N_4  and  C_5
REMARK    3  A    between atoms: C_8  and  C_9
REMARK    4  A    between atoms: C_9  and  O_10
REMARK    5  A    between atoms: C_14  and  C_15
REMARK    6  A    between atoms: N_17  and  C_18
REMARK    7  A    between atoms: C_18  and  C_19
REMARK    8  A    between atoms: C_19  and  O_20
REMARK                            x       y       z     vdW  Elec       q    Type
REMARK                         _______ _______ _______ _____ _____    ______ ____
ROOT
ATOM      1  C   UNL     1      -6.401  -1.520 128.434  0.00  0.00    +0.000 A 
ATOM      2  C   UNL     1      -7.203  -1.969 127.346  0.00  0.00    +0.000 A 
ATOM      3  I   UNL     1      -8.579  -3.707 127.831  0.00  0.00    +0.000 I 
ATOM      4  C   UNL     1      -7.372  -1.211 126.144  0.00  0.00    +0.000 A 
ATOM      5  C   UNL     1      -6.746   0.090 126.113  0.00  0.00    +0.000 A 
ATOM      6  I   UNL     1      -7.297   1.480 124.415  0.00  0.00    +0.000 I 
ATOM      7  C   UNL     1      -5.918   0.607 127.194  0.00  0.00    +0.000 A 
ATOM      8  C   UNL     1      -5.791  -0.228 128.355  0.00  0.00    +0.000 A 
ATOM      9  I   UNL     1      -4.675   0.312 130.161  0.00  0.00    +0.000 I 
ENDROOT
BRANCH   1  13
ATOM     10  C   UNL     1      -5.187  -4.052 131.025  0.00  0.00    +0.000 C 
ATOM     11  C   UNL     1      -5.215  -3.265 129.734  0.00  0.00    +0.000 C 
ATOM     12  O   UNL     1      -4.353  -3.442 128.878  0.00  0.00    +0.000 OA
ATOM     13  N   UNL     1      -6.239  -2.326 129.622  0.00  0.00    +0.000 N 
ATOM     14  H   UNL     1      -6.564  -1.929 130.499  0.00  0.00    +0.000 HD
ENDBRANCH   1  13
BRANCH   7  15
ATOM     15  C   UNL     1      -5.208   1.972 127.023  0.00  0.00    +0.000 C 
ATOM     16  O   UNL     1      -5.707   3.043 127.348  0.00  0.00    +0.000 OA
ATOM     17  N   UNL     1      -3.966   2.044 126.448  0.00  0.00    +0.000 N 
ATOM     18  H   UNL     1      -3.517   1.210 126.109  0.00  0.00    +0.000 HD
BRANCH  17  19
ATOM     19  C   UNL     1      -3.256   3.307 126.295  0.00  0.00    +0.000 C 
BRANCH  19  20
ATOM     20  C   UNL     1      -2.016   3.372 127.180  0.00  0.00    +0.000 C 
BRANCH  20  21
ATOM     21  O   UNL     1      -1.052   2.400 126.801  0.00  0.00    +0.000 OA
ATOM     22  H   UNL     1      -1.248   2.128 125.889  0.00  0.00    +0.000 HD
ENDBRANCH  20  21
ENDBRANCH  19  20
ENDBRANCH  17  19
ENDBRANCH   7  15
BRANCH   4  23
ATOM     23  C   UNL     1      -8.159  -1.849 124.997  0.00  0.00    +0.000 C 
ATOM     24  O   UNL     1      -7.666  -2.563 124.135  0.00  0.00    +0.000 OA
BRANCH  23  25
ATOM     25  O   UNL     1      -9.466  -1.594 124.850  0.00  0.00    +0.000 OA
ATOM     26  H   UNL     1      -9.985  -1.459 125.659  0.00  0.00    +0.000 HD
ENDBRANCH  23  25
ENDBRANCH   4  23
TORSDOF 7
ENDMDL
MODEL 3
REMARK VINA RESULT:      -5.4      1.923      2.073
REMARK  Name = Ioxitalamic acid
REMARK  8 active torsions:
REMARK  status: ('A' for Active; 'I' for Inactive)
REMARK    1  A    between atoms: C_1  and  C_2
REMARK    2  A    between atoms: N_4  and  C_5
REMARK    3  A    between atoms: C_8  and  C_9
REMARK    4  A    between atoms: C_9  and  O_10
REMARK    5  A    between atoms: C_14  and  C_15
REMARK    6  A    between atoms: N_17  and  C_18
REMARK    7  A    between atoms: C_18  and  C_19
REMARK    8  A    between atoms: C_19  and  O_20
REMARK                            x       y       z     vdW  Elec       q    Type
REMARK                         _______ _______ _______ _____ _____    ______ ____
ROOT
ATOM      1  C   UNL     1      -7.294   1.517 127.870  0.00  0.00    +0.000 A 
ATOM      2  C   UNL     1      -7.309   2.874 127.436  0.00  0.00    +0.000 A 
ATOM      3  I   UNL     1      -6.137   4.307 128.748  0.00  0.00    +0.000 I 
ATOM      4  C   UNL     1      -7.750   3.264 126.131  0.00  0.00    +0.000 A 
ATOM      5  C   UNL     1      -8.110   2.195 125.229  0.00  0.00    +0.000 A 
ATOM      6  I   UNL     1      -8.436   2.722 123.054  0.00  0.00    +0.000 I 
ATOM      7  C   UNL     1      -8.111   0.790 125.612  0.00  0.00    +0.000 A 
ATOM      8  C   UNL     1      -7.670   0.492 126.946  0.00  0.00    +0.000 A 
ATOM      9  I   UNL     1      -7.495  -1.527 127.777  0.00  0.00    +0.000 I 
ENDROOT
BRANCH   1  13
ATOM     10  C   UNL     1      -7.108   0.918 131.639  0.00  0.00    +0.000 C 
ATOM     11  C   UNL     1      -7.707   1.299 130.304  0.00  0.00    +0.000 C 
ATOM     12  O   UNL     1      -8.878   1.659 130.227  0.00  0.00    +0.000 OA
ATOM     13  N   UNL     1      -6.862   1.167 129.203  0.00  0.00    +0.000 N 
ATOM     14  H   UNL     1      -6.148   0.449 129.285  0.00  0.00    +0.000 HD
ENDBRANCH   1  13
BRANCH   7  15
ATOM     15  C   UNL     1      -8.611  -0.273 124.604  0.00  0.00    +0.000 C 
ATOM     16  O   UNL     1      -9.795  -0.498 124.384  0.00  0.00    +0.000 OA
ATOM     17  N   UNL     1      -7.719  -1.058 123.919  0.00  0.00    +0.000 N 
ATOM     18  H   UNL     1      -6.731  -0.964 124.087  0.00  0.00    +0.000 HD
BRANCH  17  19
ATOM     19  C   UNL     1      -8.150  -2.050 122.944  0.00  0.00    +0.000 C 
BRANCH  19  20
ATOM     20  C   UNL     1      -8.693  -3.307 123.615  0.00  0.00    +0.000 C 
BRANCH  20  21
ATOM     21  O   UNL     1     -10.107  -3.382 123.518  0.00  0.00    +0.000 OA
ATOM     22  H   UNL     1     -10.335  -4.266 123.181  0.00  0.00    +0.000 HD
ENDBRANCH  20  21
ENDBRANCH  19  20
ENDBRANCH  17  19
ENDBRANCH   7  15
BRANCH   4  23
ATOM     23  C   UNL     1      -7.836   4.760 125.820  0.00  0.00    +0.000 C 
ATOM     24  O   UNL     1      -8.814   5.457 126.048  0.00  0.00    +0.000 OA
BRANCH  23  25
ATOM     25  O   UNL     1      -6.820   5.381 125.205  0.00  0.00    +0.000 OA
ATOM     26  H   UNL     1      -6.218   5.903 125.760  0.00  0.00    +0.000 HD
ENDBRANCH  23  25
ENDBRANCH   4  23
TORSDOF 7
ENDMDL
MODEL 4
REMARK VINA RESULT:      -5.4      2.043      4.965
REMARK  Name = Ioxitalamic acid
REMARK  8 active torsions:
REMARK  status: ('A' for Active; 'I' for Inactive)
REMARK    1  A    between atoms: C_1  and  C_2
REMARK    2  A    between atoms: N_4  and  C_5
REMARK    3  A    between atoms: C_8  and  C_9
REMARK    4  A    between atoms: C_9  and  O_10
REMARK    5  A    between atoms: C_14  and  C_15
REMARK    6  A    between atoms: N_17  and  C_18
REMARK    7  A    between atoms: C_18  and  C_19
REMARK    8  A    between atoms: C_19  and  O_20
REMARK                            x       y       z     vdW  Elec       q    Type
REMARK                         _______ _______ _______ _____ _____    ______ ____
ROOT
ATOM      1  C   UNL     1      -5.980   0.212 126.769  0.00  0.00    +0.000 A 
ATOM      2  C   UNL     1      -6.945  -0.807 126.523  0.00  0.00    +0.000 A 
ATOM      3  I   UNL     1      -7.214  -2.293 128.216  0.00  0.00    +0.000 I 
ATOM      4  C   UNL     1      -7.889  -0.735 125.450  0.00  0.00    +0.000 A 
ATOM      5  C   UNL     1      -7.874   0.475 124.662  0.00  0.00    +0.000 A 
ATOM      6  I   UNL     1      -9.583   0.808 123.217  0.00  0.00    +0.000 I 
ATOM      7  C   UNL     1      -6.917   1.553 124.866  0.00  0.00    +0.000 A 
ATOM      8  C   UNL     1      -5.995   1.389 125.956  0.00  0.00    +0.000 A 
ATOM      9  I   UNL     1      -4.494   2.869 126.550  0.00  0.00    +0.000 I 
ENDROOT
BRANCH   1  13
ATOM     10  C   UNL     1      -4.194   0.434 130.139  0.00  0.00    +0.000 C 
ATOM     11  C   UNL     1      -5.292   0.614 129.116  0.00  0.00    +0.000 C 
ATOM     12  O   UNL     1      -6.349   1.157 129.425  0.00  0.00    +0.000 OA
ATOM     13  N   UNL     1      -5.030   0.091 127.850  0.00  0.00    +0.000 N 
ATOM     14  H   UNL     1      -4.405  -0.710 127.831  0.00  0.00    +0.000 HD
ENDBRANCH   1  13
BRANCH   7  15
ATOM     15  C   UNL     1      -6.917   2.765 123.903  0.00  0.00    +0.000 C 
ATOM     16  O   UNL     1      -7.408   3.852 124.180  0.00  0.00    +0.000 OA
ATOM     17  N   UNL     1      -6.382   2.656 122.646  0.00  0.00    +0.000 N 
ATOM     18  H   UNL     1      -6.006   1.778 122.331  0.00  0.00    +0.000 HD
BRANCH  17  19
ATOM     19  C   UNL     1      -6.340   3.782 121.722  0.00  0.00    +0.000 C 
BRANCH  19  20
ATOM     20  C   UNL     1      -7.482   3.731 120.713  0.00  0.00    +0.000 C 
BRANCH  20  21
ATOM     21  O   UNL     1      -8.732   4.013 121.325  0.00  0.00    +0.000 OA
ATOM     22  H   UNL     1      -9.094   3.174 121.660  0.00  0.00    +0.000 HD
ENDBRANCH  20  21
ENDBRANCH  19  20
ENDBRANCH  17  19
ENDBRANCH   7  15
BRANCH   4  23
ATOM     23  C   UNL     1      -8.797  -1.943 125.210  0.00  0.00    +0.000 C 
ATOM     24  O   UNL     1      -9.937  -2.047 125.640  0.00  0.00    +0.000 OA
BRANCH  23  25
ATOM     25  O   UNL     1      -8.340  -3.008 124.537  0.00  0.00    +0.000 OA
ATOM     26  H   UNL     1      -7.408  -3.246 124.662  0.00  0.00    +0.000 HD
ENDBRANCH  23  25
ENDBRANCH   4  23
TORSDOF 7
ENDMDL
MODEL 5
REMARK VINA RESULT:      -5.3      2.805      3.142
REMARK  Name = Ioxitalamic acid
REMARK  8 active torsions:
REMARK  status: ('A' for Active; 'I' for Inactive)
REMARK    1  A    between atoms: C_1  and  C_2
REMARK    2  A    between atoms: N_4  and  C_5
REMARK    3  A    between atoms: C_8  and  C_9
REMARK    4  A    between atoms: C_9  and  O_10
REMARK    5  A    between atoms: C_14  and  C_15
REMARK    6  A    between atoms: N_17  and  C_18
REMARK    7  A    between atoms: C_18  and  C_19
REMARK    8  A    between atoms: C_19  and  O_20
REMARK                            x       y       z     vdW  Elec       q    Type
REMARK                         _______ _______ _______ _____ _____    ______ ____
ROOT
ATOM      1  C   UNL     1      -7.396   0.427 129.161  0.00  0.00    +0.000 A 
ATOM      2  C   UNL     1      -7.305   1.846 129.059  0.00  0.00    +0.000 A 
ATOM      3  I   UNL     1      -6.105   2.844 130.707  0.00  0.00    +0.000 I 
ATOM      4  C   UNL     1      -7.659   2.561 127.871  0.00  0.00    +0.000 A 
ATOM      5  C   UNL     1      -8.045   1.761 126.732  0.00  0.00    +0.000 A 
ATOM      6  I   UNL     1      -8.236   2.805 124.733  0.00  0.00    +0.000 I 
ATOM      7  C   UNL     1      -8.153   0.310 126.771  0.00  0.00    +0.000 A 
ATOM      8  C   UNL     1      -7.793  -0.323 128.010  0.00  0.00    +0.000 A 
ATOM      9  I   UNL     1      -7.786  -2.488 128.345  0.00  0.00    +0.000 I 
ENDROOT
BRANCH   1  13
ATOM     10  C   UNL     1      -7.442  -1.091 132.666  0.00  0.00    +0.000 C 
ATOM     11  C   UNL     1      -7.956  -0.374 131.438  0.00  0.00    +0.000 C 
ATOM     12  O   UNL     1      -9.115   0.030 131.391  0.00  0.00    +0.000 OA
ATOM     13  N   UNL     1      -7.049  -0.254 130.385  0.00  0.00    +0.000 N 
ATOM     14  H   UNL     1      -6.353  -0.992 130.324  0.00  0.00    +0.000 HD
ENDBRANCH   1  13
BRANCH   7  15
ATOM     15  C   UNL     1      -8.673  -0.449 125.526  0.00  0.00    +0.000 C 
ATOM     16  O   UNL     1      -9.860  -0.601 125.269  0.00  0.00    +0.000 OA
ATOM     17  N   UNL     1      -7.795  -1.034 124.650  0.00  0.00    +0.000 N 
ATOM     18  H   UNL     1      -6.805  -0.994 124.825  0.00  0.00    +0.000 HD
BRANCH  17  19
ATOM     19  C   UNL     1      -8.245  -1.733 123.454  0.00  0.00    +0.000 C 
BRANCH  19  20
ATOM     20  C   UNL     1      -8.644  -3.174 123.756  0.00  0.00    +0.000 C 
BRANCH  20  21
ATOM     21  O   UNL     1     -10.052  -3.347 123.704  0.00  0.00    +0.000 OA
ATOM     22  H   UNL     1     -10.465  -2.487 123.893  0.00  0.00    +0.000 HD
ENDBRANCH  20  21
ENDBRANCH  19  20
ENDBRANCH  17  19
ENDBRANCH   7  15
BRANCH   4  23
ATOM     23  C   UNL     1      -7.635   4.090 127.919  0.00  0.00    +0.000 C 
ATOM     24  O   UNL     1      -8.586   4.786 128.246  0.00  0.00    +0.000 OA
BRANCH  23  25
ATOM     25  O   UNL     1      -6.541   4.761 127.534  0.00  0.00    +0.000 OA
ATOM     26  H   UNL     1      -6.454   4.963 126.588  0.00  0.00    +0.000 HD
ENDBRANCH  23  25
ENDBRANCH   4  23
TORSDOF 7
ENDMDL
MODEL 6
REMARK VINA RESULT:      -5.3      2.443      5.897
REMARK  Name = Ioxitalamic acid
REMARK  8 active torsions:
REMARK  status: ('A' for Active; 'I' for Inactive)
REMARK    1  A    between atoms: C_1  and  C_2
REMARK    2  A    between atoms: N_4  and  C_5
REMARK    3  A    between atoms: C_8  and  C_9
REMARK    4  A    between atoms: C_9  and  O_10
REMARK    5  A    between atoms: C_14  and  C_15
REMARK    6  A    between atoms: N_17  and  C_18
REMARK    7  A    between atoms: C_18  and  C_19
REMARK    8  A    between atoms: C_19  and  O_20
REMARK                            x       y       z     vdW  Elec       q    Type
REMARK                         _______ _______ _______ _____ _____    ______ ____
ROOT
ATOM      1  C   UNL     1      -7.291  -0.125 124.994  0.00  0.00    +0.000 A 
ATOM      2  C   UNL     1      -7.706   0.759 123.957  0.00  0.00    +0.000 A 
ATOM      3  I   UNL     1      -9.520   0.067 122.783  0.00  0.00    +0.000 I 
ATOM      4  C   UNL     1      -7.233   2.106 123.852  0.00  0.00    +0.000 A 
ATOM      5  C   UNL     1      -6.362   2.564 124.910  0.00  0.00    +0.000 A 
ATOM      6  I   UNL     1      -5.901   4.777 125.006  0.00  0.00    +0.000 I 
ATOM      7  C   UNL     1      -5.906   1.711 125.998  0.00  0.00    +0.000 A 
ATOM      8  C   UNL     1      -6.419   0.369 126.015  0.00  0.00    +0.000 A 
ATOM      9  I   UNL     1      -5.973  -1.115 127.562  0.00  0.00    +0.000 I 
ENDROOT
BRANCH   1  13
ATOM     10  C   UNL     1      -7.797  -3.876 124.473  0.00  0.00    +0.000 C 
ATOM     11  C   UNL     1      -7.162  -2.510 124.335  0.00  0.00    +0.000 C 
ATOM     12  O   UNL     1      -6.149  -2.359 123.658  0.00  0.00    +0.000 OA
ATOM     13  N   UNL     1      -7.777  -1.484 125.052  0.00  0.00    +0.000 N 
ATOM     14  H   UNL     1      -8.253  -1.771 125.902  0.00  0.00    +0.000 HD
ENDBRANCH   1  13
BRANCH   7  15
ATOM     15  C   UNL     1      -4.893   2.266 127.029  0.00  0.00    +0.000 C 
ATOM     16  O   UNL     1      -5.196   2.601 128.167  0.00  0.00    +0.000 OA
ATOM     17  N   UNL     1      -3.578   2.447 126.685  0.00  0.00    +0.000 N 
ATOM     18  H   UNL     1      -3.267   2.242 125.750  0.00  0.00    +0.000 HD
BRANCH  17  19
ATOM     19  C   UNL     1      -2.591   2.942 127.635  0.00  0.00    +0.000 C 
BRANCH  19  20
ATOM     20  C   UNL     1      -2.405   4.452 127.526  0.00  0.00    +0.000 C 
BRANCH  20  21
ATOM     21  O   UNL     1      -3.477   5.155 128.137  0.00  0.00    +0.000 OA
ATOM     22  H   UNL     1      -4.294   4.919 127.665  0.00  0.00    +0.000 HD
ENDBRANCH  20  21
ENDBRANCH  19  20
ENDBRANCH  17  19
ENDBRANCH   7  15
BRANCH   4  23
ATOM     23  C   UNL     1      -7.653   2.923 122.629  0.00  0.00    +0.000 C 
ATOM     24  O   UNL     1      -6.972   3.058 121.622  0.00  0.00    +0.000 OA
BRANCH  23  25
ATOM     25  O   UNL     1      -8.810   3.599 122.632  0.00  0.00    +0.000 OA
ATOM     26  H   UNL     1      -9.517   3.264 123.207  0.00  0.00    +0.000 HD
ENDBRANCH  23  25
ENDBRANCH   4  23
TORSDOF 7
ENDMDL
MODEL 7
REMARK VINA RESULT:      -5.3      2.160      5.726
REMARK  Name = Ioxitalamic acid
REMARK  8 active torsions:
REMARK  status: ('A' for Active; 'I' for Inactive)
REMARK    1  A    between atoms: C_1  and  C_2
REMARK    2  A    between atoms: N_4  and  C_5
REMARK    3  A    between atoms: C_8  and  C_9
REMARK    4  A    between atoms: C_9  and  O_10
REMARK    5  A    between atoms: C_14  and  C_15
REMARK    6  A    between atoms: N_17  and  C_18
REMARK    7  A    between atoms: C_18  and  C_19
REMARK    8  A    between atoms: C_19  and  O_20
REMARK                            x       y       z     vdW  Elec       q    Type
REMARK                         _______ _______ _______ _____ _____    ______ ____
ROOT
ATOM      1  C   UNL     1      -8.394  -0.352 125.633  0.00  0.00    +0.000 A 
ATOM      2  C   UNL     1      -8.396   0.949 125.052  0.00  0.00    +0.000 A 
ATOM      3  I   UNL     1      -9.952   1.265 123.431  0.00  0.00    +0.000 I 
ATOM      4  C   UNL     1      -7.706   2.058 125.636  0.00  0.00    +0.000 A 
ATOM      5  C   UNL     1      -7.061   1.817 126.905  0.00  0.00    +0.000 A 
ATOM      6  I   UNL     1      -6.296   3.611 128.052  0.00  0.00    +0.000 I 
ATOM      7  C   UNL     1      -7.027   0.513 127.552  0.00  0.00    +0.000 A 
ATOM      8  C   UNL     1      -7.733  -0.548 126.887  0.00  0.00    +0.000 A 
ATOM      9  I   UNL     1      -7.919  -2.591 127.653  0.00  0.00    +0.000 I 
ENDROOT
BRANCH   1  13
ATOM     10  C   UNL     1      -9.372  -3.265 123.362  0.00  0.00    +0.000 C 
ATOM     11  C   UNL     1      -8.519  -2.158 123.941  0.00  0.00    +0.000 C 
ATOM     12  O   UNL     1      -7.390  -1.949 123.505  0.00  0.00    +0.000 OA
ATOM     13  N   UNL     1      -9.085  -1.451 125.001  0.00  0.00    +0.000 N 
ATOM     14  H   UNL     1      -9.744  -1.974 125.571  0.00  0.00    +0.000 HD
ENDBRANCH   1  13
BRANCH   7  15
ATOM     15  C   UNL     1      -6.223   0.333 128.863  0.00  0.00    +0.000 C 
ATOM     16  O   UNL     1      -6.704   0.481 129.980  0.00  0.00    +0.000 OA
ATOM     17  N   UNL     1      -4.888   0.026 128.825  0.00  0.00    +0.000 N 
ATOM     18  H   UNL     1      -4.414  -0.060 127.942  0.00  0.00    +0.000 HD
BRANCH  17  19
ATOM     19  C   UNL     1      -4.106  -0.177 130.037  0.00  0.00    +0.000 C 
BRANCH  19  20
ATOM     20  C   UNL     1      -3.843  -1.656 130.302  0.00  0.00    +0.000 C 
BRANCH  20  21
ATOM     21  O   UNL     1      -2.520  -2.024 129.942  0.00  0.00    +0.000 OA
ATOM     22  H   UNL     1      -2.474  -2.055 128.971  0.00  0.00    +0.000 HD
ENDBRANCH  20  21
ENDBRANCH  19  20
ENDBRANCH  17  19
ENDBRANCH   7  15
BRANCH   4  23
ATOM     23  C   UNL     1      -7.679   3.377 124.859  0.00  0.00    +0.000 C 
ATOM     24  O   UNL     1      -6.831   3.672 124.029  0.00  0.00    +0.000 OA
BRANCH  23  25
ATOM     25  O   UNL     1      -8.590   4.327 125.109  0.00  0.00    +0.000 OA
ATOM     26  H   UNL     1      -8.687   4.618 126.030  0.00  0.00    +0.000 HD
ENDBRANCH  23  25
ENDBRANCH   4  23
TORSDOF 7
ENDMDL
MODEL 8
REMARK VINA RESULT:      -5.1      3.151      5.956
REMARK  Name = Ioxitalamic acid
REMARK  8 active torsions:
REMARK  status: ('A' for Active; 'I' for Inactive)
REMARK    1  A    between atoms: C_1  and  C_2
REMARK    2  A    between atoms: N_4  and  C_5
REMARK    3  A    between atoms: C_8  and  C_9
REMARK    4  A    between atoms: C_9  and  O_10
REMARK    5  A    between atoms: C_14  and  C_15
REMARK    6  A    between atoms: N_17  and  C_18
REMARK    7  A    between atoms: C_18  and  C_19
REMARK    8  A    between atoms: C_19  and  O_20
REMARK                            x       y       z     vdW  Elec       q    Type
REMARK                         _______ _______ _______ _____ _____    ______ ____
ROOT
ATOM      1  C   UNL     1      -8.020  -0.559 126.403  0.00  0.00    +0.000 A 
ATOM      2  C   UNL     1      -8.123   0.659 125.671  0.00  0.00    +0.000 A 
ATOM      3  I   UNL     1      -9.063   0.458 123.615  0.00  0.00    +0.000 I 
ATOM      4  C   UNL     1      -7.947   1.944 126.276  0.00  0.00    +0.000 A 
ATOM      5  C   UNL     1      -7.736   1.956 127.705  0.00  0.00    +0.000 A 
ATOM      6  I   UNL     1      -7.841   3.952 128.765  0.00  0.00    +0.000 I 
ATOM      7  C   UNL     1      -7.626   0.747 128.509  0.00  0.00    +0.000 A 
ATOM      8  C   UNL     1      -7.800  -0.499 127.815  0.00  0.00    +0.000 A 
ATOM      9  I   UNL     1      -7.762  -2.470 128.769  0.00  0.00    +0.000 I 
ENDROOT
BRANCH   1  13
ATOM     10  C   UNL     1      -7.453  -3.781 124.431  0.00  0.00    +0.000 C 
ATOM     11  C   UNL     1      -7.126  -2.460 125.090  0.00  0.00    +0.000 C 
ATOM     12  O   UNL     1      -5.982  -2.015 125.059  0.00  0.00    +0.000 OA
ATOM     13  N   UNL     1      -8.184  -1.836 125.750  0.00  0.00    +0.000 N 
ATOM     14  H   UNL     1      -8.894  -2.460 126.123  0.00  0.00    +0.000 HD
ENDBRANCH   1  13
BRANCH   7  15
ATOM     15  C   UNL     1      -7.299   0.863 130.018  0.00  0.00    +0.000 C 
ATOM     16  O   UNL     1      -6.159   0.895 130.465  0.00  0.00    +0.000 OA
ATOM     17  N   UNL     1      -8.305   0.899 130.948  0.00  0.00    +0.000 N 
ATOM     18  H   UNL     1      -9.265   0.825 130.657  0.00  0.00    +0.000 HD
BRANCH  17  19
ATOM     19  C   UNL     1      -8.037   1.035 132.374  0.00  0.00    +0.000 C 
BRANCH  19  20
ATOM     20  C   UNL     1      -8.612   2.329 132.939  0.00  0.00    +0.000 C 
BRANCH  20  21
ATOM     21  O   UNL     1     -10.006   2.434 132.689  0.00  0.00    +0.000 OA
ATOM     22  H   UNL     1     -10.134   2.452 131.725  0.00  0.00    +0.000 HD
ENDBRANCH  20  21
ENDBRANCH  19  20
ENDBRANCH  17  19
ENDBRANCH   7  15
BRANCH   4  23
ATOM     23  C   UNL     1      -7.961   3.174 125.367  0.00  0.00    +0.000 C 
ATOM     24  O   UNL     1      -6.980   3.611 124.782  0.00  0.00    +0.000 OA
BRANCH  23  25
ATOM     25  O   UNL     1      -9.084   3.889 125.214  0.00  0.00    +0.000 OA
ATOM     26  H   UNL     1      -9.277   4.562 125.886  0.00  0.00    +0.000 HD
ENDBRANCH  23  25
ENDBRANCH   4  23
TORSDOF 7
ENDMDL
MODEL 9
REMARK VINA RESULT:      -5.0      2.370      4.553
REMARK  Name = Ioxitalamic acid
REMARK  8 active torsions:
REMARK  status: ('A' for Active; 'I' for Inactive)
REMARK    1  A    between atoms: C_1  and  C_2
REMARK    2  A    between atoms: N_4  and  C_5
REMARK    3  A    between atoms: C_8  and  C_9
REMARK    4  A    between atoms: C_9  and  O_10
REMARK    5  A    between atoms: C_14  and  C_15
REMARK    6  A    between atoms: N_17  and  C_18
REMARK    7  A    between atoms: C_18  and  C_19
REMARK    8  A    between atoms: C_19  and  O_20
REMARK                            x       y       z     vdW  Elec       q    Type
REMARK                         _______ _______ _______ _____ _____    ______ ____
ROOT
ATOM      1  C   UNL     1      -6.129   1.891 127.483  0.00  0.00    +0.000 A 
ATOM      2  C   UNL     1      -5.637   0.928 128.410  0.00  0.00    +0.000 A 
ATOM      3  I   UNL     1      -4.585   1.800 130.222  0.00  0.00    +0.000 I 
ATOM      4  C   UNL     1      -6.034  -0.447 128.382  0.00  0.00    +0.000 A 
ATOM      5  C   UNL     1      -7.033  -0.806 127.403  0.00  0.00    +0.000 A 
ATOM      6  I   UNL     1      -7.974  -2.857 127.567  0.00  0.00    +0.000 I 
ATOM      7  C   UNL     1      -7.577   0.132 126.431  0.00  0.00    +0.000 A 
ATOM      8  C   UNL     1      -7.110   1.488 126.524  0.00  0.00    +0.000 A 
ATOM      9  I   UNL     1      -7.801   3.132 125.251  0.00  0.00    +0.000 I 
ENDROOT
BRANCH   1  13
ATOM     10  C   UNL     1      -4.138   5.131 127.115  0.00  0.00    +0.000 C 
ATOM     11  C   UNL     1      -4.481   3.667 126.961  0.00  0.00    +0.000 C 
ATOM     12  O   UNL     1      -3.739   2.916 126.332  0.00  0.00    +0.000 OA
ATOM     13  N   UNL     1      -5.687   3.265 127.533  0.00  0.00    +0.000 N 
ATOM     14  H   UNL     1      -6.406   3.982 127.582  0.00  0.00    +0.000 HD
ENDBRANCH   1  13
BRANCH   7  15
ATOM     15  C   UNL     1      -8.571  -0.373 125.357  0.00  0.00    +0.000 C 
ATOM     16  O   UNL     1      -9.785  -0.402 125.515  0.00  0.00    +0.000 OA
ATOM     17  N   UNL     1      -8.114  -0.859 124.159  0.00  0.00    +0.000 N 
ATOM     18  H   UNL     1      -7.125  -0.914 123.980  0.00  0.00    +0.000 HD
BRANCH  17  19
ATOM     19  C   UNL     1      -9.019  -1.319 123.115  0.00  0.00    +0.000 C 
BRANCH  19  20
ATOM     20  C   UNL     1      -9.142  -2.839 123.098  0.00  0.00    +0.000 C 
BRANCH  20  21
ATOM     21  O   UNL     1     -10.002  -3.304 124.128  0.00  0.00    +0.000 OA
ATOM     22  H   UNL     1     -10.150  -4.255 123.984  0.00  0.00    +0.000 HD
ENDBRANCH  20  21
ENDBRANCH  19  20
ENDBRANCH  17  19
ENDBRANCH   7  15
BRANCH   4  23
ATOM     23  C   UNL     1      -5.348  -1.413 129.350  0.00  0.00    +0.000 C 
ATOM     24  O   UNL     1      -5.817  -1.761 130.425  0.00  0.00    +0.000 OA
BRANCH  23  25
ATOM     25  O   UNL     1      -4.129  -1.894 129.075  0.00  0.00    +0.000 OA
ATOM     26  H   UNL     1      -3.895  -2.002 128.139  0.00  0.00    +0.000 HD
ENDBRANCH  23  25
ENDBRANCH   4  23
TORSDOF 7
ENDMDL
