MODEL 1
REMARK VINA RESULT:      -7.4      0.000      0.000
REMARK  Name = Ipratropium
REMARK  10 active torsions:
REMARK  status: ('A' for Active; 'I' for Inactive)
REMARK    1  A    between atoms: C_8  and  O_10
REMARK    2  A    between atoms: O_10  and  C_11
REMARK    3  A    between atoms: C_11  and  C_13
REMARK    4  A    between atoms: C_13  and  C_14
REMARK    5  A    between atoms: C_13  and  C_16
REMARK    6  A    between atoms: C_14  and  O_15
REMARK    7  A    between atoms: N_22  and  C_23
REMARK    8  A    between atoms: N_22  and  C_24
REMARK    9  A    between atoms: C_24  and  C_25
REMARK   10  A    between atoms: C_24  and  C_26
REMARK                            x       y       z     vdW  Elec       q    Type
REMARK                         _______ _______ _______ _____ _____    ______ ____
ROOT
ATOM      1  O   UNL     1      -6.596   1.654 125.874  0.00  0.00    +0.000 OA
ENDROOT
BRANCH   1   7
ATOM      2  C   UNL     1      -8.084  -1.215 124.324  0.00  0.00    +0.000 C 
ATOM      3  C   UNL     1      -8.973  -1.194 125.575  0.00  0.00    +0.000 C 
ATOM      4  C   UNL     1      -8.085  -1.667 126.712  0.00  0.00    +0.000 C 
ATOM      5  C   UNL     1      -6.710  -1.919 126.081  0.00  0.00    +0.000 C 
ATOM      6  C   UNL     1      -5.882  -0.629 126.149  0.00  0.00    +0.000 C 
ATOM      7  C   UNL     1      -6.275   0.464 125.138  0.00  0.00    +0.000 C 
ATOM      8  C   UNL     1      -7.431   0.141 124.174  0.00  0.00    +0.000 C 
ATOM      9  N   UNL     1      -7.027  -2.291 124.610  0.00  0.00    +0.000 N 
ATOM     10  C   UNL     1      -7.672  -3.692 124.510  0.00  0.00    +0.000 C 
BRANCH   9  11
ATOM     11  C   UNL     1      -5.785  -2.259 123.651  0.00  0.00    +0.000 C 
ATOM     12  C   UNL     1      -4.865  -3.450 123.909  0.00  0.00    +0.000 C 
ATOM     13  C   UNL     1      -6.214  -2.160 122.187  0.00  0.00    +0.000 C 
ENDBRANCH   9  11
ENDBRANCH   1   7
BRANCH   1  14
ATOM     14  C   UNL     1      -5.913   2.778 125.499  0.00  0.00    +0.000 C 
ATOM     15  O   UNL     1      -4.723   2.964 125.763  0.00  0.00    +0.000 OA
BRANCH  14  16
ATOM     16  C   UNL     1      -6.777   3.682 124.644  0.00  0.00    +0.000 C 
BRANCH  16  17
ATOM     17  C   UNL     1      -6.176   3.778 123.245  0.00  0.00    +0.000 A 
ATOM     18  C   UNL     1      -5.026   4.545 122.990  0.00  0.00    +0.000 A 
ATOM     19  C   UNL     1      -4.623   4.781 121.671  0.00  0.00    +0.000 A 
ATOM     20  C   UNL     1      -5.309   4.194 120.607  0.00  0.00    +0.000 A 
ATOM     21  C   UNL     1      -6.431   3.418 120.849  0.00  0.00    +0.000 A 
ATOM     22  C   UNL     1      -6.864   3.228 122.151  0.00  0.00    +0.000 A 
ENDBRANCH  16  17
BRANCH  16  23
ATOM     23  C   UNL     1      -6.841   5.052 125.343  0.00  0.00    +0.000 C 
BRANCH  23  24
ATOM     24  O   UNL     1      -8.159   5.561 125.504  0.00  0.00    +0.000 OA
ATOM     25  H   UNL     1      -8.651   4.951 126.075  0.00  0.00    +0.000 HD
ENDBRANCH  23  24
ENDBRANCH  16  23
ENDBRANCH  14  16
ENDBRANCH   1  14
TORSDOF 7
ENDMDL
MODEL 2
REMARK VINA RESULT:      -7.4      4.865      6.992
REMARK  Name = Ipratropium
REMARK  10 active torsions:
REMARK  status: ('A' for Active; 'I' for Inactive)
REMARK    1  A    between atoms: C_8  and  O_10
REMARK    2  A    between atoms: O_10  and  C_11
REMARK    3  A    between atoms: C_11  and  C_13
REMARK    4  A    between atoms: C_13  and  C_14
REMARK    5  A    between atoms: C_13  and  C_16
REMARK    6  A    between atoms: C_14  and  O_15
REMARK    7  A    between atoms: N_22  and  C_23
REMARK    8  A    between atoms: N_22  and  C_24
REMARK    9  A    between atoms: C_24  and  C_25
REMARK   10  A    between atoms: C_24  and  C_26
REMARK                            x       y       z     vdW  Elec       q    Type
REMARK                         _______ _______ _______ _____ _____    ______ ____
ROOT
ATOM      1  O   UNL     1      -8.019  -3.260 126.822  0.00  0.00    +0.000 OA
ENDROOT
BRANCH   1   7
ATOM      2  C   UNL     1      -5.753  -1.677 129.104  0.00  0.00    +0.000 C 
ATOM      3  C   UNL     1      -5.163  -3.092 129.202  0.00  0.00    +0.000 C 
ATOM      4  C   UNL     1      -6.171  -3.896 130.004  0.00  0.00    +0.000 C 
ATOM      5  C   UNL     1      -7.316  -2.925 130.316  0.00  0.00    +0.000 C 
ATOM      6  C   UNL     1      -8.357  -2.997 129.191  0.00  0.00    +0.000 C 
ATOM      7  C   UNL     1      -7.962  -2.292 127.880  0.00  0.00    +0.000 C 
ATOM      8  C   UNL     1      -6.591  -1.592 127.848  0.00  0.00    +0.000 C 
ATOM      9  N   UNL     1      -6.637  -1.532 130.350  0.00  0.00    +0.000 N 
ATOM     10  C   UNL     1      -5.746  -1.370 131.602  0.00  0.00    +0.000 C 
BRANCH   9  11
ATOM     11  C   UNL     1      -7.636  -0.322 130.305  0.00  0.00    +0.000 C 
ATOM     12  C   UNL     1      -8.572  -0.343 131.511  0.00  0.00    +0.000 C 
ATOM     13  C   UNL     1      -6.896   1.007 130.163  0.00  0.00    +0.000 C 
ENDBRANCH   9  11
ENDBRANCH   1   7
BRANCH   1  14
ATOM     14  C   UNL     1      -8.756  -2.893 125.730  0.00  0.00    +0.000 C 
ATOM     15  O   UNL     1      -9.562  -1.961 125.742  0.00  0.00    +0.000 OA
BRANCH  14  16
ATOM     16  C   UNL     1      -8.368  -3.705 124.511  0.00  0.00    +0.000 C 
BRANCH  16  17
ATOM     17  C   UNL     1      -6.865  -3.575 124.277  0.00  0.00    +0.000 A 
ATOM     18  C   UNL     1      -6.277  -2.342 123.945  0.00  0.00    +0.000 A 
ATOM     19  C   UNL     1      -4.941  -2.295 123.534  0.00  0.00    +0.000 A 
ATOM     20  C   UNL     1      -4.162  -3.454 123.528  0.00  0.00    +0.000 A 
ATOM     21  C   UNL     1      -4.727  -4.670 123.874  0.00  0.00    +0.000 A 
ATOM     22  C   UNL     1      -6.065  -4.728 124.229  0.00  0.00    +0.000 A 
ENDBRANCH  16  17
BRANCH  16  23
ATOM     23  C   UNL     1      -9.189  -3.174 123.323  0.00  0.00    +0.000 C 
BRANCH  23  24
ATOM     24  O   UNL     1     -10.515  -3.684 123.258  0.00  0.00    +0.000 OA
ATOM     25  H   UNL     1     -10.881  -3.686 124.155  0.00  0.00    +0.000 HD
ENDBRANCH  23  24
ENDBRANCH  16  23
ENDBRANCH  14  16
ENDBRANCH   1  14
TORSDOF 7
ENDMDL
MODEL 3
REMARK VINA RESULT:      -7.2      0.844      2.432
REMARK  Name = Ipratropium
REMARK  10 active torsions:
REMARK  status: ('A' for Active; 'I' for Inactive)
REMARK    1  A    between atoms: C_8  and  O_10
REMARK    2  A    between atoms: O_10  and  C_11
REMARK    3  A    between atoms: C_11  and  C_13
REMARK    4  A    between atoms: C_13  and  C_14
REMARK    5  A    between atoms: C_13  and  C_16
REMARK    6  A    between atoms: C_14  and  O_15
REMARK    7  A    between atoms: N_22  and  C_23
REMARK    8  A    between atoms: N_22  and  C_24
REMARK    9  A    between atoms: C_24  and  C_25
REMARK   10  A    between atoms: C_24  and  C_26
REMARK                            x       y       z     vdW  Elec       q    Type
REMARK                         _______ _______ _______ _____ _____    ______ ____
ROOT
ATOM      1  O   UNL     1      -6.059   1.263 124.558  0.00  0.00    +0.000 OA
ENDROOT
BRANCH   1   7
ATOM      2  C   UNL     1      -5.951  -2.273 125.138  0.00  0.00    +0.000 C 
ATOM      3  C   UNL     1      -5.332  -2.293 123.733  0.00  0.00    +0.000 C 
ATOM      4  C   UNL     1      -6.477  -1.995 122.782  0.00  0.00    +0.000 C 
ATOM      5  C   UNL     1      -7.708  -1.789 123.673  0.00  0.00    +0.000 C 
ATOM      6  C   UNL     1      -7.814  -0.305 124.049  0.00  0.00    +0.000 C 
ATOM      7  C   UNL     1      -6.815   0.178 125.118  0.00  0.00    +0.000 C 
ATOM      8  C   UNL     1      -5.844  -0.869 125.692  0.00  0.00    +0.000 C 
ATOM      9  N   UNL     1      -7.422  -2.655 124.926  0.00  0.00    +0.000 N 
ATOM     10  C   UNL     1      -7.525  -4.163 124.604  0.00  0.00    +0.000 C 
BRANCH   9  11
ATOM     11  C   UNL     1      -8.358  -2.356 126.150  0.00  0.00    +0.000 C 
ATOM     12  C   UNL     1      -9.782  -2.835 125.878  0.00  0.00    +0.000 C 
ATOM     13  C   UNL     1      -7.785  -2.932 127.444  0.00  0.00    +0.000 C 
ENDBRANCH   9  11
ENDBRANCH   1   7
BRANCH   1  14
ATOM     14  C   UNL     1      -6.230   2.474 125.171  0.00  0.00    +0.000 C 
ATOM     15  O   UNL     1      -5.672   2.782 126.225  0.00  0.00    +0.000 OA
BRANCH  14  16
ATOM     16  C   UNL     1      -7.096   3.391 124.332  0.00  0.00    +0.000 C 
BRANCH  16  17
ATOM     17  C   UNL     1      -6.393   3.675 123.007  0.00  0.00    +0.000 A 
ATOM     18  C   UNL     1      -5.168   4.362 122.957  0.00  0.00    +0.000 A 
ATOM     19  C   UNL     1      -4.656   4.787 121.727  0.00  0.00    +0.000 A 
ATOM     20  C   UNL     1      -5.313   4.464 120.538  0.00  0.00    +0.000 A 
ATOM     21  C   UNL     1      -6.510   3.768 120.575  0.00  0.00    +0.000 A 
ATOM     22  C   UNL     1      -7.047   3.393 121.796  0.00  0.00    +0.000 A 
ENDBRANCH  16  17
BRANCH  16  23
ATOM     23  C   UNL     1      -7.334   4.673 125.148  0.00  0.00    +0.000 C 
BRANCH  23  24
ATOM     24  O   UNL     1      -8.670   4.829 125.612  0.00  0.00    +0.000 OA
ATOM     25  H   UNL     1      -8.904   4.039 126.123  0.00  0.00    +0.000 HD
ENDBRANCH  23  24
ENDBRANCH  16  23
ENDBRANCH  14  16
ENDBRANCH   1  14
TORSDOF 7
ENDMDL
MODEL 4
REMARK VINA RESULT:      -7.2      7.717      9.695
REMARK  Name = Ipratropium
REMARK  10 active torsions:
REMARK  status: ('A' for Active; 'I' for Inactive)
REMARK    1  A    between atoms: C_8  and  O_10
REMARK    2  A    between atoms: O_10  and  C_11
REMARK    3  A    between atoms: C_11  and  C_13
REMARK    4  A    between atoms: C_13  and  C_14
REMARK    5  A    between atoms: C_13  and  C_16
REMARK    6  A    between atoms: C_14  and  O_15
REMARK    7  A    between atoms: N_22  and  C_23
REMARK    8  A    between atoms: N_22  and  C_24
REMARK    9  A    between atoms: C_24  and  C_25
REMARK   10  A    between atoms: C_24  and  C_26
REMARK                            x       y       z     vdW  Elec       q    Type
REMARK                         _______ _______ _______ _____ _____    ______ ____
ROOT
ATOM      1  O   UNL     1      -9.091   5.164 130.581  0.00  0.00    +0.000 OA
ENDROOT
BRANCH   1   7
ATOM      2  C   UNL     1      -5.709   4.195 131.270  0.00  0.00    +0.000 C 
ATOM      3  C   UNL     1      -6.278   3.898 132.664  0.00  0.00    +0.000 C 
ATOM      4  C   UNL     1      -6.529   5.255 133.297  0.00  0.00    +0.000 C 
ATOM      5  C   UNL     1      -6.120   6.284 132.236  0.00  0.00    +0.000 C 
ATOM      6  C   UNL     1      -7.337   6.617 131.363  0.00  0.00    +0.000 C 
ATOM      7  C   UNL     1      -7.727   5.539 130.334  0.00  0.00    +0.000 C 
ATOM      8  C   UNL     1      -6.856   4.270 130.287  0.00  0.00    +0.000 C 
ATOM      9  N   UNL     1      -5.028   5.563 131.405  0.00  0.00    +0.000 N 
ATOM     10  C   UNL     1      -3.716   5.413 132.210  0.00  0.00    +0.000 C 
BRANCH   9  11
ATOM     11  C   UNL     1      -4.684   6.260 130.042  0.00  0.00    +0.000 C 
ATOM     12  C   UNL     1      -4.289   7.719 130.260  0.00  0.00    +0.000 C 
ATOM     13  C   UNL     1      -3.624   5.478 129.268  0.00  0.00    +0.000 C 
ENDBRANCH   9  11
ENDBRANCH   1   7
BRANCH   1  14
ATOM     14  C   UNL     1     -10.020   5.776 129.786  0.00  0.00    +0.000 C 
ATOM     15  O   UNL     1      -9.807   6.083 128.611  0.00  0.00    +0.000 OA
BRANCH  14  16
ATOM     16  C   UNL     1     -11.344   5.920 130.508  0.00  0.00    +0.000 C 
BRANCH  16  17
ATOM     17  C   UNL     1     -12.227   6.906 129.747  0.00  0.00    +0.000 A 
ATOM     18  C   UNL     1     -13.072   6.484 128.706  0.00  0.00    +0.000 A 
ATOM     19  C   UNL     1     -13.707   7.432 127.896  0.00  0.00    +0.000 A 
ATOM     20  C   UNL     1     -13.573   8.795 128.165  0.00  0.00    +0.000 A 
ATOM     21  C   UNL     1     -12.760   9.220 129.203  0.00  0.00    +0.000 A 
ATOM     22  C   UNL     1     -12.086   8.286 129.972  0.00  0.00    +0.000 A 
ENDBRANCH  16  17
BRANCH  16  23
ATOM     23  C   UNL     1     -11.039   6.399 131.938  0.00  0.00    +0.000 C 
BRANCH  23  24
ATOM     24  O   UNL     1     -10.619   5.366 132.820  0.00  0.00    +0.000 OA
ATOM     25  H   UNL     1     -10.493   4.557 132.299  0.00  0.00    +0.000 HD
ENDBRANCH  23  24
ENDBRANCH  16  23
ENDBRANCH  14  16
ENDBRANCH   1  14
TORSDOF 7
ENDMDL
MODEL 5
REMARK VINA RESULT:      -7.2      6.571      8.483
REMARK  Name = Ipratropium
REMARK  10 active torsions:
REMARK  status: ('A' for Active; 'I' for Inactive)
REMARK    1  A    between atoms: C_8  and  O_10
REMARK    2  A    between atoms: O_10  and  C_11
REMARK    3  A    between atoms: C_11  and  C_13
REMARK    4  A    between atoms: C_13  and  C_14
REMARK    5  A    between atoms: C_13  and  C_16
REMARK    6  A    between atoms: C_14  and  O_15
REMARK    7  A    between atoms: N_22  and  C_23
REMARK    8  A    between atoms: N_22  and  C_24
REMARK    9  A    between atoms: C_24  and  C_25
REMARK   10  A    between atoms: C_24  and  C_26
REMARK                            x       y       z     vdW  Elec       q    Type
REMARK                         _______ _______ _______ _____ _____    ______ ____
ROOT
ATOM      1  O   UNL     1      -9.144   5.467 130.694  0.00  0.00    +0.000 OA
ENDROOT
BRANCH   1   7
ATOM      2  C   UNL     1      -9.219   1.917 131.183  0.00  0.00    +0.000 C 
ATOM      3  C   UNL     1      -9.531   2.314 132.633  0.00  0.00    +0.000 C 
ATOM      4  C   UNL     1      -8.228   2.851 133.196  0.00  0.00    +0.000 C 
ATOM      5  C   UNL     1      -7.218   2.768 132.045  0.00  0.00    +0.000 C 
ATOM      6  C   UNL     1      -7.257   4.078 131.247  0.00  0.00    +0.000 C 
ATOM      7  C   UNL     1      -8.475   4.253 130.321  0.00  0.00    +0.000 C 
ATOM      8  C   UNL     1      -9.499   3.104 130.288  0.00  0.00    +0.000 C 
ATOM      9  N   UNL     1      -7.721   1.583 131.180  0.00  0.00    +0.000 N 
ATOM     10  C   UNL     1      -7.489   0.230 131.890  0.00  0.00    +0.000 C 
BRANCH   9  11
ATOM     11  C   UNL     1      -7.073   1.500 129.754  0.00  0.00    +0.000 C 
ATOM     12  C   UNL     1      -5.561   1.311 129.852  0.00  0.00    +0.000 C 
ATOM     13  C   UNL     1      -7.741   0.423 128.900  0.00  0.00    +0.000 C 
ENDBRANCH   9  11
ENDBRANCH   1   7
BRANCH   1  14
ATOM     14  C   UNL     1     -10.091   5.909 129.811  0.00  0.00    +0.000 C 
ATOM     15  O   UNL     1      -9.862   6.101 128.616  0.00  0.00    +0.000 OA
BRANCH  14  16
ATOM     16  C   UNL     1     -11.447   6.020 130.477  0.00  0.00    +0.000 C 
BRANCH  16  17
ATOM     17  C   UNL     1     -12.320   6.990 129.685  0.00  0.00    +0.000 A 
ATOM     18  C   UNL     1     -13.127   6.552 128.621  0.00  0.00    +0.000 A 
ATOM     19  C   UNL     1     -13.749   7.488 127.788  0.00  0.00    +0.000 A 
ATOM     20  C   UNL     1     -13.640   8.853 128.053  0.00  0.00    +0.000 A 
ATOM     21  C   UNL     1     -12.865   9.294 129.113  0.00  0.00    +0.000 A 
ATOM     22  C   UNL     1     -12.203   8.372 129.907  0.00  0.00    +0.000 A 
ENDBRANCH  16  17
BRANCH  16  23
ATOM     23  C   UNL     1     -11.213   6.496 131.921  0.00  0.00    +0.000 C 
BRANCH  23  24
ATOM     24  O   UNL     1     -10.824   5.464 132.819  0.00  0.00    +0.000 OA
ATOM     25  H   UNL     1     -10.300   4.816 132.324  0.00  0.00    +0.000 HD
ENDBRANCH  23  24
ENDBRANCH  16  23
ENDBRANCH  14  16
ENDBRANCH   1  14
TORSDOF 7
ENDMDL
MODEL 6
REMARK VINA RESULT:      -7.1      1.909      3.159
REMARK  Name = Ipratropium
REMARK  10 active torsions:
REMARK  status: ('A' for Active; 'I' for Inactive)
REMARK    1  A    between atoms: C_8  and  O_10
REMARK    2  A    between atoms: O_10  and  C_11
REMARK    3  A    between atoms: C_11  and  C_13
REMARK    4  A    between atoms: C_13  and  C_14
REMARK    5  A    between atoms: C_13  and  C_16
REMARK    6  A    between atoms: C_14  and  O_15
REMARK    7  A    between atoms: N_22  and  C_23
REMARK    8  A    between atoms: N_22  and  C_24
REMARK    9  A    between atoms: C_24  and  C_25
REMARK   10  A    between atoms: C_24  and  C_26
REMARK                            x       y       z     vdW  Elec       q    Type
REMARK                         _______ _______ _______ _____ _____    ______ ____
ROOT
ATOM      1  O   UNL     1      -6.676   1.502 126.402  0.00  0.00    +0.000 OA
ENDROOT
BRANCH   1   7
ATOM      2  C   UNL     1      -8.150  -1.239 124.623  0.00  0.00    +0.000 C 
ATOM      3  C   UNL     1      -8.966  -1.391 125.914  0.00  0.00    +0.000 C 
ATOM      4  C   UNL     1      -7.999  -1.948 126.943  0.00  0.00    +0.000 C 
ATOM      5  C   UNL     1      -6.655  -2.074 126.216  0.00  0.00    +0.000 C 
ATOM      6  C   UNL     1      -5.868  -0.767 126.384  0.00  0.00    +0.000 C 
ATOM      7  C   UNL     1      -6.356   0.413 125.522  0.00  0.00    +0.000 C 
ATOM      8  C   UNL     1      -7.553   0.151 124.591  0.00  0.00    +0.000 C 
ATOM      9  N   UNL     1      -7.042  -2.296 124.731  0.00  0.00    +0.000 N 
ATOM     10  C   UNL     1      -7.643  -3.703 124.511  0.00  0.00    +0.000 C 
BRANCH   9  11
ATOM     11  C   UNL     1      -5.859  -2.109 123.717  0.00  0.00    +0.000 C 
ATOM     12  C   UNL     1      -4.846  -3.244 123.845  0.00  0.00    +0.000 C 
ATOM     13  C   UNL     1      -6.371  -1.943 122.288  0.00  0.00    +0.000 C 
ENDBRANCH   9  11
ENDBRANCH   1   7
BRANCH   1  14
ATOM     14  C   UNL     1      -6.805   2.723 125.801  0.00  0.00    +0.000 C 
ATOM     15  O   UNL     1      -7.824   3.412 125.883  0.00  0.00    +0.000 OA
BRANCH  14  16
ATOM     16  C   UNL     1      -5.512   3.139 125.129  0.00  0.00    +0.000 C 
BRANCH  16  17
ATOM     17  C   UNL     1      -4.525   3.618 126.191  0.00  0.00    +0.000 A 
ATOM     18  C   UNL     1      -4.664   4.870 126.813  0.00  0.00    +0.000 A 
ATOM     19  C   UNL     1      -3.636   5.365 127.622  0.00  0.00    +0.000 A 
ATOM     20  C   UNL     1      -2.505   4.590 127.881  0.00  0.00    +0.000 A 
ATOM     21  C   UNL     1      -2.368   3.344 127.290  0.00  0.00    +0.000 A 
ATOM     22  C   UNL     1      -3.360   2.875 126.444  0.00  0.00    +0.000 A 
ENDBRANCH  16  17
BRANCH  16  23
ATOM     23  C   UNL     1      -5.855   4.245 124.116  0.00  0.00    +0.000 C 
BRANCH  23  24
ATOM     24  O   UNL     1      -6.920   3.915 123.233  0.00  0.00    +0.000 OA
ATOM     25  H   UNL     1      -7.177   2.995 123.401  0.00  0.00    +0.000 HD
ENDBRANCH  23  24
ENDBRANCH  16  23
ENDBRANCH  14  16
ENDBRANCH   1  14
TORSDOF 7
ENDMDL
MODEL 7
REMARK VINA RESULT:      -7.0      7.180      8.973
REMARK  Name = Ipratropium
REMARK  10 active torsions:
REMARK  status: ('A' for Active; 'I' for Inactive)
REMARK    1  A    between atoms: C_8  and  O_10
REMARK    2  A    between atoms: O_10  and  C_11
REMARK    3  A    between atoms: C_11  and  C_13
REMARK    4  A    between atoms: C_13  and  C_14
REMARK    5  A    between atoms: C_13  and  C_16
REMARK    6  A    between atoms: C_14  and  O_15
REMARK    7  A    between atoms: N_22  and  C_23
REMARK    8  A    between atoms: N_22  and  C_24
REMARK    9  A    between atoms: C_24  and  C_25
REMARK   10  A    between atoms: C_24  and  C_26
REMARK                            x       y       z     vdW  Elec       q    Type
REMARK                         _______ _______ _______ _____ _____    ______ ____
ROOT
ATOM      1  O   UNL     1      -9.885   4.327 130.402  0.00  0.00    +0.000 OA
ENDROOT
BRANCH   1   7
ATOM      2  C   UNL     1      -7.300   1.869 130.758  0.00  0.00    +0.000 C 
ATOM      3  C   UNL     1      -8.452   0.893 130.483  0.00  0.00    +0.000 C 
ATOM      4  C   UNL     1      -9.294   0.893 131.746  0.00  0.00    +0.000 C 
ATOM      5  C   UNL     1      -8.612   1.888 132.693  0.00  0.00    +0.000 C 
ATOM      6  C   UNL     1      -9.201   3.286 132.462  0.00  0.00    +0.000 C 
ATOM      7  C   UNL     1      -8.725   4.000 131.183  0.00  0.00    +0.000 C 
ATOM      8  C   UNL     1      -7.716   3.249 130.297  0.00  0.00    +0.000 C 
ATOM      9  N   UNL     1      -7.118   1.846 132.281  0.00  0.00    +0.000 N 
ATOM     10  C   UNL     1      -6.455   0.515 132.704  0.00  0.00    +0.000 C 
BRANCH   9  11
ATOM     11  C   UNL     1      -6.253   3.022 132.856  0.00  0.00    +0.000 C 
ATOM     12  C   UNL     1      -6.294   3.035 134.382  0.00  0.00    +0.000 C 
ATOM     13  C   UNL     1      -4.827   2.983 132.310  0.00  0.00    +0.000 C 
ENDBRANCH   9  11
ENDBRANCH   1   7
BRANCH   1  14
ATOM     14  C   UNL     1     -10.159   5.662 130.290  0.00  0.00    +0.000 C 
ATOM     15  O   UNL     1      -9.356   6.480 129.836  0.00  0.00    +0.000 OA
BRANCH  14  16
ATOM     16  C   UNL     1     -11.588   5.961 130.692  0.00  0.00    +0.000 C 
BRANCH  16  17
ATOM     17  C   UNL     1     -12.183   6.978 129.722  0.00  0.00    +0.000 A 
ATOM     18  C   UNL     1     -12.161   8.356 129.998  0.00  0.00    +0.000 A 
ATOM     19  C   UNL     1     -12.893   9.239 129.197  0.00  0.00    +0.000 A 
ATOM     20  C   UNL     1     -13.581   8.772 128.076  0.00  0.00    +0.000 A 
ATOM     21  C   UNL     1     -13.591   7.418 127.784  0.00  0.00    +0.000 A 
ATOM     22  C   UNL     1     -12.912   6.534 128.607  0.00  0.00    +0.000 A 
ENDBRANCH  16  17
BRANCH  16  23
ATOM     23  C   UNL     1     -11.559   6.486 132.138  0.00  0.00    +0.000 C 
BRANCH  23  24
ATOM     24  O   UNL     1     -10.264   6.503 132.725  0.00  0.00    +0.000 OA
ATOM     25  H   UNL     1      -9.635   6.148 132.078  0.00  0.00    +0.000 HD
ENDBRANCH  23  24
ENDBRANCH  16  23
ENDBRANCH  14  16
ENDBRANCH   1  14
TORSDOF 7
ENDMDL
MODEL 8
REMARK VINA RESULT:      -6.6      5.318      7.838
REMARK  Name = Ipratropium
REMARK  10 active torsions:
REMARK  status: ('A' for Active; 'I' for Inactive)
REMARK    1  A    between atoms: C_8  and  O_10
REMARK    2  A    between atoms: O_10  and  C_11
REMARK    3  A    between atoms: C_11  and  C_13
REMARK    4  A    between atoms: C_13  and  C_14
REMARK    5  A    between atoms: C_13  and  C_16
REMARK    6  A    between atoms: C_14  and  O_15
REMARK    7  A    between atoms: N_22  and  C_23
REMARK    8  A    between atoms: N_22  and  C_24
REMARK    9  A    between atoms: C_24  and  C_25
REMARK   10  A    between atoms: C_24  and  C_26
REMARK                            x       y       z     vdW  Elec       q    Type
REMARK                         _______ _______ _______ _____ _____    ______ ____
ROOT
ATOM      1  O   UNL     1      -7.541   4.607 128.153  0.00  0.00    +0.000 OA
ENDROOT
BRANCH   1   7
ATOM      2  C   UNL     1      -9.036   5.434 131.304  0.00  0.00    +0.000 C 
ATOM      3  C   UNL     1      -8.600   6.855 130.924  0.00  0.00    +0.000 C 
ATOM      4  C   UNL     1      -7.091   6.874 131.086  0.00  0.00    +0.000 C 
ATOM      5  C   UNL     1      -6.709   5.456 131.530  0.00  0.00    +0.000 C 
ATOM      6  C   UNL     1      -6.429   4.599 130.289  0.00  0.00    +0.000 C 
ATOM      7  C   UNL     1      -7.675   4.144 129.505  0.00  0.00    +0.000 C 
ATOM      8  C   UNL     1      -9.044   4.581 130.054  0.00  0.00    +0.000 C 
ATOM      9  N   UNL     1      -7.962   4.940 132.283  0.00  0.00    +0.000 N 
ATOM     10  C   UNL     1      -8.134   5.653 133.644  0.00  0.00    +0.000 C 
BRANCH   9  11
ATOM     11  C   UNL     1      -7.973   3.393 132.541  0.00  0.00    +0.000 C 
ATOM     12  C   UNL     1      -6.751   2.965 133.349  0.00  0.00    +0.000 C 
ATOM     13  C   UNL     1      -9.284   2.944 133.184  0.00  0.00    +0.000 C 
ENDBRANCH   9  11
ENDBRANCH   1   7
BRANCH   1  14
ATOM     14  C   UNL     1      -7.614   3.637 127.191  0.00  0.00    +0.000 C 
ATOM     15  O   UNL     1      -8.505   2.786 127.157  0.00  0.00    +0.000 OA
BRANCH  14  16
ATOM     16  C   UNL     1      -6.533   3.823 126.147  0.00  0.00    +0.000 C 
BRANCH  16  17
ATOM     17  C   UNL     1      -5.172   3.883 126.835  0.00  0.00    +0.000 A 
ATOM     18  C   UNL     1      -4.623   2.759 127.477  0.00  0.00    +0.000 A 
ATOM     19  C   UNL     1      -3.481   2.899 128.272  0.00  0.00    +0.000 A 
ATOM     20  C   UNL     1      -2.833   4.132 128.368  0.00  0.00    +0.000 A 
ATOM     21  C   UNL     1      -3.353   5.241 127.721  0.00  0.00    +0.000 A 
ATOM     22  C   UNL     1      -4.516   5.117 126.978  0.00  0.00    +0.000 A 
ENDBRANCH  16  17
BRANCH  16  23
ATOM     23  C   UNL     1      -6.851   5.119 125.380  0.00  0.00    +0.000 C 
BRANCH  23  24
ATOM     24  O   UNL     1      -8.210   5.530 125.472  0.00  0.00    +0.000 OA
ATOM     25  H   UNL     1      -8.769   4.780 125.217  0.00  0.00    +0.000 HD
ENDBRANCH  23  24
ENDBRANCH  16  23
ENDBRANCH  14  16
ENDBRANCH   1  14
TORSDOF 7
ENDMDL
MODEL 9
REMARK VINA RESULT:      -6.5      3.703      5.609
REMARK  Name = Ipratropium
REMARK  10 active torsions:
REMARK  status: ('A' for Active; 'I' for Inactive)
REMARK    1  A    between atoms: C_8  and  O_10
REMARK    2  A    between atoms: O_10  and  C_11
REMARK    3  A    between atoms: C_11  and  C_13
REMARK    4  A    between atoms: C_13  and  C_14
REMARK    5  A    between atoms: C_13  and  C_16
REMARK    6  A    between atoms: C_14  and  O_15
REMARK    7  A    between atoms: N_22  and  C_23
REMARK    8  A    between atoms: N_22  and  C_24
REMARK    9  A    between atoms: C_24  and  C_25
REMARK   10  A    between atoms: C_24  and  C_26
REMARK                            x       y       z     vdW  Elec       q    Type
REMARK                         _______ _______ _______ _____ _____    ______ ____
ROOT
ATOM      1  O   UNL     1      -7.374   0.393 127.814  0.00  0.00    +0.000 OA
ENDROOT
BRANCH   1   7
ATOM      2  C   UNL     1      -6.636  -2.934 128.926  0.00  0.00    +0.000 C 
ATOM      3  C   UNL     1      -8.012  -2.811 129.597  0.00  0.00    +0.000 C 
ATOM      4  C   UNL     1      -7.812  -1.858 130.761  0.00  0.00    +0.000 C 
ATOM      5  C   UNL     1      -6.336  -1.446 130.705  0.00  0.00    +0.000 C 
ATOM      6  C   UNL     1      -6.197  -0.192 129.831  0.00  0.00    +0.000 C 
ATOM      7  C   UNL     1      -6.309  -0.429 128.313  0.00  0.00    +0.000 C 
ATOM      8  C   UNL     1      -6.531  -1.879 127.847  0.00  0.00    +0.000 C 
ATOM      9  N   UNL     1      -5.626  -2.656 130.047  0.00  0.00    +0.000 N 
ATOM     10  C   UNL     1      -5.571  -3.867 131.007  0.00  0.00    +0.000 C 
BRANCH   9  11
ATOM     11  C   UNL     1      -4.166  -2.362 129.554  0.00  0.00    +0.000 C 
ATOM     12  C   UNL     1      -3.333  -1.722 130.662  0.00  0.00    +0.000 C 
ATOM     13  C   UNL     1      -3.508  -3.616 128.980  0.00  0.00    +0.000 C 
ENDBRANCH   9  11
ENDBRANCH   1   7
BRANCH   1  14
ATOM     14  C   UNL     1      -7.430   0.517 126.453  0.00  0.00    +0.000 C 
ATOM     15  O   UNL     1      -6.433   0.693 125.750  0.00  0.00    +0.000 OA
BRANCH  14  16
ATOM     16  C   UNL     1      -8.841   0.304 125.944  0.00  0.00    +0.000 C 
BRANCH  16  17
ATOM     17  C   UNL     1      -8.877  -0.944 125.067  0.00  0.00    +0.000 A 
ATOM     18  C   UNL     1      -8.771  -0.864 123.668  0.00  0.00    +0.000 A 
ATOM     19  C   UNL     1      -9.016  -1.996 122.883  0.00  0.00    +0.000 A 
ATOM     20  C   UNL     1      -9.286  -3.226 123.483  0.00  0.00    +0.000 A 
ATOM     21  C   UNL     1      -9.371  -3.321 124.863  0.00  0.00    +0.000 A 
ATOM     22  C   UNL     1      -9.183  -2.190 125.640  0.00  0.00    +0.000 A 
ENDBRANCH  16  17
BRANCH  16  23
ATOM     23  C   UNL     1      -9.246   1.570 125.167  0.00  0.00    +0.000 C 
BRANCH  23  24
ATOM     24  O   UNL     1      -8.669   2.770 125.669  0.00  0.00    +0.000 OA
ATOM     25  H   UNL     1      -8.838   2.809 126.623  0.00  0.00    +0.000 HD
ENDBRANCH  23  24
ENDBRANCH  16  23
ENDBRANCH  14  16
ENDBRANCH   1  14
TORSDOF 7
ENDMDL
