MODEL 1
REMARK VINA RESULT:      -8.9      0.000      0.000
REMARK  Name = Irbesartan
REMARK  8 active torsions:
REMARK  status: ('A' for Active; 'I' for Inactive)
REMARK    1  A    between atoms: C_1  and  C_2
REMARK    2  A    between atoms: C_2  and  C_3
REMARK    3  A    between atoms: C_3  and  C_4
REMARK    4  A    between atoms: C_4  and  C_5
REMARK    5  A    between atoms: N_14  and  C_15
REMARK    6  A    between atoms: C_15  and  C_16
REMARK    7  A    between atoms: C_19  and  C_22
REMARK    8  A    between atoms: C_27  and  C_28
REMARK                            x       y       z     vdW  Elec       q    Type
REMARK                         _______ _______ _______ _____ _____    ______ ____
ROOT
ATOM      1  C   UNL     1      -7.927  -2.574 126.712  0.00  0.00    +0.000 A 
ATOM      2  C   UNL     1      -6.629  -2.165 127.042  0.00  0.00    +0.000 A 
ATOM      3  C   UNL     1      -6.090  -2.550 128.257  0.00  0.00    +0.000 A 
ATOM      4  C   UNL     1      -6.887  -3.215 129.201  0.00  0.00    +0.000 A 
ATOM      5  C   UNL     1      -8.195  -3.583 128.866  0.00  0.00    +0.000 A 
ATOM      6  C   UNL     1      -8.685  -3.328 127.604  0.00  0.00    +0.000 A 
ENDROOT
BRANCH   4   7
ATOM      7  C   UNL     1      -6.335  -3.557 130.509  0.00  0.00    +0.000 A 
ATOM      8  C   UNL     1      -5.734  -4.817 130.688  0.00  0.00    +0.000 A 
ATOM      9  C   UNL     1      -5.304  -5.226 131.945  0.00  0.00    +0.000 A 
ATOM     10  C   UNL     1      -5.381  -4.346 133.021  0.00  0.00    +0.000 A 
ATOM     11  C   UNL     1      -5.920  -3.070 132.849  0.00  0.00    +0.000 A 
ATOM     12  C   UNL     1      -6.410  -2.669 131.602  0.00  0.00    +0.000 A 
BRANCH  12  13
ATOM     13  C   UNL     1      -6.980  -1.338 131.463  0.00  0.00    +0.000 A 
ATOM     14  N   UNL     1      -8.254  -1.032 131.767  0.00  0.00    +0.000 NA
ATOM     15  N   UNL     1      -8.230   0.291 131.559  0.00  0.00    +0.000 N 
ATOM     16  N   UNL     1      -7.066   0.807 131.154  0.00  0.00    +0.000 NA
ATOM     17  N   UNL     1      -6.249  -0.235 131.085  0.00  0.00    +0.000 NA
ATOM     18  H   UNL     1      -9.053   0.872 131.687  0.00  0.00    +0.000 HD
ENDBRANCH  12  13
ENDBRANCH   4   7
BRANCH   1  19
ATOM     19  C   UNL     1      -8.551  -2.180 125.422  0.00  0.00    +0.000 C 
BRANCH  19  29
ATOM     20  C   UNL     1      -7.334  -0.856 123.681  0.00  0.00    +0.000 C 
ATOM     21  N   UNL     1      -7.045   0.337 123.253  0.00  0.00    +0.000 NA
ATOM     22  C   UNL     1      -7.576   1.245 124.297  0.00  0.00    +0.000 C 
ATOM     23  C   UNL     1      -6.445   2.006 124.999  0.00  0.00    +0.000 C 
ATOM     24  C   UNL     1      -6.687   3.468 124.651  0.00  0.00    +0.000 C 
ATOM     25  C   UNL     1      -8.199   3.559 124.528  0.00  0.00    +0.000 C 
ATOM     26  C   UNL     1      -8.532   2.299 123.731  0.00  0.00    +0.000 C 
ATOM     27  C   UNL     1      -8.238   0.327 125.291  0.00  0.00    +0.000 C 
ATOM     28  O   UNL     1      -8.752   0.723 126.318  0.00  0.00    +0.000 OA
ATOM     29  N   UNL     1      -8.058  -0.946 124.813  0.00  0.00    +0.000 N 
BRANCH  20  30
ATOM     30  C   UNL     1      -6.829  -2.087 122.966  0.00  0.00    +0.000 C 
BRANCH  30  31
ATOM     31  C   UNL     1      -5.438  -2.458 123.479  0.00  0.00    +0.000 C 
BRANCH  31  33
ATOM     32  C   UNL     1      -4.140  -4.569 123.514  0.00  0.00    +0.000 C 
ATOM     33  C   UNL     1      -5.373  -3.859 124.055  0.00  0.00    +0.000 C 
ENDBRANCH  31  33
ENDBRANCH  30  31
ENDBRANCH  20  30
ENDBRANCH  19  29
ENDBRANCH   1  19
TORSDOF 7
ENDMDL
MODEL 2
REMARK VINA RESULT:      -8.3      5.073      8.131
REMARK  Name = Irbesartan
REMARK  8 active torsions:
REMARK  status: ('A' for Active; 'I' for Inactive)
REMARK    1  A    between atoms: C_1  and  C_2
REMARK    2  A    between atoms: C_2  and  C_3
REMARK    3  A    between atoms: C_3  and  C_4
REMARK    4  A    between atoms: C_4  and  C_5
REMARK    5  A    between atoms: N_14  and  C_15
REMARK    6  A    between atoms: C_15  and  C_16
REMARK    7  A    between atoms: C_19  and  C_22
REMARK    8  A    between atoms: C_27  and  C_28
REMARK                            x       y       z     vdW  Elec       q    Type
REMARK                         _______ _______ _______ _____ _____    ______ ____
ROOT
ATOM      1  C   UNL     1      -7.706   3.897 129.711  0.00  0.00    +0.000 A 
ATOM      2  C   UNL     1      -8.837   3.100 129.927  0.00  0.00    +0.000 A 
ATOM      3  C   UNL     1      -8.806   1.769 129.546  0.00  0.00    +0.000 A 
ATOM      4  C   UNL     1      -7.712   1.270 128.823  0.00  0.00    +0.000 A 
ATOM      5  C   UNL     1      -6.605   2.094 128.586  0.00  0.00    +0.000 A 
ATOM      6  C   UNL     1      -6.574   3.375 129.089  0.00  0.00    +0.000 A 
ENDROOT
BRANCH   4   7
ATOM      7  C   UNL     1      -7.715  -0.115 128.362  0.00  0.00    +0.000 A 
ATOM      8  C   UNL     1      -7.394  -1.139 129.274  0.00  0.00    +0.000 A 
ATOM      9  C   UNL     1      -7.270  -2.456 128.847  0.00  0.00    +0.000 A 
ATOM     10  C   UNL     1      -7.558  -2.783 127.525  0.00  0.00    +0.000 A 
ATOM     11  C   UNL     1      -7.936  -1.789 126.621  0.00  0.00    +0.000 A 
ATOM     12  C   UNL     1      -8.006  -0.452 127.024  0.00  0.00    +0.000 A 
BRANCH  12  13
ATOM     13  C   UNL     1      -8.388   0.560 126.051  0.00  0.00    +0.000 A 
ATOM     14  N   UNL     1      -7.545   1.082 125.143  0.00  0.00    +0.000 NA
ATOM     15  N   UNL     1      -8.395   1.861 124.461  0.00  0.00    +0.000 N 
ATOM     16  N   UNL     1      -9.665   1.860 124.876  0.00  0.00    +0.000 NA
ATOM     17  N   UNL     1      -9.676   1.025 125.905  0.00  0.00    +0.000 NA
ATOM     18  H   UNL     1      -8.093   2.434 123.678  0.00  0.00    +0.000 HD
ENDBRANCH  12  13
ENDBRANCH   4   7
BRANCH   1  19
ATOM     19  C   UNL     1      -7.694   5.333 130.098  0.00  0.00    +0.000 C 
BRANCH  19  29
ATOM     20  C   UNL     1      -9.609   6.364 131.334  0.00  0.00    +0.000 C 
ATOM     21  N   UNL     1     -10.736   7.001 131.221  0.00  0.00    +0.000 NA
ATOM     22  C   UNL     1     -11.016   7.005 129.766  0.00  0.00    +0.000 C 
ATOM     23  C   UNL     1     -12.273   6.189 129.439  0.00  0.00    +0.000 C 
ATOM     24  C   UNL     1     -13.261   7.204 128.881  0.00  0.00    +0.000 C 
ATOM     25  C   UNL     1     -12.369   8.224 128.191  0.00  0.00    +0.000 C 
ATOM     26  C   UNL     1     -11.250   8.414 129.213  0.00  0.00    +0.000 C 
ATOM     27  C   UNL     1      -9.820   6.325 129.152  0.00  0.00    +0.000 C 
ATOM     28  O   UNL     1      -9.720   6.108 127.961  0.00  0.00    +0.000 OA
ATOM     29  N   UNL     1      -8.996   5.989 130.195  0.00  0.00    +0.000 N 
BRANCH  20  30
ATOM     30  C   UNL     1      -9.043   6.013 132.690  0.00  0.00    +0.000 C 
BRANCH  30  31
ATOM     31  C   UNL     1      -9.550   4.641 133.131  0.00  0.00    +0.000 C 
BRANCH  31  33
ATOM     32  C   UNL     1      -7.973   2.767 133.507  0.00  0.00    +0.000 C 
ATOM     33  C   UNL     1      -8.645   3.973 134.147  0.00  0.00    +0.000 C 
ENDBRANCH  31  33
ENDBRANCH  30  31
ENDBRANCH  20  30
ENDBRANCH  19  29
ENDBRANCH   1  19
TORSDOF 7
ENDMDL
MODEL 3
REMARK VINA RESULT:      -8.2      3.819      7.732
REMARK  Name = Irbesartan
REMARK  8 active torsions:
REMARK  status: ('A' for Active; 'I' for Inactive)
REMARK    1  A    between atoms: C_1  and  C_2
REMARK    2  A    between atoms: C_2  and  C_3
REMARK    3  A    between atoms: C_3  and  C_4
REMARK    4  A    between atoms: C_4  and  C_5
REMARK    5  A    between atoms: N_14  and  C_15
REMARK    6  A    between atoms: C_15  and  C_16
REMARK    7  A    between atoms: C_19  and  C_22
REMARK    8  A    between atoms: C_27  and  C_28
REMARK                            x       y       z     vdW  Elec       q    Type
REMARK                         _______ _______ _______ _____ _____    ______ ____
ROOT
ATOM      1  C   UNL     1      -7.398   1.800 128.195  0.00  0.00    +0.000 A 
ATOM      2  C   UNL     1      -8.730   1.765 127.765  0.00  0.00    +0.000 A 
ATOM      3  C   UNL     1      -9.117   0.802 126.848  0.00  0.00    +0.000 A 
ATOM      4  C   UNL     1      -8.156  -0.027 126.252  0.00  0.00    +0.000 A 
ATOM      5  C   UNL     1      -6.822   0.049 126.668  0.00  0.00    +0.000 A 
ATOM      6  C   UNL     1      -6.460   0.906 127.683  0.00  0.00    +0.000 A 
ENDROOT
BRANCH   4   7
ATOM      7  C   UNL     1      -8.558  -0.993 125.233  0.00  0.00    +0.000 A 
ATOM      8  C   UNL     1      -8.858  -2.312 125.624  0.00  0.00    +0.000 A 
ATOM      9  C   UNL     1      -9.130  -3.289 124.673  0.00  0.00    +0.000 A 
ATOM     10  C   UNL     1      -9.199  -2.942 123.327  0.00  0.00    +0.000 A 
ATOM     11  C   UNL     1      -8.963  -1.626 122.927  0.00  0.00    +0.000 A 
ATOM     12  C   UNL     1      -8.631  -0.647 123.868  0.00  0.00    +0.000 A 
BRANCH  12  13
ATOM     13  C   UNL     1      -8.375   0.711 123.414  0.00  0.00    +0.000 A 
ATOM     14  N   UNL     1      -7.150   1.191 123.134  0.00  0.00    +0.000 NA
ATOM     15  N   UNL     1      -7.476   2.409 122.683  0.00  0.00    +0.000 N 
ATOM     16  N   UNL     1      -8.778   2.708 122.669  0.00  0.00    +0.000 NA
ATOM     17  N   UNL     1      -9.372   1.621 123.142  0.00  0.00    +0.000 NA
ATOM     18  H   UNL     1      -6.774   3.077 122.378  0.00  0.00    +0.000 HD
ENDBRANCH  12  13
ENDBRANCH   4   7
BRANCH   1  19
ATOM     19  C   UNL     1      -6.934   2.818 129.173  0.00  0.00    +0.000 C 
BRANCH  19  29
ATOM     20  C   UNL     1      -8.382   3.099 131.194  0.00  0.00    +0.000 C 
ATOM     21  N   UNL     1      -9.269   3.848 131.779  0.00  0.00    +0.000 NA
ATOM     22  C   UNL     1      -9.610   4.878 130.769  0.00  0.00    +0.000 C 
ATOM     23  C   UNL     1     -11.069   4.749 130.315  0.00  0.00    +0.000 C 
ATOM     24  C   UNL     1     -11.732   6.041 130.774  0.00  0.00    +0.000 C 
ATOM     25  C   UNL     1     -10.612   7.065 130.688  0.00  0.00    +0.000 C 
ATOM     26  C   UNL     1      -9.436   6.304 131.297  0.00  0.00    +0.000 C 
ATOM     27  C   UNL     1      -8.708   4.571 129.602  0.00  0.00    +0.000 C 
ATOM     28  O   UNL     1      -8.740   5.191 128.558  0.00  0.00    +0.000 OA
ATOM     29  N   UNL     1      -7.971   3.474 129.968  0.00  0.00    +0.000 N 
BRANCH  20  30
ATOM     30  C   UNL     1      -7.879   1.832 131.844  0.00  0.00    +0.000 C 
BRANCH  30  31
ATOM     31  C   UNL     1      -8.796   0.662 131.494  0.00  0.00    +0.000 C 
BRANCH  31  33
ATOM     32  C   UNL     1      -8.036  -1.301 130.186  0.00  0.00    +0.000 C 
ATOM     33  C   UNL     1      -8.101  -0.682 131.576  0.00  0.00    +0.000 C 
ENDBRANCH  31  33
ENDBRANCH  30  31
ENDBRANCH  20  30
ENDBRANCH  19  29
ENDBRANCH   1  19
TORSDOF 7
ENDMDL
MODEL 4
REMARK VINA RESULT:      -8.2      2.708      7.429
REMARK  Name = Irbesartan
REMARK  8 active torsions:
REMARK  status: ('A' for Active; 'I' for Inactive)
REMARK    1  A    between atoms: C_1  and  C_2
REMARK    2  A    between atoms: C_2  and  C_3
REMARK    3  A    between atoms: C_3  and  C_4
REMARK    4  A    between atoms: C_4  and  C_5
REMARK    5  A    between atoms: N_14  and  C_15
REMARK    6  A    between atoms: C_15  and  C_16
REMARK    7  A    between atoms: C_19  and  C_22
REMARK    8  A    between atoms: C_27  and  C_28
REMARK                            x       y       z     vdW  Elec       q    Type
REMARK                         _______ _______ _______ _____ _____    ______ ____
ROOT
ATOM      1  C   UNL     1      -6.200   0.078 128.498  0.00  0.00    +0.000 A 
ATOM      2  C   UNL     1      -5.525  -0.787 127.628  0.00  0.00    +0.000 A 
ATOM      3  C   UNL     1      -6.186  -1.269 126.511  0.00  0.00    +0.000 A 
ATOM      4  C   UNL     1      -7.554  -1.010 126.337  0.00  0.00    +0.000 A 
ATOM      5  C   UNL     1      -8.220  -0.173 127.240  0.00  0.00    +0.000 A 
ATOM      6  C   UNL     1      -7.530   0.424 128.271  0.00  0.00    +0.000 A 
ENDROOT
BRANCH   4   7
ATOM      7  C   UNL     1      -8.264  -1.579 125.195  0.00  0.00    +0.000 A 
ATOM      8  C   UNL     1      -8.694  -2.918 125.257  0.00  0.00    +0.000 A 
ATOM      9  C   UNL     1      -9.266  -3.531 124.147  0.00  0.00    +0.000 A 
ATOM     10  C   UNL     1      -9.504  -2.788 122.995  0.00  0.00    +0.000 A 
ATOM     11  C   UNL     1      -9.138  -1.443 122.937  0.00  0.00    +0.000 A 
ATOM     12  C   UNL     1      -8.508  -0.832 124.025  0.00  0.00    +0.000 A 
BRANCH  12  13
ATOM     13  C   UNL     1      -8.126   0.569 123.923  0.00  0.00    +0.000 A 
ATOM     14  N   UNL     1      -6.961   0.992 123.401  0.00  0.00    +0.000 NA
ATOM     15  N   UNL     1      -7.151   2.317 123.457  0.00  0.00    +0.000 N 
ATOM     16  N   UNL     1      -8.315   2.728 123.967  0.00  0.00    +0.000 NA
ATOM     17  N   UNL     1      -8.955   1.609 124.276  0.00  0.00    +0.000 NA
ATOM     18  H   UNL     1      -6.446   2.977 123.141  0.00  0.00    +0.000 HD
ENDBRANCH  12  13
ENDBRANCH   4   7
BRANCH   1  19
ATOM     19  C   UNL     1      -5.534   0.616 129.713  0.00  0.00    +0.000 C 
BRANCH  19  29
ATOM     20  C   UNL     1      -6.834  -0.066 131.740  0.00  0.00    +0.000 C 
ATOM     21  N   UNL     1      -7.536   0.352 132.751  0.00  0.00    +0.000 NA
ATOM     22  C   UNL     1      -7.697   1.806 132.516  0.00  0.00    +0.000 C 
ATOM     23  C   UNL     1      -9.165   2.170 132.269  0.00  0.00    +0.000 C 
ATOM     24  C   UNL     1      -9.544   3.069 133.439  0.00  0.00    +0.000 C 
ATOM     25  C   UNL     1      -8.246   3.787 133.770  0.00  0.00    +0.000 C 
ATOM     26  C   UNL     1      -7.226   2.652 133.703  0.00  0.00    +0.000 C 
ATOM     27  C   UNL     1      -6.910   2.072 131.259  0.00  0.00    +0.000 C 
ATOM     28  O   UNL     1      -6.851   3.165 130.734  0.00  0.00    +0.000 OA
ATOM     29  N   UNL     1      -6.395   0.862 130.869  0.00  0.00    +0.000 N 
BRANCH  20  30
ATOM     30  C   UNL     1      -6.573  -1.538 131.525  0.00  0.00    +0.000 C 
BRANCH  30  31
ATOM     31  C   UNL     1      -7.776  -2.192 130.849  0.00  0.00    +0.000 C 
BRANCH  31  33
ATOM     32  C   UNL     1      -8.565  -3.485 128.887  0.00  0.00    +0.000 C 
ATOM     33  C   UNL     1      -7.384  -3.227 129.812  0.00  0.00    +0.000 C 
ENDBRANCH  31  33
ENDBRANCH  30  31
ENDBRANCH  20  30
ENDBRANCH  19  29
ENDBRANCH   1  19
TORSDOF 7
ENDMDL
MODEL 5
REMARK VINA RESULT:      -8.1      4.827      7.444
REMARK  Name = Irbesartan
REMARK  8 active torsions:
REMARK  status: ('A' for Active; 'I' for Inactive)
REMARK    1  A    between atoms: C_1  and  C_2
REMARK    2  A    between atoms: C_2  and  C_3
REMARK    3  A    between atoms: C_3  and  C_4
REMARK    4  A    between atoms: C_4  and  C_5
REMARK    5  A    between atoms: N_14  and  C_15
REMARK    6  A    between atoms: C_15  and  C_16
REMARK    7  A    between atoms: C_19  and  C_22
REMARK    8  A    between atoms: C_27  and  C_28
REMARK                            x       y       z     vdW  Elec       q    Type
REMARK                         _______ _______ _______ _____ _____    ______ ____
ROOT
ATOM      1  C   UNL     1      -7.356   3.411 130.110  0.00  0.00    +0.000 A 
ATOM      2  C   UNL     1      -8.565   2.725 130.275  0.00  0.00    +0.000 A 
ATOM      3  C   UNL     1      -8.575   1.344 130.179  0.00  0.00    +0.000 A 
ATOM      4  C   UNL     1      -7.418   0.659 129.777  0.00  0.00    +0.000 A 
ATOM      5  C   UNL     1      -6.227   1.367 129.581  0.00  0.00    +0.000 A 
ATOM      6  C   UNL     1      -6.181   2.723 129.817  0.00  0.00    +0.000 A 
ENDROOT
BRANCH   4   7
ATOM      7  C   UNL     1      -7.452  -0.792 129.609  0.00  0.00    +0.000 A 
ATOM      8  C   UNL     1      -7.798  -1.325 128.353  0.00  0.00    +0.000 A 
ATOM      9  C   UNL     1      -7.957  -2.696 128.184  0.00  0.00    +0.000 A 
ATOM     10  C   UNL     1      -7.679  -3.558 129.241  0.00  0.00    +0.000 A 
ATOM     11  C   UNL     1      -7.277  -3.049 130.477  0.00  0.00    +0.000 A 
ATOM     12  C   UNL     1      -7.172  -1.669 130.676  0.00  0.00    +0.000 A 
BRANCH  12  13
ATOM     13  C   UNL     1      -6.765  -1.174 131.982  0.00  0.00    +0.000 A 
ATOM     14  N   UNL     1      -5.487  -0.955 132.336  0.00  0.00    +0.000 NA
ATOM     15  N   UNL     1      -5.671  -0.431 133.555  0.00  0.00    +0.000 N 
ATOM     16  N   UNL     1      -6.938  -0.320 133.968  0.00  0.00    +0.000 NA
ATOM     17  N   UNL     1      -7.657  -0.800 132.963  0.00  0.00    +0.000 NA
ATOM     18  H   UNL     1      -4.895  -0.144 134.143  0.00  0.00    +0.000 HD
ENDBRANCH  12  13
ENDBRANCH   4   7
BRANCH   1  19
ATOM     19  C   UNL     1      -7.296   4.893 130.198  0.00  0.00    +0.000 C 
BRANCH  19  29
ATOM     20  C   UNL     1      -9.113   6.013 131.504  0.00  0.00    +0.000 C 
ATOM     21  N   UNL     1     -10.229   6.675 131.433  0.00  0.00    +0.000 NA
ATOM     22  C   UNL     1     -10.592   6.640 129.997  0.00  0.00    +0.000 C 
ATOM     23  C   UNL     1     -11.883   5.846 129.769  0.00  0.00    +0.000 C 
ATOM     24  C   UNL     1     -12.877   6.868 129.233  0.00  0.00    +0.000 C 
ATOM     25  C   UNL     1     -12.002   7.842 128.461  0.00  0.00    +0.000 C 
ATOM     26  C   UNL     1     -10.822   8.035 129.411  0.00  0.00    +0.000 C 
ATOM     27  C   UNL     1      -9.449   5.910 129.340  0.00  0.00    +0.000 C 
ATOM     28  O   UNL     1      -9.422   5.652 128.154  0.00  0.00    +0.000 OA
ATOM     29  N   UNL     1      -8.575   5.586 130.346  0.00  0.00    +0.000 N 
BRANCH  20  30
ATOM     30  C   UNL     1      -8.479   5.691 132.837  0.00  0.00    +0.000 C 
BRANCH  30  31
ATOM     31  C   UNL     1      -9.303   4.633 133.568  0.00  0.00    +0.000 C 
BRANCH  31  33
ATOM     32  C   UNL     1      -7.072   3.593 133.860  0.00  0.00    +0.000 C 
ATOM     33  C   UNL     1      -8.565   3.320 133.739  0.00  0.00    +0.000 C 
ENDBRANCH  31  33
ENDBRANCH  30  31
ENDBRANCH  20  30
ENDBRANCH  19  29
ENDBRANCH   1  19
TORSDOF 7
ENDMDL
MODEL 6
REMARK VINA RESULT:      -7.9      4.165      6.511
REMARK  Name = Irbesartan
REMARK  8 active torsions:
REMARK  status: ('A' for Active; 'I' for Inactive)
REMARK    1  A    between atoms: C_1  and  C_2
REMARK    2  A    between atoms: C_2  and  C_3
REMARK    3  A    between atoms: C_3  and  C_4
REMARK    4  A    between atoms: C_4  and  C_5
REMARK    5  A    between atoms: N_14  and  C_15
REMARK    6  A    between atoms: C_15  and  C_16
REMARK    7  A    between atoms: C_19  and  C_22
REMARK    8  A    between atoms: C_27  and  C_28
REMARK                            x       y       z     vdW  Elec       q    Type
REMARK                         _______ _______ _______ _____ _____    ______ ____
ROOT
ATOM      1  C   UNL     1      -7.388   2.483 127.177  0.00  0.00    +0.000 A 
ATOM      2  C   UNL     1      -8.462   1.845 127.809  0.00  0.00    +0.000 A 
ATOM      3  C   UNL     1      -8.834   2.251 129.080  0.00  0.00    +0.000 A 
ATOM      4  C   UNL     1      -8.051   3.184 129.777  0.00  0.00    +0.000 A 
ATOM      5  C   UNL     1      -6.959   3.784 129.141  0.00  0.00    +0.000 A 
ATOM      6  C   UNL     1      -6.674   3.488 127.826  0.00  0.00    +0.000 A 
ENDROOT
BRANCH   4   7
ATOM      7  C   UNL     1      -8.407   3.556 131.143  0.00  0.00    +0.000 A 
ATOM      8  C   UNL     1      -8.014   2.717 132.204  0.00  0.00    +0.000 A 
ATOM      9  C   UNL     1      -8.434   2.974 133.504  0.00  0.00    +0.000 A 
ATOM     10  C   UNL     1      -9.170   4.123 133.777  0.00  0.00    +0.000 A 
ATOM     11  C   UNL     1      -9.518   4.997 132.747  0.00  0.00    +0.000 A 
ATOM     12  C   UNL     1      -9.153   4.718 131.426  0.00  0.00    +0.000 A 
BRANCH  12  13
ATOM     13  C   UNL     1      -9.547   5.644 130.375  0.00  0.00    +0.000 A 
ATOM     14  N   UNL     1     -10.623   5.471 129.588  0.00  0.00    +0.000 NA
ATOM     15  N   UNL     1     -10.584   6.612 128.888  0.00  0.00    +0.000 N 
ATOM     16  N   UNL     1      -9.585   7.451 129.177  0.00  0.00    +0.000 NA
ATOM     17  N   UNL     1      -8.904   6.837 130.134  0.00  0.00    +0.000 NA
ATOM     18  H   UNL     1     -11.267   6.828 128.168  0.00  0.00    +0.000 HD
ENDBRANCH  12  13
ENDBRANCH   4   7
BRANCH   1  19
ATOM     19  C   UNL     1      -6.948   2.079 125.816  0.00  0.00    +0.000 C 
BRANCH  19  29
ATOM     20  C   UNL     1      -8.588   0.823 124.403  0.00  0.00    +0.000 C 
ATOM     21  N   UNL     1      -8.952  -0.347 123.972  0.00  0.00    +0.000 NA
ATOM     22  C   UNL     1      -8.100  -1.300 124.720  0.00  0.00    +0.000 C 
ATOM     23  C   UNL     1      -8.938  -2.181 125.654  0.00  0.00    +0.000 C 
ATOM     24  C   UNL     1      -8.763  -3.594 125.115  0.00  0.00    +0.000 C 
ATOM     25  C   UNL     1      -7.357  -3.583 124.539  0.00  0.00    +0.000 C 
ATOM     26  C   UNL     1      -7.324  -2.247 123.799  0.00  0.00    +0.000 C 
ATOM     27  C   UNL     1      -7.200  -0.425 125.553  0.00  0.00    +0.000 C 
ATOM     28  O   UNL     1      -6.386  -0.868 126.337  0.00  0.00    +0.000 OA
ATOM     29  N   UNL     1      -7.559   0.868 125.271  0.00  0.00    +0.000 N 
BRANCH  20  30
ATOM     30  C   UNL     1      -9.328   2.074 123.990  0.00  0.00    +0.000 C 
BRANCH  30  31
ATOM     31  C   UNL     1      -9.316   2.211 122.468  0.00  0.00    +0.000 C 
BRANCH  31  33
ATOM     32  C   UNL     1      -8.819   3.780 120.615  0.00  0.00    +0.000 C 
ATOM     33  C   UNL     1      -8.359   3.279 121.977  0.00  0.00    +0.000 C 
ENDBRANCH  31  33
ENDBRANCH  30  31
ENDBRANCH  20  30
ENDBRANCH  19  29
ENDBRANCH   1  19
TORSDOF 7
ENDMDL
MODEL 7
REMARK VINA RESULT:      -7.9      5.333      9.322
REMARK  Name = Irbesartan
REMARK  8 active torsions:
REMARK  status: ('A' for Active; 'I' for Inactive)
REMARK    1  A    between atoms: C_1  and  C_2
REMARK    2  A    between atoms: C_2  and  C_3
REMARK    3  A    between atoms: C_3  and  C_4
REMARK    4  A    between atoms: C_4  and  C_5
REMARK    5  A    between atoms: N_14  and  C_15
REMARK    6  A    between atoms: C_15  and  C_16
REMARK    7  A    between atoms: C_19  and  C_22
REMARK    8  A    between atoms: C_27  and  C_28
REMARK                            x       y       z     vdW  Elec       q    Type
REMARK                         _______ _______ _______ _____ _____    ______ ____
ROOT
ATOM      1  C   UNL     1      -6.488   3.233 127.611  0.00  0.00    +0.000 A 
ATOM      2  C   UNL     1      -5.521   2.465 126.953  0.00  0.00    +0.000 A 
ATOM      3  C   UNL     1      -5.272   2.700 125.611  0.00  0.00    +0.000 A 
ATOM      4  C   UNL     1      -6.082   3.591 124.892  0.00  0.00    +0.000 A 
ATOM      5  C   UNL     1      -7.069   4.324 125.561  0.00  0.00    +0.000 A 
ATOM      6  C   UNL     1      -7.221   4.198 126.924  0.00  0.00    +0.000 A 
ENDROOT
BRANCH   4   7
ATOM      7  C   UNL     1      -5.861   3.783 123.461  0.00  0.00    +0.000 A 
ATOM      8  C   UNL     1      -4.786   4.588 123.038  0.00  0.00    +0.000 A 
ATOM      9  C   UNL     1      -4.614   4.891 121.692  0.00  0.00    +0.000 A 
ATOM     10  C   UNL     1      -5.455   4.317 120.743  0.00  0.00    +0.000 A 
ATOM     11  C   UNL     1      -6.489   3.468 121.140  0.00  0.00    +0.000 A 
ATOM     12  C   UNL     1      -6.709   3.204 122.495  0.00  0.00    +0.000 A 
BRANCH  12  13
ATOM     13  C   UNL     1      -7.807   2.328 122.874  0.00  0.00    +0.000 A 
ATOM     14  N   UNL     1      -7.651   1.037 123.220  0.00  0.00    +0.000 NA
ATOM     15  N   UNL     1      -8.912   0.735 123.557  0.00  0.00    +0.000 N 
ATOM     16  N   UNL     1      -9.809   1.719 123.440  0.00  0.00    +0.000 NA
ATOM     17  N   UNL     1      -9.110   2.754 122.996  0.00  0.00    +0.000 NA
ATOM     18  H   UNL     1      -9.179  -0.193 123.871  0.00  0.00    +0.000 HD
ENDBRANCH  12  13
ENDBRANCH   4   7
BRANCH   1  19
ATOM     19  C   UNL     1      -6.795   3.014 129.049  0.00  0.00    +0.000 C 
BRANCH  19  29
ATOM     20  C   UNL     1      -6.765   5.129 130.387  0.00  0.00    +0.000 C 
ATOM     21  N   UNL     1      -7.487   6.078 130.903  0.00  0.00    +0.000 NA
ATOM     22  C   UNL     1      -8.886   5.643 130.680  0.00  0.00    +0.000 C 
ATOM     23  C   UNL     1      -9.599   5.362 132.008  0.00  0.00    +0.000 C 
ATOM     24  C   UNL     1     -10.713   6.398 132.078  0.00  0.00    +0.000 C 
ATOM     25  C   UNL     1     -11.089   6.612 130.621  0.00  0.00    +0.000 C 
ATOM     26  C   UNL     1      -9.721   6.695 129.945  0.00  0.00    +0.000 C 
ATOM     27  C   UNL     1      -8.760   4.354 129.912  0.00  0.00    +0.000 C 
ATOM     28  O   UNL     1      -9.716   3.680 129.587  0.00  0.00    +0.000 OA
ATOM     29  N   UNL     1      -7.415   4.132 129.758  0.00  0.00    +0.000 N 
BRANCH  20  30
ATOM     30  C   UNL     1      -5.262   5.120 130.539  0.00  0.00    +0.000 C 
BRANCH  30  31
ATOM     31  C   UNL     1      -4.615   5.906 129.399  0.00  0.00    +0.000 C 
BRANCH  31  33
ATOM     32  C   UNL     1      -2.236   6.154 128.749  0.00  0.00    +0.000 C 
ATOM     33  C   UNL     1      -3.419   5.197 128.794  0.00  0.00    +0.000 C 
ENDBRANCH  31  33
ENDBRANCH  30  31
ENDBRANCH  20  30
ENDBRANCH  19  29
ENDBRANCH   1  19
TORSDOF 7
ENDMDL
MODEL 8
REMARK VINA RESULT:      -7.9      5.181      8.245
REMARK  Name = Irbesartan
REMARK  8 active torsions:
REMARK  status: ('A' for Active; 'I' for Inactive)
REMARK    1  A    between atoms: C_1  and  C_2
REMARK    2  A    between atoms: C_2  and  C_3
REMARK    3  A    between atoms: C_3  and  C_4
REMARK    4  A    between atoms: C_4  and  C_5
REMARK    5  A    between atoms: N_14  and  C_15
REMARK    6  A    between atoms: C_15  and  C_16
REMARK    7  A    between atoms: C_19  and  C_22
REMARK    8  A    between atoms: C_27  and  C_28
REMARK                            x       y       z     vdW  Elec       q    Type
REMARK                         _______ _______ _______ _____ _____    ______ ____
ROOT
ATOM      1  C   UNL     1      -7.947   3.062 130.230  0.00  0.00    +0.000 A 
ATOM      2  C   UNL     1      -8.751   1.983 129.843  0.00  0.00    +0.000 A 
ATOM      3  C   UNL     1      -8.278   1.097 128.890  0.00  0.00    +0.000 A 
ATOM      4  C   UNL     1      -7.074   1.363 128.220  0.00  0.00    +0.000 A 
ATOM      5  C   UNL     1      -6.301   2.468 128.596  0.00  0.00    +0.000 A 
ATOM      6  C   UNL     1      -6.701   3.269 129.643  0.00  0.00    +0.000 A 
ENDROOT
BRANCH   4   7
ATOM      7  C   UNL     1      -6.613   0.464 127.166  0.00  0.00    +0.000 A 
ATOM      8  C   UNL     1      -6.032  -0.767 127.525  0.00  0.00    +0.000 A 
ATOM      9  C   UNL     1      -5.475  -1.597 126.558  0.00  0.00    +0.000 A 
ATOM     10  C   UNL     1      -5.576  -1.254 125.213  0.00  0.00    +0.000 A 
ATOM     11  C   UNL     1      -6.202  -0.065 124.835  0.00  0.00    +0.000 A 
ATOM     12  C   UNL     1      -6.713   0.806 125.802  0.00  0.00    +0.000 A 
BRANCH  12  13
ATOM     13  C   UNL     1      -7.344   2.044 125.372  0.00  0.00    +0.000 A 
ATOM     14  N   UNL     1      -6.672   3.092 124.863  0.00  0.00    +0.000 NA
ATOM     15  N   UNL     1      -7.697   3.896 124.553  0.00  0.00    +0.000 N 
ATOM     16  N   UNL     1      -8.920   3.433 124.832  0.00  0.00    +0.000 NA
ATOM     17  N   UNL     1      -8.707   2.238 125.365  0.00  0.00    +0.000 NA
ATOM     18  H   UNL     1      -7.558   4.813 124.140  0.00  0.00    +0.000 HD
ENDBRANCH  12  13
ENDBRANCH   4   7
BRANCH   1  19
ATOM     19  C   UNL     1      -8.415   4.042 131.245  0.00  0.00    +0.000 C 
BRANCH  19  29
ATOM     20  C   UNL     1      -8.376   6.505 130.801  0.00  0.00    +0.000 C 
ATOM     21  N   UNL     1      -8.985   7.497 130.223  0.00  0.00    +0.000 NA
ATOM     22  C   UNL     1     -10.258   6.918 129.733  0.00  0.00    +0.000 C 
ATOM     23  C   UNL     1     -11.462   7.537 130.451  0.00  0.00    +0.000 C 
ATOM     24  C   UNL     1     -12.232   8.266 129.358  0.00  0.00    +0.000 C 
ATOM     25  C   UNL     1     -11.969   7.426 128.119  0.00  0.00    +0.000 C 
ATOM     26  C   UNL     1     -10.473   7.145 128.234  0.00  0.00    +0.000 C 
ATOM     27  C   UNL     1     -10.170   5.459 130.098  0.00  0.00    +0.000 C 
ATOM     28  O   UNL     1     -11.068   4.668 129.888  0.00  0.00    +0.000 OA
ATOM     29  N   UNL     1      -8.964   5.295 130.730  0.00  0.00    +0.000 N 
BRANCH  20  30
ATOM     30  C   UNL     1      -7.091   6.716 131.567  0.00  0.00    +0.000 C 
BRANCH  30  31
ATOM     31  C   UNL     1      -6.022   7.304 130.647  0.00  0.00    +0.000 C 
BRANCH  31  33
ATOM     32  C   UNL     1      -3.560   7.371 130.920  0.00  0.00    +0.000 C 
ATOM     33  C   UNL     1      -4.752   6.477 130.609  0.00  0.00    +0.000 C 
ENDBRANCH  31  33
ENDBRANCH  30  31
ENDBRANCH  20  30
ENDBRANCH  19  29
ENDBRANCH   1  19
TORSDOF 7
ENDMDL
MODEL 9
REMARK VINA RESULT:      -7.9      2.397      7.466
REMARK  Name = Irbesartan
REMARK  8 active torsions:
REMARK  status: ('A' for Active; 'I' for Inactive)
REMARK    1  A    between atoms: C_1  and  C_2
REMARK    2  A    between atoms: C_2  and  C_3
REMARK    3  A    between atoms: C_3  and  C_4
REMARK    4  A    between atoms: C_4  and  C_5
REMARK    5  A    between atoms: N_14  and  C_15
REMARK    6  A    between atoms: C_15  and  C_16
REMARK    7  A    between atoms: C_19  and  C_22
REMARK    8  A    between atoms: C_27  and  C_28
REMARK                            x       y       z     vdW  Elec       q    Type
REMARK                         _______ _______ _______ _____ _____    ______ ____
ROOT
ATOM      1  C   UNL     1      -7.516  -1.532 129.521  0.00  0.00    +0.000 A 
ATOM      2  C   UNL     1      -6.588  -0.670 128.924  0.00  0.00    +0.000 A 
ATOM      3  C   UNL     1      -6.326  -0.796 127.570  0.00  0.00    +0.000 A 
ATOM      4  C   UNL     1      -6.872  -1.866 126.845  0.00  0.00    +0.000 A 
ATOM      5  C   UNL     1      -7.769  -2.739 127.470  0.00  0.00    +0.000 A 
ATOM      6  C   UNL     1      -8.143  -2.530 128.779  0.00  0.00    +0.000 A 
ENDROOT
BRANCH   4   7
ATOM      7  C   UNL     1      -6.536  -2.035 125.434  0.00  0.00    +0.000 A 
ATOM      8  C   UNL     1      -5.546  -2.969 125.075  0.00  0.00    +0.000 A 
ATOM      9  C   UNL     1      -5.115  -3.075 123.758  0.00  0.00    +0.000 A 
ATOM     10  C   UNL     1      -5.734  -2.319 122.766  0.00  0.00    +0.000 A 
ATOM     11  C   UNL     1      -6.759  -1.431 123.095  0.00  0.00    +0.000 A 
ATOM     12  C   UNL     1      -7.160  -1.272 124.425  0.00  0.00    +0.000 A 
BRANCH  12  13
ATOM     13  C   UNL     1      -8.220  -0.326 124.734  0.00  0.00    +0.000 A 
ATOM     14  N   UNL     1      -8.049   1.008 124.766  0.00  0.00    +0.000 NA
ATOM     15  N   UNL     1      -9.311   1.397 124.993  0.00  0.00    +0.000 N 
ATOM     16  N   UNL     1     -10.221   0.425 125.105  0.00  0.00    +0.000 NA
ATOM     17  N   UNL     1      -9.530  -0.695 124.943  0.00  0.00    +0.000 NA
ATOM     18  H   UNL     1      -9.565   2.376 125.087  0.00  0.00    +0.000 HD
ENDBRANCH  12  13
ENDBRANCH   4   7
BRANCH   1  19
ATOM     19  C   UNL     1      -7.826  -1.439 130.972  0.00  0.00    +0.000 C 
BRANCH  19  29
ATOM     20  C   UNL     1      -5.984  -2.161 132.504  0.00  0.00    +0.000 C 
ATOM     21  N   UNL     1      -4.959  -1.772 133.202  0.00  0.00    +0.000 NA
ATOM     22  C   UNL     1      -4.991  -0.293 133.116  0.00  0.00    +0.000 C 
ATOM     23  C   UNL     1      -5.255   0.338 134.488  0.00  0.00    +0.000 C 
ATOM     24  C   UNL     1      -3.989   1.122 134.805  0.00  0.00    +0.000 C 
ATOM     25  C   UNL     1      -3.496   1.566 133.437  0.00  0.00    +0.000 C 
ATOM     26  C   UNL     1      -3.674   0.297 132.605  0.00  0.00    +0.000 C 
ATOM     27  C   UNL     1      -6.157   0.005 132.210  0.00  0.00    +0.000 C 
ATOM     28  O   UNL     1      -6.517   1.133 131.943  0.00  0.00    +0.000 OA
ATOM     29  N   UNL     1      -6.690  -1.211 131.864  0.00  0.00    +0.000 N 
BRANCH  20  30
ATOM     30  C   UNL     1      -6.394  -3.615 132.461  0.00  0.00    +0.000 C 
BRANCH  30  31
ATOM     31  C   UNL     1      -5.300  -4.449 131.796  0.00  0.00    +0.000 C 
BRANCH  31  33
ATOM     32  C   UNL     1      -4.411  -3.674 129.616  0.00  0.00    +0.000 C 
ATOM     33  C   UNL     1      -5.460  -4.546 130.292  0.00  0.00    +0.000 C 
ENDBRANCH  31  33
ENDBRANCH  30  31
ENDBRANCH  20  30
ENDBRANCH  19  29
ENDBRANCH   1  19
TORSDOF 7
ENDMDL
