MODEL 1
REMARK VINA RESULT:      -9.6      0.000      0.000
REMARK  Name = Irinotecan
REMARK  8 active torsions:
REMARK  status: ('A' for Active; 'I' for Inactive)
REMARK    1  A    between atoms: C_1  and  C_2
REMARK    2  A    between atoms: C_2  and  C_3
REMARK    3  A    between atoms: C_15  and  O_16
REMARK    4  A    between atoms: C_15  and  C_17
REMARK    5  A    between atoms: C_17  and  C_18
REMARK    6  A    between atoms: C_26  and  O_27
REMARK    7  A    between atoms: O_27  and  C_28
REMARK    8  A    between atoms: C_33  and  N_36
REMARK                            x       y       z     vdW  Elec       q    Type
REMARK                         _______ _______ _______ _____ _____    ______ ____
ROOT
ATOM      1  C   UNL     1      -6.243  -1.511 128.913  0.00  0.00    +0.000 A 
ATOM      2  C   UNL     1      -6.353  -1.705 130.282  0.00  0.00    +0.000 A 
ATOM      3  C   UNL     1      -5.555  -1.094 131.383  0.00  0.00    +0.000 C 
ATOM      4  N   UNL     1      -6.154  -1.673 132.587  0.00  0.00    +0.000 N 
ATOM      5  C   UNL     1      -7.201  -2.537 132.302  0.00  0.00    +0.000 A 
ATOM      6  C   UNL     1      -7.856  -3.132 133.327  0.00  0.00    +0.000 A 
ATOM      7  C   UNL     1      -7.418  -2.921 134.757  0.00  0.00    +0.000 A 
ATOM      8  C   UNL     1      -6.410  -2.061 134.971  0.00  0.00    +0.000 A 
ATOM      9  C   UNL     1      -5.842  -1.725 136.298  0.00  0.00    +0.000 C 
ATOM     10  O   UNL     1      -6.399  -2.373 137.442  0.00  0.00    +0.000 OA
ATOM     11  C   UNL     1      -7.207  -3.453 137.377  0.00  0.00    +0.000 C 
ATOM     12  O   UNL     1      -7.512  -4.002 138.436  0.00  0.00    +0.000 OA
ATOM     13  C   UNL     1      -7.967  -3.678 136.001  0.00  0.00    +0.000 C 
ATOM     14  C   UNL     1      -5.720  -1.371 133.843  0.00  0.00    +0.000 A 
ATOM     15  O   UNL     1      -4.786  -0.595 134.071  0.00  0.00    +0.000 OA
ATOM     16  C   UNL     1      -7.327  -2.564 130.806  0.00  0.00    +0.000 A 
ATOM     17  N   UNL     1      -8.201  -3.261 130.047  0.00  0.00    +0.000 NA
ATOM     18  C   UNL     1      -8.096  -3.108 128.687  0.00  0.00    +0.000 A 
ATOM     19  C   UNL     1      -8.947  -3.749 127.767  0.00  0.00    +0.000 A 
ATOM     20  C   UNL     1      -8.868  -3.572 126.354  0.00  0.00    +0.000 A 
ATOM     21  C   UNL     1      -7.896  -2.739 125.828  0.00  0.00    +0.000 A 
ATOM     22  C   UNL     1      -7.028  -2.153 126.721  0.00  0.00    +0.000 A 
ATOM     23  C   UNL     1      -7.118  -2.267 128.110  0.00  0.00    +0.000 A 
ENDROOT
BRANCH   1  25
ATOM     24  C   UNL     1      -5.971   0.921 128.306  0.00  0.00    +0.000 C 
ATOM     25  C   UNL     1      -5.317  -0.468 128.302  0.00  0.00    +0.000 C 
ENDBRANCH   1  25
BRANCH  13  26
ATOM     26  O   UNL     1      -9.218  -3.063 136.353  0.00  0.00    +0.000 OA
ATOM     27  H   UNL     1      -9.799  -3.805 136.640  0.00  0.00    +0.000 HD
ENDBRANCH  13  26
BRANCH  13  28
ATOM     28  C   UNL     1      -8.059  -5.181 135.619  0.00  0.00    +0.000 C 
ATOM     29  C   UNL     1      -6.847  -6.099 135.598  0.00  0.00    +0.000 C 
ENDBRANCH  13  28
BRANCH  21  30
ATOM     30  O   UNL     1      -7.817  -2.461 124.438  0.00  0.00    +0.000 OA
BRANCH  30  31
ATOM     31  C   UNL     1      -8.703  -1.548 123.811  0.00  0.00    +0.000 C 
ATOM     32  O   UNL     1      -9.730  -1.806 123.204  0.00  0.00    +0.000 OA
ATOM     33  N   UNL     1      -8.377  -0.231 123.999  0.00  0.00    +0.000 N 
ATOM     34  C   UNL     1      -9.490   0.708 124.043  0.00  0.00    +0.000 C 
ATOM     35  C   UNL     1      -9.411   1.776 122.965  0.00  0.00    +0.000 C 
ATOM     36  C   UNL     1      -8.035   2.472 122.896  0.00  0.00    +0.000 C 
ATOM     37  C   UNL     1      -6.934   1.371 122.801  0.00  0.00    +0.000 C 
ATOM     38  C   UNL     1      -7.015   0.244 123.852  0.00  0.00    +0.000 C 
BRANCH  36  39
ATOM     39  N   UNL     1      -7.757   3.478 123.963  0.00  0.00    +0.000 NA
ATOM     40  C   UNL     1      -8.198   3.058 125.306  0.00  0.00    +0.000 C 
ATOM     41  C   UNL     1      -7.827   4.131 126.348  0.00  0.00    +0.000 C 
ATOM     42  C   UNL     1      -6.332   4.466 126.359  0.00  0.00    +0.000 C 
ATOM     43  C   UNL     1      -5.897   4.882 124.978  0.00  0.00    +0.000 C 
ATOM     44  C   UNL     1      -6.344   3.813 124.035  0.00  0.00    +0.000 C 
ENDBRANCH  36  39
ENDBRANCH  30  31
ENDBRANCH  21  30
TORSDOF 6
ENDMDL
MODEL 2
REMARK VINA RESULT:      -9.5      7.724     10.733
REMARK  Name = Irinotecan
REMARK  8 active torsions:
REMARK  status: ('A' for Active; 'I' for Inactive)
REMARK    1  A    between atoms: C_1  and  C_2
REMARK    2  A    between atoms: C_2  and  C_3
REMARK    3  A    between atoms: C_15  and  O_16
REMARK    4  A    between atoms: C_15  and  C_17
REMARK    5  A    between atoms: C_17  and  C_18
REMARK    6  A    between atoms: C_26  and  O_27
REMARK    7  A    between atoms: O_27  and  C_28
REMARK    8  A    between atoms: C_33  and  N_36
REMARK                            x       y       z     vdW  Elec       q    Type
REMARK                         _______ _______ _______ _____ _____    ______ ____
ROOT
ATOM      1  C   UNL     1      -3.525   4.789 131.833  0.00  0.00    +0.000 A 
ATOM      2  C   UNL     1      -3.302   5.910 132.619  0.00  0.00    +0.000 A 
ATOM      3  C   UNL     1      -3.553   6.097 134.076  0.00  0.00    +0.000 C 
ATOM      4  N   UNL     1      -3.101   7.469 134.317  0.00  0.00    +0.000 N 
ATOM      5  C   UNL     1      -2.617   8.082 133.170  0.00  0.00    +0.000 A 
ATOM      6  C   UNL     1      -2.150   9.350 133.253  0.00  0.00    +0.000 A 
ATOM      7  C   UNL     1      -2.215  10.120 134.551  0.00  0.00    +0.000 A 
ATOM      8  C   UNL     1      -2.678   9.468 135.629  0.00  0.00    +0.000 A 
ATOM      9  C   UNL     1      -2.816  10.052 136.985  0.00  0.00    +0.000 C 
ATOM     10  O   UNL     1      -2.442  11.418 137.160  0.00  0.00    +0.000 OA
ATOM     11  C   UNL     1      -2.230  12.278 136.142  0.00  0.00    +0.000 C 
ATOM     12  O   UNL     1      -2.045  13.463 136.423  0.00  0.00    +0.000 OA
ATOM     13  C   UNL     1      -1.881  11.628 134.736  0.00  0.00    +0.000 C 
ATOM     14  C   UNL     1      -3.148   8.055 135.546  0.00  0.00    +0.000 A 
ATOM     15  O   UNL     1      -3.581   7.487 136.554  0.00  0.00    +0.000 OA
ATOM     16  C   UNL     1      -2.753   7.074 132.066  0.00  0.00    +0.000 A 
ATOM     17  N   UNL     1      -2.419   7.201 130.763  0.00  0.00    +0.000 NA
ATOM     18  C   UNL     1      -2.656   6.115 129.957  0.00  0.00    +0.000 A 
ATOM     19  C   UNL     1      -2.343   6.087 128.584  0.00  0.00    +0.000 A 
ATOM     20  C   UNL     1      -2.554   4.954 127.744  0.00  0.00    +0.000 A 
ATOM     21  C   UNL     1      -3.113   3.807 128.280  0.00  0.00    +0.000 A 
ATOM     22  C   UNL     1      -3.470   3.849 129.609  0.00  0.00    +0.000 A 
ATOM     23  C   UNL     1      -3.224   4.926 130.464  0.00  0.00    +0.000 A 
ENDROOT
BRANCH   1  25
ATOM     24  C   UNL     1      -2.788   2.735 133.096  0.00  0.00    +0.000 C 
ATOM     25  C   UNL     1      -3.962   3.450 132.413  0.00  0.00    +0.000 C 
ENDBRANCH   1  25
BRANCH  13  26
ATOM     26  O   UNL     1      -0.449  11.739 134.808  0.00  0.00    +0.000 OA
ATOM     27  H   UNL     1      -0.270  12.701 134.915  0.00  0.00    +0.000 HD
ENDBRANCH  13  26
BRANCH  13  28
ATOM     28  C   UNL     1      -2.540  12.391 133.554  0.00  0.00    +0.000 C 
ATOM     29  C   UNL     1      -1.852  13.540 132.833  0.00  0.00    +0.000 C 
ENDBRANCH  13  28
BRANCH  21  30
ATOM     30  O   UNL     1      -3.274   2.622 127.514  0.00  0.00    +0.000 OA
BRANCH  30  31
ATOM     31  C   UNL     1      -4.372   2.448 126.634  0.00  0.00    +0.000 C 
ATOM     32  O   UNL     1      -4.650   3.114 125.650  0.00  0.00    +0.000 OA
ATOM     33  N   UNL     1      -5.140   1.346 126.906  0.00  0.00    +0.000 N 
ATOM     34  C   UNL     1      -5.774   0.705 125.761  0.00  0.00    +0.000 C 
ATOM     35  C   UNL     1      -7.290   0.670 125.864  0.00  0.00    +0.000 C 
ATOM     36  C   UNL     1      -7.798   0.131 127.217  0.00  0.00    +0.000 C 
ATOM     37  C   UNL     1      -7.089   0.925 128.358  0.00  0.00    +0.000 C 
ATOM     38  C   UNL     1      -5.552   1.021 128.257  0.00  0.00    +0.000 C 
BRANCH  36  39
ATOM     39  N   UNL     1      -7.715  -1.348 127.404  0.00  0.00    +0.000 NA
ATOM     40  C   UNL     1      -7.934  -1.785 128.795  0.00  0.00    +0.000 C 
ATOM     41  C   UNL     1      -7.880  -3.322 128.886  0.00  0.00    +0.000 C 
ATOM     42  C   UNL     1      -8.874  -4.014 127.948  0.00  0.00    +0.000 C 
ATOM     43  C   UNL     1      -8.644  -3.548 126.534  0.00  0.00    +0.000 C 
ATOM     44  C   UNL     1      -8.660  -2.054 126.555  0.00  0.00    +0.000 C 
ENDBRANCH  36  39
ENDBRANCH  30  31
ENDBRANCH  21  30
TORSDOF 6
ENDMDL
MODEL 3
REMARK VINA RESULT:      -9.4      6.258     11.085
REMARK  Name = Irinotecan
REMARK  8 active torsions:
REMARK  status: ('A' for Active; 'I' for Inactive)
REMARK    1  A    between atoms: C_1  and  C_2
REMARK    2  A    between atoms: C_2  and  C_3
REMARK    3  A    between atoms: C_15  and  O_16
REMARK    4  A    between atoms: C_15  and  C_17
REMARK    5  A    between atoms: C_17  and  C_18
REMARK    6  A    between atoms: C_26  and  O_27
REMARK    7  A    between atoms: O_27  and  C_28
REMARK    8  A    between atoms: C_33  and  N_36
REMARK                            x       y       z     vdW  Elec       q    Type
REMARK                         _______ _______ _______ _____ _____    ______ ____
ROOT
ATOM      1  C   UNL     1      -4.425   2.295 129.761  0.00  0.00    +0.000 A 
ATOM      2  C   UNL     1      -5.216   1.454 128.993  0.00  0.00    +0.000 A 
ATOM      3  C   UNL     1      -5.858   0.164 129.375  0.00  0.00    +0.000 C 
ATOM      4  N   UNL     1      -6.567  -0.227 128.154  0.00  0.00    +0.000 N 
ATOM      5  C   UNL     1      -6.408   0.690 127.126  0.00  0.00    +0.000 A 
ATOM      6  C   UNL     1      -7.024   0.460 125.942  0.00  0.00    +0.000 A 
ATOM      7  C   UNL     1      -7.816  -0.805 125.711  0.00  0.00    +0.000 A 
ATOM      8  C   UNL     1      -7.949  -1.646 126.749  0.00  0.00    +0.000 A 
ATOM      9  C   UNL     1      -8.686  -2.932 126.718  0.00  0.00    +0.000 C 
ATOM     10  O   UNL     1      -9.293  -3.318 125.485  0.00  0.00    +0.000 OA
ATOM     11  C   UNL     1      -9.022  -2.738 124.296  0.00  0.00    +0.000 C 
ATOM     12  O   UNL     1      -9.509  -3.249 123.287  0.00  0.00    +0.000 OA
ATOM     13  C   UNL     1      -8.418  -1.270 124.354  0.00  0.00    +0.000 C 
ATOM     14  C   UNL     1      -7.307  -1.367 128.067  0.00  0.00    +0.000 A 
ATOM     15  O   UNL     1      -7.437  -2.168 128.999  0.00  0.00    +0.000 OA
ATOM     16  C   UNL     1      -5.526   1.778 127.666  0.00  0.00    +0.000 A 
ATOM     17  N   UNL     1      -5.084   2.892 127.042  0.00  0.00    +0.000 NA
ATOM     18  C   UNL     1      -4.275   3.728 127.772  0.00  0.00    +0.000 A 
ATOM     19  C   UNL     1      -3.754   4.936 127.268  0.00  0.00    +0.000 A 
ATOM     20  C   UNL     1      -2.940   5.827 128.028  0.00  0.00    +0.000 A 
ATOM     21  C   UNL     1      -2.615   5.504 129.333  0.00  0.00    +0.000 A 
ATOM     22  C   UNL     1      -3.078   4.299 129.811  0.00  0.00    +0.000 A 
ATOM     23  C   UNL     1      -3.920   3.435 129.107  0.00  0.00    +0.000 A 
ENDROOT
BRANCH   1  25
ATOM     24  C   UNL     1      -5.383   2.589 132.074  0.00  0.00    +0.000 C 
ATOM     25  C   UNL     1      -4.194   2.075 131.251  0.00  0.00    +0.000 C 
ENDBRANCH   1  25
BRANCH  13  26
ATOM     26  O   UNL     1      -9.640  -0.537 124.159  0.00  0.00    +0.000 OA
ATOM     27  H   UNL     1      -9.793  -0.544 123.186  0.00  0.00    +0.000 HD
ENDBRANCH  13  26
BRANCH  13  28
ATOM     28  C   UNL     1      -7.333  -1.038 123.268  0.00  0.00    +0.000 C 
ATOM     29  C   UNL     1      -6.232  -2.046 122.977  0.00  0.00    +0.000 C 
ENDBRANCH  13  28
BRANCH  21  30
ATOM     30  O   UNL     1      -1.876   6.388 130.163  0.00  0.00    +0.000 OA
BRANCH  30  31
ATOM     31  C   UNL     1      -2.490   7.098 131.227  0.00  0.00    +0.000 C 
ATOM     32  O   UNL     1      -3.553   7.697 131.205  0.00  0.00    +0.000 OA
ATOM     33  N   UNL     1      -1.822   7.010 132.419  0.00  0.00    +0.000 N 
ATOM     34  C   UNL     1      -2.644   7.056 133.622  0.00  0.00    +0.000 C 
ATOM     35  C   UNL     1      -2.290   8.215 134.540  0.00  0.00    +0.000 C 
ATOM     36  C   UNL     1      -0.779   8.319 134.835  0.00  0.00    +0.000 C 
ATOM     37  C   UNL     1      -0.012   8.311 133.476  0.00  0.00    +0.000 C 
ATOM     38  C   UNL     1      -0.384   7.175 132.500  0.00  0.00    +0.000 C 
BRANCH  36  39
ATOM     39  N   UNL     1      -0.233   7.331 135.812  0.00  0.00    +0.000 NA
ATOM     40  C   UNL     1       1.232   7.389 135.962  0.00  0.00    +0.000 C 
ATOM     41  C   UNL     1       1.700   6.374 137.022  0.00  0.00    +0.000 C 
ATOM     42  C   UNL     1       1.018   6.565 138.380  0.00  0.00    +0.000 C 
ATOM     43  C   UNL     1      -0.477   6.514 138.207  0.00  0.00    +0.000 C 
ATOM     44  C   UNL     1      -0.829   7.486 137.129  0.00  0.00    +0.000 C 
ENDBRANCH  36  39
ENDBRANCH  30  31
ENDBRANCH  21  30
TORSDOF 6
ENDMDL
MODEL 4
REMARK VINA RESULT:      -9.2      6.753      9.606
REMARK  Name = Irinotecan
REMARK  8 active torsions:
REMARK  status: ('A' for Active; 'I' for Inactive)
REMARK    1  A    between atoms: C_1  and  C_2
REMARK    2  A    between atoms: C_2  and  C_3
REMARK    3  A    between atoms: C_15  and  O_16
REMARK    4  A    between atoms: C_15  and  C_17
REMARK    5  A    between atoms: C_17  and  C_18
REMARK    6  A    between atoms: C_26  and  O_27
REMARK    7  A    between atoms: O_27  and  C_28
REMARK    8  A    between atoms: C_33  and  N_36
REMARK                            x       y       z     vdW  Elec       q    Type
REMARK                         _______ _______ _______ _____ _____    ______ ____
ROOT
ATOM      1  C   UNL     1      -4.678   4.198 130.683  0.00  0.00    +0.000 A 
ATOM      2  C   UNL     1      -4.153   5.126 131.569  0.00  0.00    +0.000 A 
ATOM      3  C   UNL     1      -4.570   5.426 132.969  0.00  0.00    +0.000 C 
ATOM      4  N   UNL     1      -3.633   6.475 133.376  0.00  0.00    +0.000 N 
ATOM      5  C   UNL     1      -2.729   6.803 132.376  0.00  0.00    +0.000 A 
ATOM      6  C   UNL     1      -1.793   7.750 132.624  0.00  0.00    +0.000 A 
ATOM      7  C   UNL     1      -1.768   8.493 133.939  0.00  0.00    +0.000 A 
ATOM      8  C   UNL     1      -2.656   8.119 134.873  0.00  0.00    +0.000 A 
ATOM      9  C   UNL     1      -2.786   8.727 136.219  0.00  0.00    +0.000 C 
ATOM     10  O   UNL     1      -1.908   9.803 136.548  0.00  0.00    +0.000 OA
ATOM     11  C   UNL     1      -1.165  10.474 135.643  0.00  0.00    +0.000 C 
ATOM     12  O   UNL     1      -0.551  11.469 136.031  0.00  0.00    +0.000 OA
ATOM     13  C   UNL     1      -0.867   9.715 134.280  0.00  0.00    +0.000 C 
ATOM     14  C   UNL     1      -3.656   7.043 134.614  0.00  0.00    +0.000 A 
ATOM     15  O   UNL     1      -4.470   6.731 135.490  0.00  0.00    +0.000 OA
ATOM     16  C   UNL     1      -3.070   5.934 131.201  0.00  0.00    +0.000 A 
ATOM     17  N   UNL     1      -2.476   5.886 129.988  0.00  0.00    +0.000 NA
ATOM     18  C   UNL     1      -2.995   4.994 129.082  0.00  0.00    +0.000 A 
ATOM     19  C   UNL     1      -2.472   4.813 127.787  0.00  0.00    +0.000 A 
ATOM     20  C   UNL     1      -2.982   3.867 126.849  0.00  0.00    +0.000 A 
ATOM     21  C   UNL     1      -4.064   3.079 127.200  0.00  0.00    +0.000 A 
ATOM     22  C   UNL     1      -4.611   3.291 128.446  0.00  0.00    +0.000 A 
ATOM     23  C   UNL     1      -4.098   4.171 129.401  0.00  0.00    +0.000 A 
ENDROOT
BRANCH   1  25
ATOM     24  C   UNL     1      -7.148   3.795 130.993  0.00  0.00    +0.000 C 
ATOM     25  C   UNL     1      -5.742   3.185 131.087  0.00  0.00    +0.000 C 
ENDBRANCH   1  25
BRANCH  13  26
ATOM     26  O   UNL     1       0.435   9.202 134.609  0.00  0.00    +0.000 OA
ATOM     27  H   UNL     1       0.963   9.286 133.782  0.00  0.00    +0.000 HD
ENDBRANCH  13  26
BRANCH  13  28
ATOM     28  C   UNL     1      -0.906  10.669 133.054  0.00  0.00    +0.000 C 
ATOM     29  C   UNL     1      -2.090  11.576 132.756  0.00  0.00    +0.000 C 
ENDBRANCH  13  28
BRANCH  21  30
ATOM     30  O   UNL     1      -4.565   2.066 126.341  0.00  0.00    +0.000 OA
BRANCH  30  31
ATOM     31  C   UNL     1      -5.596   2.329 125.403  0.00  0.00    +0.000 C 
ATOM     32  O   UNL     1      -5.685   3.279 124.642  0.00  0.00    +0.000 OA
ATOM     33  N   UNL     1      -6.538   1.338 125.313  0.00  0.00    +0.000 N 
ATOM     34  C   UNL     1      -7.157   1.155 124.005  0.00  0.00    +0.000 C 
ATOM     35  C   UNL     1      -8.664   1.346 124.029  0.00  0.00    +0.000 C 
ATOM     36  C   UNL     1      -9.363   0.543 125.147  0.00  0.00    +0.000 C 
ATOM     37  C   UNL     1      -8.647   0.859 126.497  0.00  0.00    +0.000 C 
ATOM     38  C   UNL     1      -7.110   0.723 126.493  0.00  0.00    +0.000 C 
BRANCH  36  39
ATOM     39  N   UNL     1      -9.515  -0.921 124.902  0.00  0.00    +0.000 NA
ATOM     40  C   UNL     1      -8.996  -1.364 123.596  0.00  0.00    +0.000 C 
ATOM     41  C   UNL     1      -9.149  -2.890 123.450  0.00  0.00    +0.000 C 
ATOM     42  C   UNL     1      -8.477  -3.672 124.583  0.00  0.00    +0.000 C 
ATOM     43  C   UNL     1      -9.011  -3.200 125.910  0.00  0.00    +0.000 C 
ATOM     44  C   UNL     1      -8.871  -1.713 125.937  0.00  0.00    +0.000 C 
ENDBRANCH  36  39
ENDBRANCH  30  31
ENDBRANCH  21  30
TORSDOF 6
ENDMDL
MODEL 5
REMARK VINA RESULT:      -9.2      6.195     10.820
REMARK  Name = Irinotecan
REMARK  8 active torsions:
REMARK  status: ('A' for Active; 'I' for Inactive)
REMARK    1  A    between atoms: C_1  and  C_2
REMARK    2  A    between atoms: C_2  and  C_3
REMARK    3  A    between atoms: C_15  and  O_16
REMARK    4  A    between atoms: C_15  and  C_17
REMARK    5  A    between atoms: C_17  and  C_18
REMARK    6  A    between atoms: C_26  and  O_27
REMARK    7  A    between atoms: O_27  and  C_28
REMARK    8  A    between atoms: C_33  and  N_36
REMARK                            x       y       z     vdW  Elec       q    Type
REMARK                         _______ _______ _______ _____ _____    ______ ____
ROOT
ATOM      1  C   UNL     1      -5.025   3.581 128.731  0.00  0.00    +0.000 A 
ATOM      2  C   UNL     1      -5.564   2.677 127.828  0.00  0.00    +0.000 A 
ATOM      3  C   UNL     1      -5.850   2.860 126.376  0.00  0.00    +0.000 C 
ATOM      4  N   UNL     1      -6.386   1.556 125.978  0.00  0.00    +0.000 N 
ATOM      5  C   UNL     1      -6.432   0.652 127.029  0.00  0.00    +0.000 A 
ATOM      6  C   UNL     1      -6.893  -0.599 126.796  0.00  0.00    +0.000 A 
ATOM      7  C   UNL     1      -7.416  -0.995 125.435  0.00  0.00    +0.000 A 
ATOM      8  C   UNL     1      -7.328  -0.083 124.454  0.00  0.00    +0.000 A 
ATOM      9  C   UNL     1      -7.785  -0.285 123.058  0.00  0.00    +0.000 C 
ATOM     10  O   UNL     1      -8.378  -1.541 122.729  0.00  0.00    +0.000 OA
ATOM     11  C   UNL     1      -8.791  -2.443 123.645  0.00  0.00    +0.000 C 
ATOM     12  O   UNL     1      -9.409  -3.428 123.239  0.00  0.00    +0.000 OA
ATOM     13  C   UNL     1      -8.130  -2.332 125.085  0.00  0.00    +0.000 C 
ATOM     14  C   UNL     1      -6.777   1.281 124.702  0.00  0.00    +0.000 A 
ATOM     15  O   UNL     1      -6.722   2.103 123.781  0.00  0.00    +0.000 OA
ATOM     16  C   UNL     1      -5.906   1.380 128.232  0.00  0.00    +0.000 A 
ATOM     17  N   UNL     1      -5.757   0.923 129.495  0.00  0.00    +0.000 NA
ATOM     18  C   UNL     1      -5.252   1.807 130.415  0.00  0.00    +0.000 A 
ATOM     19  C   UNL     1      -5.020   1.473 131.764  0.00  0.00    +0.000 A 
ATOM     20  C   UNL     1      -4.466   2.374 132.721  0.00  0.00    +0.000 A 
ATOM     21  C   UNL     1      -4.142   3.662 132.333  0.00  0.00    +0.000 A 
ATOM     22  C   UNL     1      -4.418   4.008 131.029  0.00  0.00    +0.000 A 
ATOM     23  C   UNL     1      -4.909   3.131 130.060  0.00  0.00    +0.000 A 
ENDROOT
BRANCH   1  25
ATOM     24  C   UNL     1      -3.046   4.825 127.787  0.00  0.00    +0.000 C 
ATOM     25  C   UNL     1      -4.485   4.941 128.310  0.00  0.00    +0.000 C 
ENDBRANCH   1  25
BRANCH  13  26
ATOM     26  O   UNL     1      -7.107  -3.329 124.919  0.00  0.00    +0.000 OA
ATOM     27  H   UNL     1      -7.589  -4.161 124.706  0.00  0.00    +0.000 HD
ENDBRANCH  13  26
BRANCH  13  28
ATOM     28  C   UNL     1      -9.148  -2.619 126.223  0.00  0.00    +0.000 C 
ATOM     29  C   UNL     1      -8.934  -3.711 127.260  0.00  0.00    +0.000 C 
ENDBRANCH  13  28
BRANCH  21  30
ATOM     30  O   UNL     1      -3.515   4.577 133.218  0.00  0.00    +0.000 OA
BRANCH  30  31
ATOM     31  C   UNL     1      -2.203   5.064 132.980  0.00  0.00    +0.000 C 
ATOM     32  O   UNL     1      -1.216   4.418 132.669  0.00  0.00    +0.000 OA
ATOM     33  N   UNL     1      -2.093   6.428 133.034  0.00  0.00    +0.000 N 
ATOM     34  C   UNL     1      -1.088   7.028 132.165  0.00  0.00    +0.000 C 
ATOM     35  C   UNL     1      -0.034   7.813 132.928  0.00  0.00    +0.000 C 
ATOM     36  C   UNL     1      -0.632   8.812 133.941  0.00  0.00    +0.000 C 
ATOM     37  C   UNL     1      -1.650   8.046 134.842  0.00  0.00    +0.000 C 
ATOM     38  C   UNL     1      -2.704   7.199 134.099  0.00  0.00    +0.000 C 
BRANCH  36  39
ATOM     39  N   UNL     1      -1.201  10.066 133.364  0.00  0.00    +0.000 NA
ATOM     40  C   UNL     1      -2.168  10.742 134.247  0.00  0.00    +0.000 C 
ATOM     41  C   UNL     1      -2.663  12.047 133.595  0.00  0.00    +0.000 C 
ATOM     42  C   UNL     1      -1.525  13.002 133.222  0.00  0.00    +0.000 C 
ATOM     43  C   UNL     1      -0.542  12.292 132.329  0.00  0.00    +0.000 C 
ATOM     44  C   UNL     1      -0.161  11.021 133.016  0.00  0.00    +0.000 C 
ENDBRANCH  36  39
ENDBRANCH  30  31
ENDBRANCH  21  30
TORSDOF 6
ENDMDL
MODEL 6
REMARK VINA RESULT:      -9.0      7.322     12.027
REMARK  Name = Irinotecan
REMARK  8 active torsions:
REMARK  status: ('A' for Active; 'I' for Inactive)
REMARK    1  A    between atoms: C_1  and  C_2
REMARK    2  A    between atoms: C_2  and  C_3
REMARK    3  A    between atoms: C_15  and  O_16
REMARK    4  A    between atoms: C_15  and  C_17
REMARK    5  A    between atoms: C_17  and  C_18
REMARK    6  A    between atoms: C_26  and  O_27
REMARK    7  A    between atoms: O_27  and  C_28
REMARK    8  A    between atoms: C_33  and  N_36
REMARK                            x       y       z     vdW  Elec       q    Type
REMARK                         _______ _______ _______ _____ _____    ______ ____
ROOT
ATOM      1  C   UNL     1      -3.437   5.195 129.221  0.00  0.00    +0.000 A 
ATOM      2  C   UNL     1      -4.112   4.476 128.246  0.00  0.00    +0.000 A 
ATOM      3  C   UNL     1      -4.457   4.881 126.853  0.00  0.00    +0.000 C 
ATOM      4  N   UNL     1      -5.142   3.699 126.325  0.00  0.00    +0.000 N 
ATOM      5  C   UNL     1      -5.222   2.669 127.250  0.00  0.00    +0.000 A 
ATOM      6  C   UNL     1      -5.819   1.508 126.888  0.00  0.00    +0.000 A 
ATOM      7  C   UNL     1      -6.452   1.352 125.526  0.00  0.00    +0.000 A 
ATOM      8  C   UNL     1      -6.327   2.377 124.668  0.00  0.00    +0.000 A 
ATOM      9  C   UNL     1      -6.877   2.411 123.292  0.00  0.00    +0.000 C 
ATOM     10  O   UNL     1      -7.611   1.271 122.843  0.00  0.00    +0.000 OA
ATOM     11  C   UNL     1      -8.062   0.295 123.659  0.00  0.00    +0.000 C 
ATOM     12  O   UNL     1      -8.797  -0.564 123.171  0.00  0.00    +0.000 OA
ATOM     13  C   UNL     1      -7.316   0.147 125.053  0.00  0.00    +0.000 C 
ATOM     14  C   UNL     1      -5.628   3.637 125.054  0.00  0.00    +0.000 A 
ATOM     15  O   UNL     1      -5.541   4.568 124.246  0.00  0.00    +0.000 OA
ATOM     16  C   UNL     1      -4.561   3.174 128.500  0.00  0.00    +0.000 A 
ATOM     17  N   UNL     1      -4.391   2.537 129.679  0.00  0.00    +0.000 NA
ATOM     18  C   UNL     1      -3.749   3.238 130.671  0.00  0.00    +0.000 A 
ATOM     19  C   UNL     1      -3.479   2.703 131.946  0.00  0.00    +0.000 A 
ATOM     20  C   UNL     1      -2.785   3.410 132.972  0.00  0.00    +0.000 A 
ATOM     21  C   UNL     1      -2.356   4.703 132.735  0.00  0.00    +0.000 A 
ATOM     22  C   UNL     1      -2.665   5.248 131.509  0.00  0.00    +0.000 A 
ATOM     23  C   UNL     1      -3.295   4.560 130.469  0.00  0.00    +0.000 A 
ENDROOT
BRANCH   1  25
ATOM     24  C   UNL     1      -3.763   7.695 129.223  0.00  0.00    +0.000 C 
ATOM     25  C   UNL     1      -2.785   6.544 128.945  0.00  0.00    +0.000 C 
ENDBRANCH   1  25
BRANCH  13  26
ATOM     26  O   UNL     1      -6.409  -0.908 124.691  0.00  0.00    +0.000 OA
ATOM     27  H   UNL     1      -6.086  -0.673 123.790  0.00  0.00    +0.000 HD
ENDBRANCH  13  26
BRANCH  13  28
ATOM     28  C   UNL     1      -8.294  -0.197 126.210  0.00  0.00    +0.000 C 
ATOM     29  C   UNL     1      -8.637  -1.626 126.598  0.00  0.00    +0.000 C 
ENDBRANCH  13  28
BRANCH  21  30
ATOM     30  O   UNL     1      -1.591   5.427 133.687  0.00  0.00    +0.000 OA
BRANCH  30  31
ATOM     31  C   UNL     1      -2.165   6.462 134.470  0.00  0.00    +0.000 C 
ATOM     32  O   UNL     1      -3.070   6.366 135.282  0.00  0.00    +0.000 OA
ATOM     33  N   UNL     1      -1.549   7.678 134.329  0.00  0.00    +0.000 N 
ATOM     34  C   UNL     1      -1.555   8.543 135.503  0.00  0.00    +0.000 C 
ATOM     35  C   UNL     1      -2.245   9.874 135.257  0.00  0.00    +0.000 C 
ATOM     36  C   UNL     1      -1.753  10.590 133.981  0.00  0.00    +0.000 C 
ATOM     37  C   UNL     1      -1.840   9.584 132.791  0.00  0.00    +0.000 C 
ATOM     38  C   UNL     1      -1.192   8.204 133.026  0.00  0.00    +0.000 C 
BRANCH  36  39
ATOM     39  N   UNL     1      -0.421  11.256 134.078  0.00  0.00    +0.000 NA
ATOM     40  C   UNL     1       0.142  11.654 132.775  0.00  0.00    +0.000 C 
ATOM     41  C   UNL     1       1.488  12.376 132.973  0.00  0.00    +0.000 C 
ATOM     42  C   UNL     1       1.388  13.589 133.903  0.00  0.00    +0.000 C 
ATOM     43  C   UNL     1       0.802  13.167 135.224  0.00  0.00    +0.000 C 
ATOM     44  C   UNL     1      -0.465  12.433 134.930  0.00  0.00    +0.000 C 
ENDBRANCH  36  39
ENDBRANCH  30  31
ENDBRANCH  21  30
TORSDOF 6
ENDMDL
MODEL 7
REMARK VINA RESULT:      -9.0      6.790     10.765
REMARK  Name = Irinotecan
REMARK  8 active torsions:
REMARK  status: ('A' for Active; 'I' for Inactive)
REMARK    1  A    between atoms: C_1  and  C_2
REMARK    2  A    between atoms: C_2  and  C_3
REMARK    3  A    between atoms: C_15  and  O_16
REMARK    4  A    between atoms: C_15  and  C_17
REMARK    5  A    between atoms: C_17  and  C_18
REMARK    6  A    between atoms: C_26  and  O_27
REMARK    7  A    between atoms: O_27  and  C_28
REMARK    8  A    between atoms: C_33  and  N_36
REMARK                            x       y       z     vdW  Elec       q    Type
REMARK                         _______ _______ _______ _____ _____    ______ ____
ROOT
ATOM      1  C   UNL     1      -4.398   1.037 131.859  0.00  0.00    +0.000 A 
ATOM      2  C   UNL     1      -5.196   0.390 130.927  0.00  0.00    +0.000 A 
ATOM      3  C   UNL     1      -5.831  -0.956 131.012  0.00  0.00    +0.000 C 
ATOM      4  N   UNL     1      -6.553  -1.062 129.741  0.00  0.00    +0.000 N 
ATOM      5  C   UNL     1      -6.408   0.067 128.948  0.00  0.00    +0.000 A 
ATOM      6  C   UNL     1      -7.036   0.109 127.750  0.00  0.00    +0.000 A 
ATOM      7  C   UNL     1      -7.828  -1.074 127.244  0.00  0.00    +0.000 A 
ATOM      8  C   UNL     1      -7.947  -2.129 128.064  0.00  0.00    +0.000 A 
ATOM      9  C   UNL     1      -8.681  -3.378 127.748  0.00  0.00    +0.000 C 
ATOM     10  O   UNL     1      -9.302  -3.476 126.466  0.00  0.00    +0.000 OA
ATOM     11  C   UNL     1      -9.045  -2.639 125.439  0.00  0.00    +0.000 C 
ATOM     12  O   UNL     1      -9.542  -2.908 124.344  0.00  0.00    +0.000 OA
ATOM     13  C   UNL     1      -8.444  -1.220 125.823  0.00  0.00    +0.000 C 
ATOM     14  C   UNL     1      -7.291  -2.156 129.404  0.00  0.00    +0.000 A 
ATOM     15  O   UNL     1      -7.408  -3.149 130.131  0.00  0.00    +0.000 OA
ATOM     16  C   UNL     1      -5.522   1.006 129.713  0.00  0.00    +0.000 A 
ATOM     17  N   UNL     1      -5.089   2.235 129.355  0.00  0.00    +0.000 NA
ATOM     18  C   UNL     1      -4.275   2.887 130.247  0.00  0.00    +0.000 A 
ATOM     19  C   UNL     1      -3.762   4.180 130.027  0.00  0.00    +0.000 A 
ATOM     20  C   UNL     1      -2.941   4.879 130.961  0.00  0.00    +0.000 A 
ATOM     21  C   UNL     1      -2.601   4.268 132.155  0.00  0.00    +0.000 A 
ATOM     22  C   UNL     1      -3.056   2.984 132.350  0.00  0.00    +0.000 A 
ATOM     23  C   UNL     1      -3.903   2.299 131.477  0.00  0.00    +0.000 A 
ENDROOT
BRANCH   1  25
ATOM     24  C   UNL     1      -3.024  -0.558 133.245  0.00  0.00    +0.000 C 
ATOM     25  C   UNL     1      -4.150   0.484 133.256  0.00  0.00    +0.000 C 
ENDBRANCH   1  25
BRANCH  13  26
ATOM     26  O   UNL     1      -9.670  -0.468 125.813  0.00  0.00    +0.000 OA
ATOM     27  H   UNL     1     -10.164  -0.769 126.611  0.00  0.00    +0.000 HD
ENDBRANCH  13  26
BRANCH  13  28
ATOM     28  C   UNL     1      -7.372  -0.740 124.807  0.00  0.00    +0.000 C 
ATOM     29  C   UNL     1      -6.182  -1.597 124.403  0.00  0.00    +0.000 C 
ENDBRANCH  13  28
BRANCH  21  30
ATOM     30  O   UNL     1      -1.855   4.943 133.157  0.00  0.00    +0.000 OA
BRANCH  30  31
ATOM     31  C   UNL     1      -2.465   5.866 134.044  0.00  0.00    +0.000 C 
ATOM     32  O   UNL     1      -3.360   5.649 134.844  0.00  0.00    +0.000 OA
ATOM     33  N   UNL     1      -1.901   7.115 134.028  0.00  0.00    +0.000 N 
ATOM     34  C   UNL     1      -1.935   7.852 135.286  0.00  0.00    +0.000 C 
ATOM     35  C   UNL     1      -2.681   9.172 135.181  0.00  0.00    +0.000 C 
ATOM     36  C   UNL     1      -2.228  10.036 133.985  0.00  0.00    +0.000 C 
ATOM     37  C   UNL     1      -2.282   9.156 132.697  0.00  0.00    +0.000 C 
ATOM     38  C   UNL     1      -1.576   7.787 132.786  0.00  0.00    +0.000 C 
BRANCH  36  39
ATOM     39  N   UNL     1      -0.924  10.744 134.147  0.00  0.00    +0.000 NA
ATOM     40  C   UNL     1      -0.382  11.287 132.888  0.00  0.00    +0.000 C 
ATOM     41  C   UNL     1       0.935  12.042 133.156  0.00  0.00    +0.000 C 
ATOM     42  C   UNL     1       0.787  13.156 134.198  0.00  0.00    +0.000 C 
ATOM     43  C   UNL     1       0.223  12.585 135.472  0.00  0.00    +0.000 C 
ATOM     44  C   UNL     1      -1.015  11.832 135.107  0.00  0.00    +0.000 C 
ENDBRANCH  36  39
ENDBRANCH  30  31
ENDBRANCH  21  30
TORSDOF 6
ENDMDL
MODEL 8
REMARK VINA RESULT:      -9.0      9.243     12.499
REMARK  Name = Irinotecan
REMARK  8 active torsions:
REMARK  status: ('A' for Active; 'I' for Inactive)
REMARK    1  A    between atoms: C_1  and  C_2
REMARK    2  A    between atoms: C_2  and  C_3
REMARK    3  A    between atoms: C_15  and  O_16
REMARK    4  A    between atoms: C_15  and  C_17
REMARK    5  A    between atoms: C_17  and  C_18
REMARK    6  A    between atoms: C_26  and  O_27
REMARK    7  A    between atoms: O_27  and  C_28
REMARK    8  A    between atoms: C_33  and  N_36
REMARK                            x       y       z     vdW  Elec       q    Type
REMARK                         _______ _______ _______ _____ _____    ______ ____
ROOT
ATOM      1  C   UNL     1      -3.683   6.498 133.844  0.00  0.00    +0.000 A 
ATOM      2  C   UNL     1      -2.848   7.593 134.005  0.00  0.00    +0.000 A 
ATOM      3  C   UNL     1      -2.757   8.543 135.150  0.00  0.00    +0.000 C 
ATOM      4  N   UNL     1      -1.689   9.457 134.739  0.00  0.00    +0.000 N 
ATOM      5  C   UNL     1      -1.157   9.134 133.499  0.00  0.00    +0.000 A 
ATOM      6  C   UNL     1      -0.148   9.890 133.004  0.00  0.00    +0.000 A 
ATOM      7  C   UNL     1       0.351  11.106 133.748  0.00  0.00    +0.000 A 
ATOM      8  C   UNL     1      -0.190  11.355 134.951  0.00  0.00    +0.000 A 
ATOM      9  C   UNL     1       0.168  12.496 135.828  0.00  0.00    +0.000 C 
ATOM     10  O   UNL     1       1.156  13.412 135.355  0.00  0.00    +0.000 OA
ATOM     11  C   UNL     1       1.585  13.464 134.076  0.00  0.00    +0.000 C 
ATOM     12  O   UNL     1       2.340  14.386 133.764  0.00  0.00    +0.000 OA
ATOM     13  C   UNL     1       1.372  12.149 133.211  0.00  0.00    +0.000 C 
ATOM     14  C   UNL     1      -1.270  10.495 135.515  0.00  0.00    +0.000 A 
ATOM     15  O   UNL     1      -1.758  10.759 136.620  0.00  0.00    +0.000 OA
ATOM     16  C   UNL     1      -1.913   7.930 133.018  0.00  0.00    +0.000 A 
ATOM     17  N   UNL     1      -1.762   7.248 131.862  0.00  0.00    +0.000 NA
ATOM     18  C   UNL     1      -2.596   6.175 131.666  0.00  0.00    +0.000 A 
ATOM     19  C   UNL     1      -2.546   5.354 130.523  0.00  0.00    +0.000 A 
ATOM     20  C   UNL     1      -3.385   4.218 130.323  0.00  0.00    +0.000 A 
ATOM     21  C   UNL     1      -4.323   3.890 131.285  0.00  0.00    +0.000 A 
ATOM     22  C   UNL     1      -4.412   4.722 132.379  0.00  0.00    +0.000 A 
ATOM     23  C   UNL     1      -3.567   5.807 132.623  0.00  0.00    +0.000 A 
ENDROOT
BRANCH   1  25
ATOM     24  C   UNL     1      -3.831   5.093 135.932  0.00  0.00    +0.000 C 
ATOM     25  C   UNL     1      -4.598   5.992 134.952  0.00  0.00    +0.000 C 
ENDBRANCH   1  25
BRANCH  13  26
ATOM     26  O   UNL     1       2.683  11.582 133.373  0.00  0.00    +0.000 OA
ATOM     27  H   UNL     1       2.536  10.711 133.809  0.00  0.00    +0.000 HD
ENDBRANCH  13  26
BRANCH  13  28
ATOM     28  C   UNL     1       0.972  12.469 131.744  0.00  0.00    +0.000 C 
ATOM     29  C   UNL     1      -0.348  13.130 131.378  0.00  0.00    +0.000 C 
ENDBRANCH  13  28
BRANCH  21  30
ATOM     30  O   UNL     1      -5.131   2.727 131.181  0.00  0.00    +0.000 OA
BRANCH  30  31
ATOM     31  C   UNL     1      -6.362   2.611 131.876  0.00  0.00    +0.000 C 
ATOM     32  O   UNL     1      -6.629   1.854 132.794  0.00  0.00    +0.000 OA
ATOM     33  N   UNL     1      -7.308   3.528 131.498  0.00  0.00    +0.000 N 
ATOM     34  C   UNL     1      -8.239   3.957 132.534  0.00  0.00    +0.000 C 
ATOM     35  C   UNL     1      -9.689   3.659 132.191  0.00  0.00    +0.000 C 
ATOM     36  C   UNL     1     -10.093   4.137 130.780  0.00  0.00    +0.000 C 
ATOM     37  C   UNL     1      -9.056   3.576 129.758  0.00  0.00    +0.000 C 
ATOM     38  C   UNL     1      -7.571   3.818 130.102  0.00  0.00    +0.000 C 
BRANCH  36  39
ATOM     39  N   UNL     1     -10.319   5.605 130.627  0.00  0.00    +0.000 NA
ATOM     40  C   UNL     1      -9.998   6.120 129.283  0.00  0.00    +0.000 C 
ATOM     41  C   UNL     1     -10.308   7.627 129.201  0.00  0.00    +0.000 C 
ATOM     42  C   UNL     1     -11.756   7.963 129.568  0.00  0.00    +0.000 C 
ATOM     43  C   UNL     1     -12.070   7.421 130.938  0.00  0.00    +0.000 C 
ATOM     44  C   UNL     1     -11.690   5.976 130.938  0.00  0.00    +0.000 C 
ENDBRANCH  36  39
ENDBRANCH  30  31
ENDBRANCH  21  30
TORSDOF 6
ENDMDL
MODEL 9
REMARK VINA RESULT:      -8.8      3.489     11.348
REMARK  Name = Irinotecan
REMARK  8 active torsions:
REMARK  status: ('A' for Active; 'I' for Inactive)
REMARK    1  A    between atoms: C_1  and  C_2
REMARK    2  A    between atoms: C_2  and  C_3
REMARK    3  A    between atoms: C_15  and  O_16
REMARK    4  A    between atoms: C_15  and  C_17
REMARK    5  A    between atoms: C_17  and  C_18
REMARK    6  A    between atoms: C_26  and  O_27
REMARK    7  A    between atoms: O_27  and  C_28
REMARK    8  A    between atoms: C_33  and  N_36
REMARK                            x       y       z     vdW  Elec       q    Type
REMARK                         _______ _______ _______ _____ _____    ______ ____
ROOT
ATOM      1  C   UNL     1      -6.207  -3.240 131.860  0.00  0.00    +0.000 A 
ATOM      2  C   UNL     1      -6.586  -3.094 130.534  0.00  0.00    +0.000 A 
ATOM      3  C   UNL     1      -7.820  -3.579 129.853  0.00  0.00    +0.000 C 
ATOM      4  N   UNL     1      -7.650  -3.100 128.479  0.00  0.00    +0.000 N 
ATOM      5  C   UNL     1      -6.468  -2.395 128.300  0.00  0.00    +0.000 A 
ATOM      6  C   UNL     1      -6.191  -1.882 127.078  0.00  0.00    +0.000 A 
ATOM      7  C   UNL     1      -7.111  -2.125 125.905  0.00  0.00    +0.000 A 
ATOM      8  C   UNL     1      -8.247  -2.798 126.145  0.00  0.00    +0.000 A 
ATOM      9  C   UNL     1      -9.272  -3.133 125.127  0.00  0.00    +0.000 C 
ATOM     10  O   UNL     1      -9.030  -2.721 123.782  0.00  0.00    +0.000 OA
ATOM     11  C   UNL     1      -7.833  -2.293 123.328  0.00  0.00    +0.000 C 
ATOM     12  O   UNL     1      -7.718  -2.094 122.118  0.00  0.00    +0.000 OA
ATOM     13  C   UNL     1      -6.822  -1.745 124.425  0.00  0.00    +0.000 C 
ATOM     14  C   UNL     1      -8.573  -3.323 127.502  0.00  0.00    +0.000 A 
ATOM     15  O   UNL     1      -9.621  -3.952 127.688  0.00  0.00    +0.000 OA
ATOM     16  C   UNL     1      -5.773  -2.397 129.631  0.00  0.00    +0.000 A 
ATOM     17  N   UNL     1      -4.587  -1.840 129.962  0.00  0.00    +0.000 NA
ATOM     18  C   UNL     1      -4.176  -1.995 131.263  0.00  0.00    +0.000 A 
ATOM     19  C   UNL     1      -2.976  -1.455 131.765  0.00  0.00    +0.000 A 
ATOM     20  C   UNL     1      -2.554  -1.582 133.121  0.00  0.00    +0.000 A 
ATOM     21  C   UNL     1      -3.343  -2.285 134.014  0.00  0.00    +0.000 A 
ATOM     22  C   UNL     1      -4.490  -2.859 133.515  0.00  0.00    +0.000 A 
ATOM     23  C   UNL     1      -4.952  -2.705 132.206  0.00  0.00    +0.000 A 
ENDROOT
BRANCH   1  25
ATOM     24  C   UNL     1      -8.050  -2.773 133.515  0.00  0.00    +0.000 C 
ATOM     25  C   UNL     1      -7.125  -3.842 132.916  0.00  0.00    +0.000 C 
ENDBRANCH   1  25
BRANCH  13  26
ATOM     26  O   UNL     1      -7.106  -0.343 124.283  0.00  0.00    +0.000 OA
ATOM     27  H   UNL     1      -6.231   0.105 124.353  0.00  0.00    +0.000 HD
ENDBRANCH  13  26
BRANCH  13  28
ATOM     28  C   UNL     1      -5.353  -2.152 124.126  0.00  0.00    +0.000 C 
ATOM     29  C   UNL     1      -4.917  -3.601 123.972  0.00  0.00    +0.000 C 
ENDBRANCH  13  28
BRANCH  21  30
ATOM     30  O   UNL     1      -3.016  -2.377 135.393  0.00  0.00    +0.000 OA
BRANCH  30  31
ATOM     31  C   UNL     1      -3.646  -1.556 136.364  0.00  0.00    +0.000 C 
ATOM     32  O   UNL     1      -3.217  -0.527 136.859  0.00  0.00    +0.000 OA
ATOM     33  N   UNL     1      -4.913  -1.955 136.697  0.00  0.00    +0.000 N 
ATOM     34  C   UNL     1      -5.843  -0.896 137.071  0.00  0.00    +0.000 C 
ATOM     35  C   UNL     1      -6.392  -1.056 138.479  0.00  0.00    +0.000 C 
ATOM     36  C   UNL     1      -6.939  -2.471 138.764  0.00  0.00    +0.000 C 
ATOM     37  C   UNL     1      -5.841  -3.509 138.373  0.00  0.00    +0.000 C 
ATOM     38  C   UNL     1      -5.228  -3.344 136.967  0.00  0.00    +0.000 C 
BRANCH  36  39
ATOM     39  N   UNL     1      -8.272  -2.788 138.170  0.00  0.00    +0.000 NA
ATOM     40  C   UNL     1      -8.650  -4.208 138.282  0.00  0.00    +0.000 C 
ATOM     41  C   UNL     1     -10.055  -4.434 137.690  0.00  0.00    +0.000 C 
ATOM     42  C   UNL     1     -11.126  -3.545 138.329  0.00  0.00    +0.000 C 
ATOM     43  C   UNL     1     -10.718  -2.100 138.215  0.00  0.00    +0.000 C 
ATOM     44  C   UNL     1      -9.332  -1.989 138.761  0.00  0.00    +0.000 C 
ENDBRANCH  36  39
ENDBRANCH  30  31
ENDBRANCH  21  30
TORSDOF 6
ENDMDL
