MODEL 1
REMARK VINA RESULT:      -8.7      0.000      0.000
REMARK  Name = Isavuconazole
REMARK  9 active torsions:
REMARK  status: ('A' for Active; 'I' for Inactive)
REMARK    1  A    between atoms: C_1  and  C_2
REMARK    2  A    between atoms: C_2  and  C_3
REMARK    3  A    between atoms: C_2  and  C_16
REMARK    4  A    between atoms: C_5  and  C_8
REMARK    5  A    between atoms: C_11  and  C_14
REMARK    6  A    between atoms: C_16  and  O_17
REMARK    7  A    between atoms: C_16  and  C_18
REMARK    8  A    between atoms: C_16  and  C_24
REMARK    9  A    between atoms: C_18  and  N_19
REMARK                            x       y       z     vdW  Elec       q    Type
REMARK                         _______ _______ _______ _____ _____    ______ ____
ROOT
ATOM      1  C   UNL     1      -7.971   2.393 123.387  0.00  0.00    +0.000 C 
ENDROOT
BRANCH   1   2
ATOM      2  C   UNL     1      -7.838   3.047 121.965  0.00  0.00    +0.000 A 
ATOM      3  C   UNL     1      -6.578   3.390 121.378  0.00  0.00    +0.000 A 
ATOM      4  F   UNL     1      -5.403   2.946 121.829  0.00  0.00    +0.000 F 
ATOM      5  C   UNL     1      -6.408   4.129 120.227  0.00  0.00    +0.000 A 
ATOM      6  C   UNL     1      -7.513   4.402 119.468  0.00  0.00    +0.000 A 
ATOM      7  C   UNL     1      -8.761   3.988 119.928  0.00  0.00    +0.000 A 
ATOM      8  F   UNL     1      -9.825   4.193 119.145  0.00  0.00    +0.000 F 
ATOM      9  C   UNL     1      -8.944   3.358 121.172  0.00  0.00    +0.000 A 
ENDBRANCH   1   2
BRANCH   1  11
ATOM     10  C   UNL     1     -10.328   1.571 123.895  0.00  0.00    +0.000 C 
ATOM     11  C   UNL     1      -9.050   1.277 123.230  0.00  0.00    +0.000 C 
BRANCH  11  12
ATOM     12  C   UNL     1      -8.770  -0.082 123.803  0.00  0.00    +0.000 A 
ATOM     13  N   UNL     1      -8.704  -0.203 125.112  0.00  0.00    +0.000 NA
ATOM     14  C   UNL     1      -8.532  -1.508 125.426  0.00  0.00    +0.000 A 
ATOM     15  C   UNL     1      -8.591  -2.389 124.369  0.00  0.00    +0.000 A 
ATOM     16  S   UNL     1      -8.512  -1.526 122.907  0.00  0.00    +0.000 S 
BRANCH  14  17
ATOM     17  C   UNL     1      -8.301  -1.902 126.785  0.00  0.00    +0.000 A 
ATOM     18  C   UNL     1      -8.655  -3.179 127.225  0.00  0.00    +0.000 A 
ATOM     19  C   UNL     1      -8.367  -3.554 128.535  0.00  0.00    +0.000 A 
ATOM     20  C   UNL     1      -7.739  -2.652 129.403  0.00  0.00    +0.000 A 
ATOM     21  C   UNL     1      -7.454  -1.350 128.973  0.00  0.00    +0.000 A 
ATOM     22  C   UNL     1      -7.743  -0.974 127.667  0.00  0.00    +0.000 A 
BRANCH  20  23
ATOM     23  C   UNL     1      -7.354  -3.071 130.708  0.00  0.00    +0.000 C 
ATOM     24  N   UNL     1      -7.004  -3.400 131.780  0.00  0.00    +0.000 NA
ENDBRANCH  20  23
ENDBRANCH  14  17
ENDBRANCH  11  12
ENDBRANCH   1  11
BRANCH   1  25
ATOM     25  O   UNL     1      -6.700   1.837 123.777  0.00  0.00    +0.000 OA
ATOM     26  H   UNL     1      -6.830   1.063 124.353  0.00  0.00    +0.000 HD
ENDBRANCH   1  25
BRANCH   1  27
ATOM     27  C   UNL     1      -8.302   3.420 124.567  0.00  0.00    +0.000 C 
BRANCH  27  28
ATOM     28  N   UNL     1      -7.234   4.058 125.395  0.00  0.00    +0.000 N 
ATOM     29  C   UNL     1      -6.426   5.160 125.298  0.00  0.00    +0.000 A 
ATOM     30  N   UNL     1      -5.548   5.260 126.249  0.00  0.00    +0.000 NA
ATOM     31  C   UNL     1      -5.842   4.186 126.977  0.00  0.00    +0.000 A 
ATOM     32  N   UNL     1      -6.830   3.402 126.523  0.00  0.00    +0.000 NA
ENDBRANCH  27  28
ENDBRANCH   1  27
TORSDOF 8
ENDMDL
MODEL 2
REMARK VINA RESULT:      -8.4      1.493      2.225
REMARK  Name = Isavuconazole
REMARK  9 active torsions:
REMARK  status: ('A' for Active; 'I' for Inactive)
REMARK    1  A    between atoms: C_1  and  C_2
REMARK    2  A    between atoms: C_2  and  C_3
REMARK    3  A    between atoms: C_2  and  C_16
REMARK    4  A    between atoms: C_5  and  C_8
REMARK    5  A    between atoms: C_11  and  C_14
REMARK    6  A    between atoms: C_16  and  O_17
REMARK    7  A    between atoms: C_16  and  C_18
REMARK    8  A    between atoms: C_16  and  C_24
REMARK    9  A    between atoms: C_18  and  N_19
REMARK                            x       y       z     vdW  Elec       q    Type
REMARK                         _______ _______ _______ _____ _____    ______ ____
ROOT
ATOM      1  C   UNL     1      -7.426   2.353 123.744  0.00  0.00    +0.000 C 
ENDROOT
BRANCH   1   2
ATOM      2  C   UNL     1      -6.915   3.192 122.520  0.00  0.00    +0.000 A 
ATOM      3  C   UNL     1      -7.710   3.440 121.356  0.00  0.00    +0.000 A 
ATOM      4  F   UNL     1      -9.028   3.240 121.300  0.00  0.00    +0.000 F 
ATOM      5  C   UNL     1      -7.256   4.004 120.184  0.00  0.00    +0.000 A 
ATOM      6  C   UNL     1      -6.002   4.552 120.176  0.00  0.00    +0.000 A 
ATOM      7  C   UNL     1      -5.218   4.448 121.323  0.00  0.00    +0.000 A 
ATOM      8  F   UNL     1      -4.025   5.051 121.332  0.00  0.00    +0.000 F 
ATOM      9  C   UNL     1      -5.635   3.748 122.469  0.00  0.00    +0.000 A 
ENDBRANCH   1   2
BRANCH   1  11
ATOM     10  C   UNL     1      -9.375   0.775 123.292  0.00  0.00    +0.000 C 
ATOM     11  C   UNL     1      -7.930   1.005 123.141  0.00  0.00    +0.000 C 
BRANCH  11  12
ATOM     12  C   UNL     1      -7.406  -0.281 123.710  0.00  0.00    +0.000 A 
ATOM     13  N   UNL     1      -7.552  -0.496 125.000  0.00  0.00    +0.000 NA
ATOM     14  C   UNL     1      -7.096  -1.735 125.296  0.00  0.00    +0.000 A 
ATOM     15  C   UNL     1      -6.720  -2.506 124.218  0.00  0.00    +0.000 A 
ATOM     16  S   UNL     1      -6.608  -1.527 122.834  0.00  0.00    +0.000 S 
BRANCH  14  17
ATOM     17  C   UNL     1      -7.023  -2.174 126.658  0.00  0.00    +0.000 A 
ATOM     18  C   UNL     1      -5.811  -2.145 127.351  0.00  0.00    +0.000 A 
ATOM     19  C   UNL     1      -5.782  -2.524 128.692  0.00  0.00    +0.000 A 
ATOM     20  C   UNL     1      -6.956  -2.940 129.331  0.00  0.00    +0.000 A 
ATOM     21  C   UNL     1      -8.151  -3.034 128.607  0.00  0.00    +0.000 A 
ATOM     22  C   UNL     1      -8.182  -2.658 127.270  0.00  0.00    +0.000 A 
BRANCH  20  23
ATOM     23  C   UNL     1      -6.944  -3.227 130.725  0.00  0.00    +0.000 C 
ATOM     24  N   UNL     1      -6.951  -3.433 131.882  0.00  0.00    +0.000 NA
ENDBRANCH  20  23
ENDBRANCH  14  17
ENDBRANCH  11  12
ENDBRANCH   1  11
BRANCH   1  25
ATOM     25  O   UNL     1      -6.336   2.135 124.662  0.00  0.00    +0.000 OA
ATOM     26  H   UNL     1      -5.859   2.967 124.826  0.00  0.00    +0.000 HD
ENDBRANCH   1  25
BRANCH   1  27
ATOM     27  C   UNL     1      -8.527   3.083 124.645  0.00  0.00    +0.000 C 
BRANCH  27  28
ATOM     28  N   UNL     1      -8.253   3.514 126.050  0.00  0.00    +0.000 N 
ATOM     29  C   UNL     1      -7.853   4.664 126.676  0.00  0.00    +0.000 A 
ATOM     30  N   UNL     1      -7.646   4.530 127.951  0.00  0.00    +0.000 NA
ATOM     31  C   UNL     1      -7.955   3.247 128.123  0.00  0.00    +0.000 A 
ATOM     32  N   UNL     1      -8.312   2.562 127.027  0.00  0.00    +0.000 NA
ENDBRANCH  27  28
ENDBRANCH   1  27
TORSDOF 8
ENDMDL
MODEL 3
REMARK VINA RESULT:      -8.2      5.283      8.525
REMARK  Name = Isavuconazole
REMARK  9 active torsions:
REMARK  status: ('A' for Active; 'I' for Inactive)
REMARK    1  A    between atoms: C_1  and  C_2
REMARK    2  A    between atoms: C_2  and  C_3
REMARK    3  A    between atoms: C_2  and  C_16
REMARK    4  A    between atoms: C_5  and  C_8
REMARK    5  A    between atoms: C_11  and  C_14
REMARK    6  A    between atoms: C_16  and  O_17
REMARK    7  A    between atoms: C_16  and  C_18
REMARK    8  A    between atoms: C_16  and  C_24
REMARK    9  A    between atoms: C_18  and  N_19
REMARK                            x       y       z     vdW  Elec       q    Type
REMARK                         _______ _______ _______ _____ _____    ______ ____
ROOT
ATOM      1  C   UNL     1      -6.723   3.883 127.522  0.00  0.00    +0.000 C 
ENDROOT
BRANCH   1   2
ATOM      2  C   UNL     1      -5.171   3.909 127.287  0.00  0.00    +0.000 A 
ATOM      3  C   UNL     1      -4.455   2.830 126.677  0.00  0.00    +0.000 A 
ATOM      4  F   UNL     1      -5.039   1.839 126.000  0.00  0.00    +0.000 F 
ATOM      5  C   UNL     1      -3.083   2.715 126.615  0.00  0.00    +0.000 A 
ATOM      6  C   UNL     1      -2.329   3.794 126.989  0.00  0.00    +0.000 A 
ATOM      7  C   UNL     1      -2.976   4.926 127.481  0.00  0.00    +0.000 A 
ATOM      8  F   UNL     1      -2.238   6.001 127.773  0.00  0.00    +0.000 F 
ATOM      9  C   UNL     1      -4.368   4.984 127.674  0.00  0.00    +0.000 A 
ENDBRANCH   1   2
BRANCH   1  11
ATOM     10  C   UNL     1      -6.560   2.778 129.811  0.00  0.00    +0.000 C 
ATOM     11  C   UNL     1      -6.911   3.996 129.066  0.00  0.00    +0.000 C 
BRANCH  11  12
ATOM     12  C   UNL     1      -8.289   4.239 129.609  0.00  0.00    +0.000 A 
ATOM     13  N   UNL     1      -8.890   5.368 129.299  0.00  0.00    +0.000 NA
ATOM     14  C   UNL     1     -10.143   5.357 129.809  0.00  0.00    +0.000 A 
ATOM     15  C   UNL     1     -10.537   4.176 130.398  0.00  0.00    +0.000 A 
ATOM     16  S   UNL     1      -9.181   3.177 130.626  0.00  0.00    +0.000 S 
BRANCH  14  17
ATOM     17  C   UNL     1     -10.971   6.523 129.722  0.00  0.00    +0.000 A 
ATOM     18  C   UNL     1     -12.009   6.728 130.634  0.00  0.00    +0.000 A 
ATOM     19  C   UNL     1     -12.761   7.899 130.561  0.00  0.00    +0.000 A 
ATOM     20  C   UNL     1     -12.483   8.853 129.574  0.00  0.00    +0.000 A 
ATOM     21  C   UNL     1     -11.487   8.604 128.621  0.00  0.00    +0.000 A 
ATOM     22  C   UNL     1     -10.738   7.436 128.692  0.00  0.00    +0.000 A 
BRANCH  20  23
ATOM     23  C   UNL     1     -13.183  10.092 129.565  0.00  0.00    +0.000 C 
ATOM     24  N   UNL     1     -13.729  11.132 129.563  0.00  0.00    +0.000 NA
ENDBRANCH  20  23
ENDBRANCH  14  17
ENDBRANCH  11  12
ENDBRANCH   1  11
BRANCH   1  25
ATOM     25  O   UNL     1      -7.327   5.001 126.842  0.00  0.00    +0.000 OA
ATOM     26  H   UNL     1      -8.253   5.109 127.120  0.00  0.00    +0.000 HD
ENDBRANCH   1  25
BRANCH   1  27
ATOM     27  C   UNL     1      -7.475   2.620 126.892  0.00  0.00    +0.000 C 
BRANCH  27  28
ATOM     28  N   UNL     1      -8.067   2.643 125.521  0.00  0.00    +0.000 N 
ATOM     29  C   UNL     1      -9.120   2.042 124.883  0.00  0.00    +0.000 A 
ATOM     30  N   UNL     1      -9.189   2.301 123.613  0.00  0.00    +0.000 NA
ATOM     31  C   UNL     1      -8.148   3.117 123.465  0.00  0.00    +0.000 A 
ATOM     32  N   UNL     1      -7.413   3.358 124.559  0.00  0.00    +0.000 NA
ENDBRANCH  27  28
ENDBRANCH   1  27
TORSDOF 8
ENDMDL
MODEL 4
REMARK VINA RESULT:      -8.1      4.917      7.821
REMARK  Name = Isavuconazole
REMARK  9 active torsions:
REMARK  status: ('A' for Active; 'I' for Inactive)
REMARK    1  A    between atoms: C_1  and  C_2
REMARK    2  A    between atoms: C_2  and  C_3
REMARK    3  A    between atoms: C_2  and  C_16
REMARK    4  A    between atoms: C_5  and  C_8
REMARK    5  A    between atoms: C_11  and  C_14
REMARK    6  A    between atoms: C_16  and  O_17
REMARK    7  A    between atoms: C_16  and  C_18
REMARK    8  A    between atoms: C_16  and  C_24
REMARK    9  A    between atoms: C_18  and  N_19
REMARK                            x       y       z     vdW  Elec       q    Type
REMARK                         _______ _______ _______ _____ _____    ______ ____
ROOT
ATOM      1  C   UNL     1      -7.624   2.355 127.038  0.00  0.00    +0.000 C 
ENDROOT
BRANCH   1   2
ATOM      2  C   UNL     1      -7.500   2.576 125.489  0.00  0.00    +0.000 A 
ATOM      3  C   UNL     1      -6.268   2.913 124.844  0.00  0.00    +0.000 A 
ATOM      4  F   UNL     1      -5.071   2.799 125.422  0.00  0.00    +0.000 F 
ATOM      5  C   UNL     1      -6.135   3.300 123.528  0.00  0.00    +0.000 A 
ATOM      6  C   UNL     1      -7.222   3.174 122.706  0.00  0.00    +0.000 A 
ATOM      7  C   UNL     1      -8.426   2.734 123.252  0.00  0.00    +0.000 A 
ATOM      8  F   UNL     1      -9.462   2.542 122.428  0.00  0.00    +0.000 F 
ATOM      9  C   UNL     1      -8.592   2.476 124.624  0.00  0.00    +0.000 A 
ENDBRANCH   1   2
BRANCH   1  11
ATOM     10  C   UNL     1      -5.941   3.700 128.398  0.00  0.00    +0.000 C 
ATOM     11  C   UNL     1      -7.227   3.718 127.685  0.00  0.00    +0.000 C 
BRANCH  11  12
ATOM     12  C   UNL     1      -8.106   4.292 128.757  0.00  0.00    +0.000 A 
ATOM     13  N   UNL     1      -8.971   5.224 128.420  0.00  0.00    +0.000 NA
ATOM     14  C   UNL     1      -9.720   5.544 129.501  0.00  0.00    +0.000 A 
ATOM     15  C   UNL     1      -9.510   4.772 130.622  0.00  0.00    +0.000 A 
ATOM     16  S   UNL     1      -8.094   3.853 130.420  0.00  0.00    +0.000 S 
BRANCH  14  17
ATOM     17  C   UNL     1     -10.656   6.627 129.439  0.00  0.00    +0.000 A 
ATOM     18  C   UNL     1     -11.671   6.746 130.391  0.00  0.00    +0.000 A 
ATOM     19  C   UNL     1     -12.532   7.840 130.339  0.00  0.00    +0.000 A 
ATOM     20  C   UNL     1     -12.384   8.804 129.333  0.00  0.00    +0.000 A 
ATOM     21  C   UNL     1     -11.409   8.637 128.342  0.00  0.00    +0.000 A 
ATOM     22  C   UNL     1     -10.552   7.545 128.391  0.00  0.00    +0.000 A 
BRANCH  20  23
ATOM     23  C   UNL     1     -13.197   9.972 129.343  0.00  0.00    +0.000 C 
ATOM     24  N   UNL     1     -13.850  10.948 129.321  0.00  0.00    +0.000 NA
ENDBRANCH  20  23
ENDBRANCH  14  17
ENDBRANCH  11  12
ENDBRANCH   1  11
BRANCH   1  25
ATOM     25  O   UNL     1      -8.984   2.003 127.363  0.00  0.00    +0.000 OA
ATOM     26  H   UNL     1      -9.540   2.023 126.565  0.00  0.00    +0.000 HD
ENDBRANCH   1  25
BRANCH   1  27
ATOM     27  C   UNL     1      -6.778   1.124 127.609  0.00  0.00    +0.000 C 
BRANCH  27  28
ATOM     28  N   UNL     1      -6.772  -0.217 126.949  0.00  0.00    +0.000 N 
ATOM     29  C   UNL     1      -5.834  -1.047 126.393  0.00  0.00    +0.000 A 
ATOM     30  N   UNL     1      -6.330  -2.106 125.831  0.00  0.00    +0.000 NA
ATOM     31  C   UNL     1      -7.628  -1.935 126.069  0.00  0.00    +0.000 A 
ATOM     32  N   UNL     1      -7.977  -0.817 126.720  0.00  0.00    +0.000 NA
ENDBRANCH  27  28
ENDBRANCH   1  27
TORSDOF 8
ENDMDL
MODEL 5
REMARK VINA RESULT:      -8.1      5.744      7.664
REMARK  Name = Isavuconazole
REMARK  9 active torsions:
REMARK  status: ('A' for Active; 'I' for Inactive)
REMARK    1  A    between atoms: C_1  and  C_2
REMARK    2  A    between atoms: C_2  and  C_3
REMARK    3  A    between atoms: C_2  and  C_16
REMARK    4  A    between atoms: C_5  and  C_8
REMARK    5  A    between atoms: C_11  and  C_14
REMARK    6  A    between atoms: C_16  and  O_17
REMARK    7  A    between atoms: C_16  and  C_18
REMARK    8  A    between atoms: C_16  and  C_24
REMARK    9  A    between atoms: C_18  and  N_19
REMARK                            x       y       z     vdW  Elec       q    Type
REMARK                         _______ _______ _______ _____ _____    ______ ____
ROOT
ATOM      1  C   UNL     1      -9.141   5.795 130.379  0.00  0.00    +0.000 C 
ENDROOT
BRANCH   1   2
ATOM      2  C   UNL     1     -10.509   6.460 129.990  0.00  0.00    +0.000 A 
ATOM      3  C   UNL     1     -11.530   6.762 130.947  0.00  0.00    +0.000 A 
ATOM      4  F   UNL     1     -11.332   6.779 132.266  0.00  0.00    +0.000 F 
ATOM      5  C   UNL     1     -12.812   7.169 130.645  0.00  0.00    +0.000 A 
ATOM      6  C   UNL     1     -13.094   7.500 129.348  0.00  0.00    +0.000 A 
ATOM      7  C   UNL     1     -12.100   7.342 128.384  0.00  0.00    +0.000 A 
ATOM      8  F   UNL     1     -12.361   7.739 127.134  0.00  0.00    +0.000 F 
ATOM      9  C   UNL     1     -10.839   6.794 128.675  0.00  0.00    +0.000 A 
ENDBRANCH   1   2
BRANCH   1  11
ATOM     10  C   UNL     1      -9.416   4.152 132.306  0.00  0.00    +0.000 C 
ATOM     11  C   UNL     1      -9.501   4.353 130.852  0.00  0.00    +0.000 C 
BRANCH  11  12
ATOM     12  C   UNL     1      -8.651   3.207 130.385  0.00  0.00    +0.000 A 
ATOM     13  N   UNL     1      -8.989   2.595 129.270  0.00  0.00    +0.000 NA
ATOM     14  C   UNL     1      -8.057   1.659 128.980  0.00  0.00    +0.000 A 
ATOM     15  C   UNL     1      -6.952   1.642 129.802  0.00  0.00    +0.000 A 
ATOM     16  S   UNL     1      -7.255   2.591 131.178  0.00  0.00    +0.000 S 
BRANCH  14  17
ATOM     17  C   UNL     1      -8.250   0.760 127.880  0.00  0.00    +0.000 A 
ATOM     18  C   UNL     1      -7.676  -0.513 127.892  0.00  0.00    +0.000 A 
ATOM     19  C   UNL     1      -7.929  -1.386 126.836  0.00  0.00    +0.000 A 
ATOM     20  C   UNL     1      -8.741  -0.983 125.769  0.00  0.00    +0.000 A 
ATOM     21  C   UNL     1      -9.252   0.321 125.732  0.00  0.00    +0.000 A 
ATOM     22  C   UNL     1      -9.000   1.193 126.784  0.00  0.00    +0.000 A 
BRANCH  20  23
ATOM     23  C   UNL     1      -9.081  -1.909 124.744  0.00  0.00    +0.000 C 
ATOM     24  N   UNL     1      -9.394  -2.677 123.912  0.00  0.00    +0.000 NA
ENDBRANCH  20  23
ENDBRANCH  14  17
ENDBRANCH  11  12
ENDBRANCH   1  11
BRANCH   1  25
ATOM     25  O   UNL     1      -8.281   5.763 129.222  0.00  0.00    +0.000 OA
ATOM     26  H   UNL     1      -8.484   6.505 128.626  0.00  0.00    +0.000 HD
ENDBRANCH   1  25
BRANCH   1  27
ATOM     27  C   UNL     1      -8.283   6.608 131.454  0.00  0.00    +0.000 C 
BRANCH  27  28
ATOM     28  N   UNL     1      -6.790   6.665 131.409  0.00  0.00    +0.000 N 
ATOM     29  C   UNL     1      -5.754   6.191 132.169  0.00  0.00    +0.000 A 
ATOM     30  N   UNL     1      -4.582   6.592 131.778  0.00  0.00    +0.000 NA
ATOM     31  C   UNL     1      -4.908   7.327 130.718  0.00  0.00    +0.000 A 
ATOM     32  N   UNL     1      -6.214   7.436 130.439  0.00  0.00    +0.000 NA
ENDBRANCH  27  28
ENDBRANCH   1  27
TORSDOF 8
ENDMDL
MODEL 6
REMARK VINA RESULT:      -8.0      3.678      5.107
REMARK  Name = Isavuconazole
REMARK  9 active torsions:
REMARK  status: ('A' for Active; 'I' for Inactive)
REMARK    1  A    between atoms: C_1  and  C_2
REMARK    2  A    between atoms: C_2  and  C_3
REMARK    3  A    between atoms: C_2  and  C_16
REMARK    4  A    between atoms: C_5  and  C_8
REMARK    5  A    between atoms: C_11  and  C_14
REMARK    6  A    between atoms: C_16  and  O_17
REMARK    7  A    between atoms: C_16  and  C_18
REMARK    8  A    between atoms: C_16  and  C_24
REMARK    9  A    between atoms: C_18  and  N_19
REMARK                            x       y       z     vdW  Elec       q    Type
REMARK                         _______ _______ _______ _____ _____    ______ ____
ROOT
ATOM      1  C   UNL     1      -6.024   0.103 126.398  0.00  0.00    +0.000 C 
ENDROOT
BRANCH   1   2
ATOM      2  C   UNL     1      -6.002  -0.724 125.063  0.00  0.00    +0.000 A 
ATOM      3  C   UNL     1      -6.846  -0.427 123.947  0.00  0.00    +0.000 A 
ATOM      4  F   UNL     1      -7.517   0.718 123.805  0.00  0.00    +0.000 F 
ATOM      5  C   UNL     1      -7.005  -1.222 122.832  0.00  0.00    +0.000 A 
ATOM      6  C   UNL     1      -6.156  -2.283 122.672  0.00  0.00    +0.000 A 
ATOM      7  C   UNL     1      -5.226  -2.555 123.673  0.00  0.00    +0.000 A 
ATOM      8  F   UNL     1      -4.353  -3.547 123.474  0.00  0.00    +0.000 F 
ATOM      9  C   UNL     1      -5.164  -1.825 124.873  0.00  0.00    +0.000 A 
ENDBRANCH   1   2
BRANCH   1  11
ATOM     10  C   UNL     1      -7.752   0.674 128.180  0.00  0.00    +0.000 C 
ATOM     11  C   UNL     1      -7.405  -0.205 127.054  0.00  0.00    +0.000 C 
BRANCH  11  12
ATOM     12  C   UNL     1      -7.615  -1.544 127.700  0.00  0.00    +0.000 A 
ATOM     13  N   UNL     1      -7.051  -1.766 128.868  0.00  0.00    +0.000 NA
ATOM     14  C   UNL     1      -7.428  -2.986 129.316  0.00  0.00    +0.000 A 
ATOM     15  C   UNL     1      -8.372  -3.636 128.553  0.00  0.00    +0.000 A 
ATOM     16  S   UNL     1      -8.528  -2.850 127.054  0.00  0.00    +0.000 S 
BRANCH  14  17
ATOM     17  C   UNL     1      -6.853  -3.528 130.511  0.00  0.00    +0.000 A 
ATOM     18  C   UNL     1      -7.208  -3.023 131.764  0.00  0.00    +0.000 A 
ATOM     19  C   UNL     1      -6.677  -3.607 132.912  0.00  0.00    +0.000 A 
ATOM     20  C   UNL     1      -5.787  -4.684 132.806  0.00  0.00    +0.000 A 
ATOM     21  C   UNL     1      -5.383  -5.135 131.543  0.00  0.00    +0.000 A 
ATOM     22  C   UNL     1      -5.910  -4.552 130.398  0.00  0.00    +0.000 A 
BRANCH  20  23
ATOM     23  C   UNL     1      -5.327  -5.344 133.979  0.00  0.00    +0.000 C 
ATOM     24  N   UNL     1      -4.974  -5.873 134.967  0.00  0.00    +0.000 NA
ENDBRANCH  20  23
ENDBRANCH  14  17
ENDBRANCH  11  12
ENDBRANCH   1  11
BRANCH   1  25
ATOM     25  O   UNL     1      -4.939  -0.328 127.244  0.00  0.00    +0.000 OA
ATOM     26  H   UNL     1      -4.704   0.372 127.878  0.00  0.00    +0.000 HD
ENDBRANCH   1  25
BRANCH   1  27
ATOM     27  C   UNL     1      -5.753   1.669 126.220  0.00  0.00    +0.000 C 
BRANCH  27  28
ATOM     28  N   UNL     1      -4.607   2.362 126.883  0.00  0.00    +0.000 N 
ATOM     29  C   UNL     1      -3.385   2.849 126.500  0.00  0.00    +0.000 A 
ATOM     30  N   UNL     1      -2.662   3.298 127.481  0.00  0.00    +0.000 NA
ATOM     31  C   UNL     1      -3.482   3.100 128.510  0.00  0.00    +0.000 A 
ATOM     32  N   UNL     1      -4.662   2.527 128.237  0.00  0.00    +0.000 NA
ENDBRANCH  27  28
ENDBRANCH   1  27
TORSDOF 8
ENDMDL
MODEL 7
REMARK VINA RESULT:      -8.0      2.973      7.691
REMARK  Name = Isavuconazole
REMARK  9 active torsions:
REMARK  status: ('A' for Active; 'I' for Inactive)
REMARK    1  A    between atoms: C_1  and  C_2
REMARK    2  A    between atoms: C_2  and  C_3
REMARK    3  A    between atoms: C_2  and  C_16
REMARK    4  A    between atoms: C_5  and  C_8
REMARK    5  A    between atoms: C_11  and  C_14
REMARK    6  A    between atoms: C_16  and  O_17
REMARK    7  A    between atoms: C_16  and  C_18
REMARK    8  A    between atoms: C_16  and  C_24
REMARK    9  A    between atoms: C_18  and  N_19
REMARK                            x       y       z     vdW  Elec       q    Type
REMARK                         _______ _______ _______ _____ _____    ______ ____
ROOT
ATOM      1  C   UNL     1      -7.138  -1.627 126.704  0.00  0.00    +0.000 C 
ENDROOT
BRANCH   1   2
ATOM      2  C   UNL     1      -7.472  -2.035 125.225  0.00  0.00    +0.000 A 
ATOM      3  C   UNL     1      -6.574  -1.815 124.132  0.00  0.00    +0.000 A 
ATOM      4  F   UNL     1      -5.282  -1.514 124.280  0.00  0.00    +0.000 F 
ATOM      5  C   UNL     1      -6.883  -1.978 122.799  0.00  0.00    +0.000 A 
ATOM      6  C   UNL     1      -8.072  -2.578 122.482  0.00  0.00    +0.000 A 
ATOM      7  C   UNL     1      -8.942  -2.927 123.512  0.00  0.00    +0.000 A 
ATOM      8  F   UNL     1     -10.066  -3.580 123.199  0.00  0.00    +0.000 F 
ATOM      9  C   UNL     1      -8.682  -2.630 124.862  0.00  0.00    +0.000 A 
ENDBRANCH   1   2
BRANCH   1  11
ATOM     10  C   UNL     1      -7.735   0.521 127.937  0.00  0.00    +0.000 C 
ATOM     11  C   UNL     1      -7.159  -0.067 126.718  0.00  0.00    +0.000 C 
BRANCH  11  12
ATOM     12  C   UNL     1      -7.967   0.654 125.680  0.00  0.00    +0.000 A 
ATOM     13  N   UNL     1      -7.328   1.249 124.696  0.00  0.00    +0.000 NA
ATOM     14  C   UNL     1      -8.231   1.761 123.828  0.00  0.00    +0.000 A 
ATOM     15  C   UNL     1      -9.547   1.451 124.084  0.00  0.00    +0.000 A 
ATOM     16  S   UNL     1      -9.681   0.794 125.646  0.00  0.00    +0.000 S 
BRANCH  14  17
ATOM     17  C   UNL     1      -7.799   2.572 122.728  0.00  0.00    +0.000 A 
ATOM     18  C   UNL     1      -6.449   2.891 122.566  0.00  0.00    +0.000 A 
ATOM     19  C   UNL     1      -6.051   3.633 121.456  0.00  0.00    +0.000 A 
ATOM     20  C   UNL     1      -7.000   4.064 120.521  0.00  0.00    +0.000 A 
ATOM     21  C   UNL     1      -8.359   3.801 120.731  0.00  0.00    +0.000 A 
ATOM     22  C   UNL     1      -8.758   3.062 121.838  0.00  0.00    +0.000 A 
BRANCH  20  23
ATOM     23  C   UNL     1      -6.579   4.732 119.337  0.00  0.00    +0.000 C 
ATOM     24  N   UNL     1      -6.260   5.306 118.363  0.00  0.00    +0.000 NA
ENDBRANCH  20  23
ENDBRANCH  14  17
ENDBRANCH  11  12
ENDBRANCH   1  11
BRANCH   1  25
ATOM     25  O   UNL     1      -8.141  -2.168 127.586  0.00  0.00    +0.000 OA
ATOM     26  H   UNL     1      -8.492  -3.003 127.231  0.00  0.00    +0.000 HD
ENDBRANCH   1  25
BRANCH   1  27
ATOM     27  C   UNL     1      -5.776  -2.238 127.276  0.00  0.00    +0.000 C 
BRANCH  27  28
ATOM     28  N   UNL     1      -5.485  -2.313 128.740  0.00  0.00    +0.000 N 
ATOM     29  C   UNL     1      -4.628  -1.700 129.615  0.00  0.00    +0.000 A 
ATOM     30  N   UNL     1      -4.668  -2.181 130.821  0.00  0.00    +0.000 NA
ATOM     31  C   UNL     1      -5.607  -3.115 130.689  0.00  0.00    +0.000 A 
ATOM     32  N   UNL     1      -6.134  -3.269 129.467  0.00  0.00    +0.000 NA
ENDBRANCH  27  28
ENDBRANCH   1  27
TORSDOF 8
ENDMDL
MODEL 8
REMARK VINA RESULT:      -7.9      3.348      7.958
REMARK  Name = Isavuconazole
REMARK  9 active torsions:
REMARK  status: ('A' for Active; 'I' for Inactive)
REMARK    1  A    between atoms: C_1  and  C_2
REMARK    2  A    between atoms: C_2  and  C_3
REMARK    3  A    between atoms: C_2  and  C_16
REMARK    4  A    between atoms: C_5  and  C_8
REMARK    5  A    between atoms: C_11  and  C_14
REMARK    6  A    between atoms: C_16  and  O_17
REMARK    7  A    between atoms: C_16  and  C_18
REMARK    8  A    between atoms: C_16  and  C_24
REMARK    9  A    between atoms: C_18  and  N_19
REMARK                            x       y       z     vdW  Elec       q    Type
REMARK                         _______ _______ _______ _____ _____    ______ ____
ROOT
ATOM      1  C   UNL     1      -7.850   0.108 126.097  0.00  0.00    +0.000 C 
ENDROOT
BRANCH   1   2
ATOM      2  C   UNL     1      -8.214  -1.099 125.161  0.00  0.00    +0.000 A 
ATOM      3  C   UNL     1      -8.745  -0.932 123.843  0.00  0.00    +0.000 A 
ATOM      4  F   UNL     1      -8.722   0.221 123.172  0.00  0.00    +0.000 F 
ATOM      5  C   UNL     1      -9.253  -1.941 123.053  0.00  0.00    +0.000 A 
ATOM      6  C   UNL     1      -9.072  -3.234 123.464  0.00  0.00    +0.000 A 
ATOM      7  C   UNL     1      -8.451  -3.467 124.689  0.00  0.00    +0.000 A 
ATOM      8  F   UNL     1      -8.211  -4.732 125.047  0.00  0.00    +0.000 F 
ATOM      9  C   UNL     1      -8.061  -2.430 125.554  0.00  0.00    +0.000 A 
ENDBRANCH   1   2
BRANCH   1  11
ATOM     10  C   UNL     1      -5.445   0.456 126.861  0.00  0.00    +0.000 C 
ATOM     11  C   UNL     1      -6.383   0.491 125.729  0.00  0.00    +0.000 C 
BRANCH  11  12
ATOM     12  C   UNL     1      -6.106   1.872 125.211  0.00  0.00    +0.000 A 
ATOM     13  N   UNL     1      -6.233   2.089 123.919  0.00  0.00    +0.000 NA
ATOM     14  C   UNL     1      -6.026   3.402 123.669  0.00  0.00    +0.000 A 
ATOM     15  C   UNL     1      -5.866   4.203 124.778  0.00  0.00    +0.000 A 
ATOM     16  S   UNL     1      -5.621   3.229 126.149  0.00  0.00    +0.000 S 
BRANCH  14  17
ATOM     17  C   UNL     1      -5.981   3.885 122.320  0.00  0.00    +0.000 A 
ATOM     18  C   UNL     1      -7.012   3.592 121.425  0.00  0.00    +0.000 A 
ATOM     19  C   UNL     1      -6.970   4.122 120.137  0.00  0.00    +0.000 A 
ATOM     20  C   UNL     1      -5.896   4.931 119.744  0.00  0.00    +0.000 A 
ATOM     21  C   UNL     1      -4.832   5.158 120.626  0.00  0.00    +0.000 A 
ATOM     22  C   UNL     1      -4.872   4.629 121.910  0.00  0.00    +0.000 A 
BRANCH  20  23
ATOM     23  C   UNL     1      -5.906   5.554 118.465  0.00  0.00    +0.000 C 
ATOM     24  N   UNL     1      -5.879   6.078 117.414  0.00  0.00    +0.000 NA
ENDBRANCH  20  23
ENDBRANCH  14  17
ENDBRANCH  11  12
ENDBRANCH   1  11
BRANCH   1  25
ATOM     25  O   UNL     1      -8.753   1.202 125.838  0.00  0.00    +0.000 OA
ATOM     26  H   UNL     1      -8.662   1.508 124.918  0.00  0.00    +0.000 HD
ENDBRANCH   1  25
BRANCH   1  27
ATOM     27  C   UNL     1      -8.049  -0.171 127.659  0.00  0.00    +0.000 C 
BRANCH  27  28
ATOM     28  N   UNL     1      -8.176   0.932 128.659  0.00  0.00    +0.000 N 
ATOM     29  C   UNL     1      -7.783   1.150 129.953  0.00  0.00    +0.000 A 
ATOM     30  N   UNL     1      -8.224   2.260 130.462  0.00  0.00    +0.000 NA
ATOM     31  C   UNL     1      -8.899   2.760 129.430  0.00  0.00    +0.000 A 
ATOM     32  N   UNL     1      -8.934   2.015 128.316  0.00  0.00    +0.000 NA
ENDBRANCH  27  28
ENDBRANCH   1  27
TORSDOF 8
ENDMDL
MODEL 9
REMARK VINA RESULT:      -7.8      5.763      9.191
REMARK  Name = Isavuconazole
REMARK  9 active torsions:
REMARK  status: ('A' for Active; 'I' for Inactive)
REMARK    1  A    between atoms: C_1  and  C_2
REMARK    2  A    between atoms: C_2  and  C_3
REMARK    3  A    between atoms: C_2  and  C_16
REMARK    4  A    between atoms: C_5  and  C_8
REMARK    5  A    between atoms: C_11  and  C_14
REMARK    6  A    between atoms: C_16  and  O_17
REMARK    7  A    between atoms: C_16  and  C_18
REMARK    8  A    between atoms: C_16  and  C_24
REMARK    9  A    between atoms: C_18  and  N_19
REMARK                            x       y       z     vdW  Elec       q    Type
REMARK                         _______ _______ _______ _____ _____    ______ ____
ROOT
ATOM      1  C   UNL     1      -6.068   4.213 128.887  0.00  0.00    +0.000 C 
ENDROOT
BRANCH   1   2
ATOM      2  C   UNL     1      -4.766   5.086 128.965  0.00  0.00    +0.000 A 
ATOM      3  C   UNL     1      -3.784   5.118 127.924  0.00  0.00    +0.000 A 
ATOM      4  F   UNL     1      -3.992   4.653 126.691  0.00  0.00    +0.000 F 
ATOM      5  C   UNL     1      -2.543   5.712 128.015  0.00  0.00    +0.000 A 
ATOM      6  C   UNL     1      -2.285   6.501 129.102  0.00  0.00    +0.000 A 
ATOM      7  C   UNL     1      -3.253   6.607 130.098  0.00  0.00    +0.000 A 
ATOM      8  F   UNL     1      -3.023   7.439 131.120  0.00  0.00    +0.000 F 
ATOM      9  C   UNL     1      -4.460   5.887 130.067  0.00  0.00    +0.000 A 
ENDBRANCH   1   2
BRANCH   1  11
ATOM     10  C   UNL     1      -6.486   3.094 131.137  0.00  0.00    +0.000 C 
ATOM     11  C   UNL     1      -6.705   4.289 130.309  0.00  0.00    +0.000 C 
BRANCH  11  12
ATOM     12  C   UNL     1      -8.196   4.412 130.426  0.00  0.00    +0.000 A 
ATOM     13  N   UNL     1      -8.755   5.552 130.082  0.00  0.00    +0.000 NA
ATOM     14  C   UNL     1     -10.100   5.431 130.177  0.00  0.00    +0.000 A 
ATOM     15  C   UNL     1     -10.566   4.169 130.472  0.00  0.00    +0.000 A 
ATOM     16  S   UNL     1      -9.273   3.193 130.985  0.00  0.00    +0.000 S 
BRANCH  14  17
ATOM     17  C   UNL     1     -10.946   6.571 129.979  0.00  0.00    +0.000 A 
ATOM     18  C   UNL     1     -12.020   6.818 130.837  0.00  0.00    +0.000 A 
ATOM     19  C   UNL     1     -12.790   7.964 130.655  0.00  0.00    +0.000 A 
ATOM     20  C   UNL     1     -12.494   8.852 129.613  0.00  0.00    +0.000 A 
ATOM     21  C   UNL     1     -11.460   8.558 128.715  0.00  0.00    +0.000 A 
ATOM     22  C   UNL     1     -10.693   7.414 128.894  0.00  0.00    +0.000 A 
BRANCH  20  23
ATOM     23  C   UNL     1     -13.216  10.073 129.492  0.00  0.00    +0.000 C 
ATOM     24  N   UNL     1     -13.841  11.061 129.380  0.00  0.00    +0.000 NA
ENDBRANCH  20  23
ENDBRANCH  14  17
ENDBRANCH  11  12
ENDBRANCH   1  11
BRANCH   1  25
ATOM     25  O   UNL     1      -6.953   4.764 127.891  0.00  0.00    +0.000 OA
ATOM     26  H   UNL     1      -7.800   4.284 127.886  0.00  0.00    +0.000 HD
ENDBRANCH   1  25
BRANCH   1  27
ATOM     27  C   UNL     1      -5.839   2.712 128.386  0.00  0.00    +0.000 C 
BRANCH  27  28
ATOM     28  N   UNL     1      -6.356   2.219 127.073  0.00  0.00    +0.000 N 
ATOM     29  C   UNL     1      -5.830   1.940 125.840  0.00  0.00    +0.000 A 
ATOM     30  N   UNL     1      -6.715   1.620 124.945  0.00  0.00    +0.000 NA
ATOM     31  C   UNL     1      -7.833   1.680 125.664  0.00  0.00    +0.000 A 
ATOM     32  N   UNL     1      -7.705   2.049 126.946  0.00  0.00    +0.000 NA
ENDBRANCH  27  28
ENDBRANCH   1  27
TORSDOF 8
ENDMDL
