MODEL 1
REMARK VINA RESULT:      -6.6      0.000      0.000
REMARK  Name = Isoaminile
REMARK  11 active torsions:
REMARK  status: ('A' for Active; 'I' for Inactive)
REMARK    1  A    between atoms: C_1  and  C_2
REMARK    2  A    between atoms: C_2  and  C_3
REMARK    3  A    between atoms: C_2  and  C_4
REMARK    4  A    between atoms: C_4  and  C_5
REMARK    5  A    between atoms: C_4  and  C_11
REMARK    6  A    between atoms: C_4  and  C_13
REMARK    7  A    between atoms: C_5  and  C_6
REMARK    8  A    between atoms: C_6  and  C_7
REMARK    9  A    between atoms: C_6  and  N_8
REMARK   10  A    between atoms: N_8  and  C_9
REMARK   11  A    between atoms: N_8  and  C_10
REMARK                            x       y       z     vdW  Elec       q    Type
REMARK                         _______ _______ _______ _____ _____    ______ ____
ROOT
ATOM      1  C   UNL     1      -7.902  -1.810 125.072  0.00  0.00    +0.000 C 
ENDROOT
BRANCH   1   2
ATOM      2  C   UNL     1      -8.202  -2.274 126.525  0.00  0.00    +0.000 A 
ATOM      3  C   UNL     1      -7.801  -1.515 127.626  0.00  0.00    +0.000 A 
ATOM      4  C   UNL     1      -7.867  -2.023 128.922  0.00  0.00    +0.000 A 
ATOM      5  C   UNL     1      -8.393  -3.307 129.147  0.00  0.00    +0.000 A 
ATOM      6  C   UNL     1      -8.872  -4.036 128.088  0.00  0.00    +0.000 A 
ATOM      7  C   UNL     1      -8.845  -3.506 126.809  0.00  0.00    +0.000 A 
ENDBRANCH   1   2
BRANCH   1   9
ATOM      8  C   UNL     1      -5.729  -2.576 123.150  0.00  0.00    +0.000 C 
ATOM      9  C   UNL     1      -6.308  -2.306 124.625  0.00  0.00    +0.000 C 
ATOM     10  C   UNL     1      -5.281  -1.388 125.334  0.00  0.00    +0.000 C 
ENDBRANCH   1   9
BRANCH   1  11
ATOM     11  C   UNL     1      -8.905  -2.492 124.156  0.00  0.00    +0.000 C 
ATOM     12  N   UNL     1      -9.736  -3.058 123.395  0.00  0.00    +0.000 NA
ENDBRANCH   1  11
BRANCH   1  13
ATOM     13  C   UNL     1      -8.158  -0.251 124.947  0.00  0.00    +0.000 C 
BRANCH  13  14
ATOM     14  C   UNL     1      -8.096   0.411 123.509  0.00  0.00    +0.000 C 
ATOM     15  C   UNL     1      -6.953   1.352 123.457  0.00  0.00    +0.000 C 
BRANCH  14  16
ATOM     16  N   UNL     1      -9.278   1.287 123.294  0.00  0.00    +0.000 NA
ATOM     17  C   UNL     1      -8.938   2.588 122.686  0.00  0.00    +0.000 C 
ATOM     18  C   UNL     1     -10.275   0.586 122.514  0.00  0.00    +0.000 C 
ENDBRANCH  14  16
ENDBRANCH  13  14
ENDBRANCH   1  13
TORSDOF 6
ENDMDL
MODEL 2
REMARK VINA RESULT:      -6.4      1.048      1.862
REMARK  Name = Isoaminile
REMARK  11 active torsions:
REMARK  status: ('A' for Active; 'I' for Inactive)
REMARK    1  A    between atoms: C_1  and  C_2
REMARK    2  A    between atoms: C_2  and  C_3
REMARK    3  A    between atoms: C_2  and  C_4
REMARK    4  A    between atoms: C_4  and  C_5
REMARK    5  A    between atoms: C_4  and  C_11
REMARK    6  A    between atoms: C_4  and  C_13
REMARK    7  A    between atoms: C_5  and  C_6
REMARK    8  A    between atoms: C_6  and  C_7
REMARK    9  A    between atoms: C_6  and  N_8
REMARK   10  A    between atoms: N_8  and  C_9
REMARK   11  A    between atoms: N_8  and  C_10
REMARK                            x       y       z     vdW  Elec       q    Type
REMARK                         _______ _______ _______ _____ _____    ______ ____
ROOT
ATOM      1  C   UNL     1      -7.435  -1.934 124.824  0.00  0.00    +0.000 C 
ENDROOT
BRANCH   1   2
ATOM      2  C   UNL     1      -7.612  -2.573 126.229  0.00  0.00    +0.000 A 
ATOM      3  C   UNL     1      -8.600  -3.529 126.471  0.00  0.00    +0.000 A 
ATOM      4  C   UNL     1      -8.910  -3.943 127.765  0.00  0.00    +0.000 A 
ATOM      5  C   UNL     1      -8.187  -3.432 128.858  0.00  0.00    +0.000 A 
ATOM      6  C   UNL     1      -7.155  -2.556 128.634  0.00  0.00    +0.000 A 
ATOM      7  C   UNL     1      -6.823  -2.186 127.342  0.00  0.00    +0.000 A 
ENDBRANCH   1   2
BRANCH   1   9
ATOM      8  C   UNL     1      -5.463  -4.081 124.111  0.00  0.00    +0.000 C 
ATOM      9  C   UNL     1      -6.012  -2.570 124.075  0.00  0.00    +0.000 C 
ATOM     10  C   UNL     1      -5.991  -2.134 122.590  0.00  0.00    +0.000 C 
ENDBRANCH   1   9
BRANCH   1  11
ATOM     11  C   UNL     1      -8.644  -2.318 123.987  0.00  0.00    +0.000 C 
ATOM     12  N   UNL     1      -9.648  -2.637 123.294  0.00  0.00    +0.000 NA
ENDBRANCH   1  11
BRANCH   1  13
ATOM     13  C   UNL     1      -7.452  -0.354 124.950  0.00  0.00    +0.000 C 
BRANCH  13  14
ATOM     14  C   UNL     1      -8.167   0.487 123.813  0.00  0.00    +0.000 C 
ATOM     15  C   UNL     1      -7.221   1.503 123.294  0.00  0.00    +0.000 C 
BRANCH  14  16
ATOM     16  N   UNL     1      -9.270   1.300 124.390  0.00  0.00    +0.000 NA
ATOM     17  C   UNL     1      -9.745   0.797 125.693  0.00  0.00    +0.000 C 
ATOM     18  C   UNL     1      -8.865   2.687 124.477  0.00  0.00    +0.000 C 
ENDBRANCH  14  16
ENDBRANCH  13  14
ENDBRANCH   1  13
TORSDOF 6
ENDMDL
MODEL 3
REMARK VINA RESULT:      -5.9      2.014      2.800
REMARK  Name = Isoaminile
REMARK  11 active torsions:
REMARK  status: ('A' for Active; 'I' for Inactive)
REMARK    1  A    between atoms: C_1  and  C_2
REMARK    2  A    between atoms: C_2  and  C_3
REMARK    3  A    between atoms: C_2  and  C_4
REMARK    4  A    between atoms: C_4  and  C_5
REMARK    5  A    between atoms: C_4  and  C_11
REMARK    6  A    between atoms: C_4  and  C_13
REMARK    7  A    between atoms: C_5  and  C_6
REMARK    8  A    between atoms: C_6  and  C_7
REMARK    9  A    between atoms: C_6  and  N_8
REMARK   10  A    between atoms: N_8  and  C_9
REMARK   11  A    between atoms: N_8  and  C_10
REMARK                            x       y       z     vdW  Elec       q    Type
REMARK                         _______ _______ _______ _____ _____    ______ ____
ROOT
ATOM      1  C   UNL     1      -7.191  -1.417 125.124  0.00  0.00    +0.000 C 
ENDROOT
BRANCH   1   2
ATOM      2  C   UNL     1      -7.524  -2.285 126.369  0.00  0.00    +0.000 A 
ATOM      3  C   UNL     1      -8.589  -3.187 126.361  0.00  0.00    +0.000 A 
ATOM      4  C   UNL     1      -9.030  -3.802 127.531  0.00  0.00    +0.000 A 
ATOM      5  C   UNL     1      -8.366  -3.558 128.746  0.00  0.00    +0.000 A 
ATOM      6  C   UNL     1      -7.263  -2.742 128.761  0.00  0.00    +0.000 A 
ATOM      7  C   UNL     1      -6.804  -2.170 127.586  0.00  0.00    +0.000 A 
ENDBRANCH   1   2
BRANCH   1   9
ATOM      8  C   UNL     1      -6.199  -2.025 122.357  0.00  0.00    +0.000 C 
ATOM      9  C   UNL     1      -6.540  -2.423 123.877  0.00  0.00    +0.000 C 
ATOM     10  C   UNL     1      -5.292  -3.156 124.426  0.00  0.00    +0.000 C 
ENDBRANCH   1   9
BRANCH   1  11
ATOM     11  C   UNL     1      -8.490  -0.801 124.631  0.00  0.00    +0.000 C 
ATOM     12  N   UNL     1      -9.568  -0.291 124.222  0.00  0.00    +0.000 NA
ENDBRANCH   1  11
BRANCH   1  13
ATOM     13  C   UNL     1      -6.248  -0.215 125.547  0.00  0.00    +0.000 C 
BRANCH  13  14
ATOM     14  C   UNL     1      -6.906   1.203 125.808  0.00  0.00    +0.000 C 
ATOM     15  C   UNL     1      -5.977   2.260 125.341  0.00  0.00    +0.000 C 
BRANCH  14  16
ATOM     16  N   UNL     1      -7.017   1.458 127.269  0.00  0.00    +0.000 NA
ATOM     17  C   UNL     1      -6.442   2.753 127.681  0.00  0.00    +0.000 C 
ATOM     18  C   UNL     1      -8.398   1.339 127.685  0.00  0.00    +0.000 C 
ENDBRANCH  14  16
ENDBRANCH  13  14
ENDBRANCH   1  13
TORSDOF 6
ENDMDL
MODEL 4
REMARK VINA RESULT:      -5.7      2.170      4.385
REMARK  Name = Isoaminile
REMARK  11 active torsions:
REMARK  status: ('A' for Active; 'I' for Inactive)
REMARK    1  A    between atoms: C_1  and  C_2
REMARK    2  A    between atoms: C_2  and  C_3
REMARK    3  A    between atoms: C_2  and  C_4
REMARK    4  A    between atoms: C_4  and  C_5
REMARK    5  A    between atoms: C_4  and  C_11
REMARK    6  A    between atoms: C_4  and  C_13
REMARK    7  A    between atoms: C_5  and  C_6
REMARK    8  A    between atoms: C_6  and  C_7
REMARK    9  A    between atoms: C_6  and  N_8
REMARK   10  A    between atoms: N_8  and  C_9
REMARK   11  A    between atoms: N_8  and  C_10
REMARK                            x       y       z     vdW  Elec       q    Type
REMARK                         _______ _______ _______ _____ _____    ______ ____
ROOT
ATOM      1  C   UNL     1      -7.419  -1.435 126.600  0.00  0.00    +0.000 C 
ENDROOT
BRANCH   1   2
ATOM      2  C   UNL     1      -6.887  -1.902 125.216  0.00  0.00    +0.000 A 
ATOM      3  C   UNL     1      -5.665  -2.568 125.096  0.00  0.00    +0.000 A 
ATOM      4  C   UNL     1      -5.079  -2.793 123.852  0.00  0.00    +0.000 A 
ATOM      5  C   UNL     1      -5.744  -2.393 122.680  0.00  0.00    +0.000 A 
ATOM      6  C   UNL     1      -6.985  -1.815 122.771  0.00  0.00    +0.000 A 
ATOM      7  C   UNL     1      -7.581  -1.636 124.009  0.00  0.00    +0.000 A 
ENDBRANCH   1   2
BRANCH   1   9
ATOM      8  C   UNL     1      -8.173  -2.890 129.114  0.00  0.00    +0.000 C 
ATOM      9  C   UNL     1      -7.887  -2.812 127.534  0.00  0.00    +0.000 C 
ATOM     10  C   UNL     1      -9.087  -3.502 126.840  0.00  0.00    +0.000 C 
ENDBRANCH   1   9
BRANCH   1  11
ATOM     11  C   UNL     1      -6.282  -0.721 127.313  0.00  0.00    +0.000 C 
ATOM     12  N   UNL     1      -5.338  -0.129 127.904  0.00  0.00    +0.000 NA
ENDBRANCH   1  11
BRANCH   1  13
ATOM     13  C   UNL     1      -8.571  -0.366 126.395  0.00  0.00    +0.000 C 
BRANCH  13  14
ATOM     14  C   UNL     1      -8.213   1.170 126.555  0.00  0.00    +0.000 C 
ATOM     15  C   UNL     1      -8.609   1.620 127.910  0.00  0.00    +0.000 C 
BRANCH  14  16
ATOM     16  N   UNL     1      -9.059   1.993 125.652  0.00  0.00    +0.000 NA
ATOM     17  C   UNL     1      -8.292   2.989 124.880  0.00  0.00    +0.000 C 
ATOM     18  C   UNL     1      -9.831   1.133 124.782  0.00  0.00    +0.000 C 
ENDBRANCH  14  16
ENDBRANCH  13  14
ENDBRANCH   1  13
TORSDOF 6
ENDMDL
MODEL 5
REMARK VINA RESULT:      -5.5      2.068      2.862
REMARK  Name = Isoaminile
REMARK  11 active torsions:
REMARK  status: ('A' for Active; 'I' for Inactive)
REMARK    1  A    between atoms: C_1  and  C_2
REMARK    2  A    between atoms: C_2  and  C_3
REMARK    3  A    between atoms: C_2  and  C_4
REMARK    4  A    between atoms: C_4  and  C_5
REMARK    5  A    between atoms: C_4  and  C_11
REMARK    6  A    between atoms: C_4  and  C_13
REMARK    7  A    between atoms: C_5  and  C_6
REMARK    8  A    between atoms: C_6  and  C_7
REMARK    9  A    between atoms: C_6  and  N_8
REMARK   10  A    between atoms: N_8  and  C_9
REMARK   11  A    between atoms: N_8  and  C_10
REMARK                            x       y       z     vdW  Elec       q    Type
REMARK                         _______ _______ _______ _____ _____    ______ ____
ROOT
ATOM      1  C   UNL     1      -7.061  -1.513 125.505  0.00  0.00    +0.000 C 
ENDROOT
BRANCH   1   2
ATOM      2  C   UNL     1      -6.784  -2.004 126.953  0.00  0.00    +0.000 A 
ATOM      3  C   UNL     1      -5.490  -2.027 127.475  0.00  0.00    +0.000 A 
ATOM      4  C   UNL     1      -5.203  -2.666 128.680  0.00  0.00    +0.000 A 
ATOM      5  C   UNL     1      -6.238  -3.261 129.423  0.00  0.00    +0.000 A 
ATOM      6  C   UNL     1      -7.530  -3.174 128.970  0.00  0.00    +0.000 A 
ATOM      7  C   UNL     1      -7.813  -2.498 127.795  0.00  0.00    +0.000 A 
ENDBRANCH   1   2
BRANCH   1   9
ATOM      8  C   UNL     1      -5.469  -3.622 124.082  0.00  0.00    +0.000 C 
ATOM      9  C   UNL     1      -6.826  -2.819 124.397  0.00  0.00    +0.000 C 
ATOM     10  C   UNL     1      -7.916  -3.890 124.647  0.00  0.00    +0.000 C 
ENDBRANCH   1   9
BRANCH   1  11
ATOM     11  C   UNL     1      -8.513  -1.069 125.440  0.00  0.00    +0.000 C 
ATOM     12  N   UNL     1      -9.718  -0.700 125.385  0.00  0.00    +0.000 NA
ENDBRANCH   1  11
BRANCH   1  13
ATOM     13  C   UNL     1      -6.179  -0.233 125.197  0.00  0.00    +0.000 C 
BRANCH  13  14
ATOM     14  C   UNL     1      -6.898   1.177 125.112  0.00  0.00    +0.000 C 
ATOM     15  C   UNL     1      -6.944   1.612 123.696  0.00  0.00    +0.000 C 
BRANCH  14  16
ATOM     16  N   UNL     1      -6.067   2.220 125.769  0.00  0.00    +0.000 NA
ATOM     17  C   UNL     1      -4.835   1.684 126.382  0.00  0.00    +0.000 C 
ATOM     18  C   UNL     1      -5.769   3.277 124.829  0.00  0.00    +0.000 C 
ENDBRANCH  14  16
ENDBRANCH  13  14
ENDBRANCH   1  13
TORSDOF 6
ENDMDL
MODEL 6
REMARK VINA RESULT:      -5.5      7.936      9.561
REMARK  Name = Isoaminile
REMARK  11 active torsions:
REMARK  status: ('A' for Active; 'I' for Inactive)
REMARK    1  A    between atoms: C_1  and  C_2
REMARK    2  A    between atoms: C_2  and  C_3
REMARK    3  A    between atoms: C_2  and  C_4
REMARK    4  A    between atoms: C_4  and  C_5
REMARK    5  A    between atoms: C_4  and  C_11
REMARK    6  A    between atoms: C_4  and  C_13
REMARK    7  A    between atoms: C_5  and  C_6
REMARK    8  A    between atoms: C_6  and  C_7
REMARK    9  A    between atoms: C_6  and  N_8
REMARK   10  A    between atoms: N_8  and  C_9
REMARK   11  A    between atoms: N_8  and  C_10
REMARK                            x       y       z     vdW  Elec       q    Type
REMARK                         _______ _______ _______ _____ _____    ______ ____
ROOT
ATOM      1  C   UNL     1      -9.039   5.539 130.859  0.00  0.00    +0.000 C 
ENDROOT
BRANCH   1   2
ATOM      2  C   UNL     1     -10.264   6.490 130.761  0.00  0.00    +0.000 A 
ATOM      3  C   UNL     1     -11.328   6.399 131.660  0.00  0.00    +0.000 A 
ATOM      4  C   UNL     1     -12.519   7.091 131.450  0.00  0.00    +0.000 A 
ATOM      5  C   UNL     1     -12.650   7.943 130.340  0.00  0.00    +0.000 A 
ATOM      6  C   UNL     1     -11.585   8.114 129.491  0.00  0.00    +0.000 A 
ATOM      7  C   UNL     1     -10.390   7.458 129.732  0.00  0.00    +0.000 A 
ENDBRANCH   1   2
BRANCH   1   9
ATOM      8  C   UNL     1      -6.923   5.542 132.987  0.00  0.00    +0.000 C 
ATOM      9  C   UNL     1      -7.832   6.254 131.869  0.00  0.00    +0.000 C 
ATOM     10  C   UNL     1      -6.867   7.081 130.985  0.00  0.00    +0.000 C 
ENDBRANCH   1   9
BRANCH   1  11
ATOM     11  C   UNL     1      -9.513   4.245 131.501  0.00  0.00    +0.000 C 
ATOM     12  N   UNL     1      -9.906   3.171 132.034  0.00  0.00    +0.000 NA
ENDBRANCH   1  11
BRANCH   1  13
ATOM     13  C   UNL     1      -8.534   5.167 129.404  0.00  0.00    +0.000 C 
BRANCH  13  14
ATOM     14  C   UNL     1      -7.856   3.752 129.179  0.00  0.00    +0.000 C 
ATOM     15  C   UNL     1      -6.413   3.946 128.901  0.00  0.00    +0.000 C 
BRANCH  14  16
ATOM     16  N   UNL     1      -8.370   3.128 127.931  0.00  0.00    +0.000 NA
ATOM     17  C   UNL     1      -7.657   3.575 126.719  0.00  0.00    +0.000 C 
ATOM     18  C   UNL     1      -8.344   1.687 128.056  0.00  0.00    +0.000 C 
ENDBRANCH  14  16
ENDBRANCH  13  14
ENDBRANCH   1  13
TORSDOF 6
ENDMDL
MODEL 7
REMARK VINA RESULT:      -5.5      1.878      5.573
REMARK  Name = Isoaminile
REMARK  11 active torsions:
REMARK  status: ('A' for Active; 'I' for Inactive)
REMARK    1  A    between atoms: C_1  and  C_2
REMARK    2  A    between atoms: C_2  and  C_3
REMARK    3  A    between atoms: C_2  and  C_4
REMARK    4  A    between atoms: C_4  and  C_5
REMARK    5  A    between atoms: C_4  and  C_11
REMARK    6  A    between atoms: C_4  and  C_13
REMARK    7  A    between atoms: C_5  and  C_6
REMARK    8  A    between atoms: C_6  and  C_7
REMARK    9  A    between atoms: C_6  and  N_8
REMARK   10  A    between atoms: N_8  and  C_9
REMARK   11  A    between atoms: N_8  and  C_10
REMARK                            x       y       z     vdW  Elec       q    Type
REMARK                         _______ _______ _______ _____ _____    ______ ____
ROOT
ATOM      1  C   UNL     1      -6.973  -0.661 124.401  0.00  0.00    +0.000 C 
ENDROOT
BRANCH   1   2
ATOM      2  C   UNL     1      -7.543   0.573 123.648  0.00  0.00    +0.000 A 
ATOM      3  C   UNL     1      -6.716   1.623 123.245  0.00  0.00    +0.000 A 
ATOM      4  C   UNL     1      -7.243   2.822 122.770  0.00  0.00    +0.000 A 
ATOM      5  C   UNL     1      -8.635   2.976 122.642  0.00  0.00    +0.000 A 
ATOM      6  C   UNL     1      -9.462   1.926 122.951  0.00  0.00    +0.000 A 
ATOM      7  C   UNL     1      -8.928   0.721 123.378  0.00  0.00    +0.000 A 
ENDBRANCH   1   2
BRANCH   1   9
ATOM      8  C   UNL     1      -5.160  -2.912 123.593  0.00  0.00    +0.000 C 
ATOM      9  C   UNL     1      -6.172  -1.703 123.278  0.00  0.00    +0.000 C 
ATOM     10  C   UNL     1      -7.215  -2.258 122.277  0.00  0.00    +0.000 C 
ENDBRANCH   1   9
BRANCH   1  11
ATOM     11  C   UNL     1      -5.957  -0.154 125.411  0.00  0.00    +0.000 C 
ATOM     12  N   UNL     1      -5.115   0.267 126.250  0.00  0.00    +0.000 NA
ENDBRANCH   1  11
BRANCH   1  13
ATOM     13  C   UNL     1      -8.128  -1.363 125.228  0.00  0.00    +0.000 C 
BRANCH  13  14
ATOM     14  C   UNL     1      -7.776  -2.663 126.063  0.00  0.00    +0.000 C 
ATOM     15  C   UNL     1      -8.431  -3.834 125.434  0.00  0.00    +0.000 C 
BRANCH  14  16
ATOM     16  N   UNL     1      -8.402  -2.595 127.410  0.00  0.00    +0.000 NA
ATOM     17  C   UNL     1      -8.889  -3.902 127.893  0.00  0.00    +0.000 C 
ATOM     18  C   UNL     1      -7.482  -1.995 128.351  0.00  0.00    +0.000 C 
ENDBRANCH  14  16
ENDBRANCH  13  14
ENDBRANCH   1  13
TORSDOF 6
ENDMDL
MODEL 8
REMARK VINA RESULT:      -5.4      2.257      5.582
REMARK  Name = Isoaminile
REMARK  11 active torsions:
REMARK  status: ('A' for Active; 'I' for Inactive)
REMARK    1  A    between atoms: C_1  and  C_2
REMARK    2  A    between atoms: C_2  and  C_3
REMARK    3  A    between atoms: C_2  and  C_4
REMARK    4  A    between atoms: C_4  and  C_5
REMARK    5  A    between atoms: C_4  and  C_11
REMARK    6  A    between atoms: C_4  and  C_13
REMARK    7  A    between atoms: C_5  and  C_6
REMARK    8  A    between atoms: C_6  and  C_7
REMARK    9  A    between atoms: C_6  and  N_8
REMARK   10  A    between atoms: N_8  and  C_9
REMARK   11  A    between atoms: N_8  and  C_10
REMARK                            x       y       z     vdW  Elec       q    Type
REMARK                         _______ _______ _______ _____ _____    ______ ____
ROOT
ATOM      1  C   UNL     1      -7.978  -1.596 125.461  0.00  0.00    +0.000 C 
ENDROOT
BRANCH   1   2
ATOM      2  C   UNL     1      -8.321  -0.205 124.858  0.00  0.00    +0.000 A 
ATOM      3  C   UNL     1      -9.497   0.464 125.201  0.00  0.00    +0.000 A 
ATOM      4  C   UNL     1      -9.919   1.596 124.506  0.00  0.00    +0.000 A 
ATOM      5  C   UNL     1      -9.127   2.118 123.468  0.00  0.00    +0.000 A 
ATOM      6  C   UNL     1      -7.925   1.526 123.172  0.00  0.00    +0.000 A 
ATOM      7  C   UNL     1      -7.492   0.429 123.897  0.00  0.00    +0.000 A 
ENDBRANCH   1   2
BRANCH   1   9
ATOM      8  C   UNL     1      -9.415  -2.796 123.116  0.00  0.00    +0.000 C 
ATOM      9  C   UNL     1      -8.866  -2.822 124.627  0.00  0.00    +0.000 C 
ATOM     10  C   UNL     1      -8.135  -4.176 124.801  0.00  0.00    +0.000 C 
ENDBRANCH   1   9
BRANCH   1  11
ATOM     11  C   UNL     1      -6.492  -1.835 125.250  0.00  0.00    +0.000 C 
ATOM     12  N   UNL     1      -5.259  -2.033 125.076  0.00  0.00    +0.000 NA
ENDBRANCH   1  11
BRANCH   1  13
ATOM     13  C   UNL     1      -8.218  -1.571 127.028  0.00  0.00    +0.000 C 
BRANCH  13  14
ATOM     14  C   UNL     1      -7.465  -2.640 127.924  0.00  0.00    +0.000 C 
ATOM     15  C   UNL     1      -8.465  -3.537 128.550  0.00  0.00    +0.000 C 
BRANCH  14  16
ATOM     16  N   UNL     1      -6.818  -1.975 129.085  0.00  0.00    +0.000 NA
ATOM     17  C   UNL     1      -7.784  -1.388 130.034  0.00  0.00    +0.000 C 
ATOM     18  C   UNL     1      -5.925  -2.900 129.747  0.00  0.00    +0.000 C 
ENDBRANCH  14  16
ENDBRANCH  13  14
ENDBRANCH   1  13
TORSDOF 6
ENDMDL
MODEL 9
REMARK VINA RESULT:      -5.4      3.951      6.707
REMARK  Name = Isoaminile
REMARK  11 active torsions:
REMARK  status: ('A' for Active; 'I' for Inactive)
REMARK    1  A    between atoms: C_1  and  C_2
REMARK    2  A    between atoms: C_2  and  C_3
REMARK    3  A    between atoms: C_2  and  C_4
REMARK    4  A    between atoms: C_4  and  C_5
REMARK    5  A    between atoms: C_4  and  C_11
REMARK    6  A    between atoms: C_4  and  C_13
REMARK    7  A    between atoms: C_5  and  C_6
REMARK    8  A    between atoms: C_6  and  C_7
REMARK    9  A    between atoms: C_6  and  N_8
REMARK   10  A    between atoms: N_8  and  C_9
REMARK   11  A    between atoms: N_8  and  C_10
REMARK                            x       y       z     vdW  Elec       q    Type
REMARK                         _______ _______ _______ _____ _____    ______ ____
ROOT
ATOM      1  C   UNL     1      -6.579  -2.049 130.042  0.00  0.00    +0.000 C 
ENDROOT
BRANCH   1   2
ATOM      2  C   UNL     1      -7.506  -2.467 128.866  0.00  0.00    +0.000 A 
ATOM      3  C   UNL     1      -8.491  -3.442 129.032  0.00  0.00    +0.000 A 
ATOM      4  C   UNL     1      -9.173  -3.978 127.941  0.00  0.00    +0.000 A 
ATOM      5  C   UNL     1      -8.911  -3.501 126.645  0.00  0.00    +0.000 A 
ATOM      6  C   UNL     1      -8.010  -2.482 126.470  0.00  0.00    +0.000 A 
ATOM      7  C   UNL     1      -7.369  -1.923 127.564  0.00  0.00    +0.000 A 
ENDBRANCH   1   2
BRANCH   1   9
ATOM      8  C   UNL     1      -5.537  -4.798 130.645  0.00  0.00    +0.000 C 
ATOM      9  C   UNL     1      -5.352  -3.247 130.264  0.00  0.00    +0.000 C 
ATOM     10  C   UNL     1      -4.390  -3.208 129.051  0.00  0.00    +0.000 C 
ENDBRANCH   1   9
BRANCH   1  11
ATOM     11  C   UNL     1      -5.918  -0.734 129.661  0.00  0.00    +0.000 C 
ATOM     12  N   UNL     1      -5.370   0.357 129.345  0.00  0.00    +0.000 NA
ENDBRANCH   1  11
BRANCH   1  13
ATOM     13  C   UNL     1      -7.451  -1.764 131.334  0.00  0.00    +0.000 C 
BRANCH  13  14
ATOM     14  C   UNL     1      -6.890  -0.750 132.415  0.00  0.00    +0.000 C 
ATOM     15  C   UNL     1      -6.710  -1.464 133.701  0.00  0.00    +0.000 C 
BRANCH  14  16
ATOM     16  N   UNL     1      -7.910   0.284 132.730  0.00  0.00    +0.000 NA
ATOM     17  C   UNL     1      -7.333   1.621 132.966  0.00  0.00    +0.000 C 
ATOM     18  C   UNL     1      -8.912   0.320 131.687  0.00  0.00    +0.000 C 
ENDBRANCH  14  16
ENDBRANCH  13  14
ENDBRANCH   1  13
TORSDOF 6
ENDMDL
