MODEL 1
REMARK VINA RESULT:      -7.7      0.000      0.000
REMARK  Name = Isoconazole
REMARK  6 active torsions:
REMARK  status: ('A' for Active; 'I' for Inactive)
REMARK    1  A    between atoms: C_6  and  C_9
REMARK    2  A    between atoms: C_9  and  C_10
REMARK    3  A    between atoms: C_9  and  O_16
REMARK    4  A    between atoms: C_10  and  N_11
REMARK    5  A    between atoms: O_16  and  C_17
REMARK    6  A    between atoms: C_17  and  C_18
REMARK                            x       y       z     vdW  Elec       q    Type
REMARK                         _______ _______ _______ _____ _____    ______ ____
ROOT
ATOM      1  C   UNL     1      -6.303   2.646 123.524  0.00  0.00    +0.000 C 
ENDROOT
BRANCH   1   7
ATOM      2 CL   UNL     1      -5.823   5.486 118.194  0.00  0.00    +0.000 Cl
ATOM      3  C   UNL     1      -6.015   4.789 119.753  0.00  0.00    +0.000 A 
ATOM      4  C   UNL     1      -7.154   4.057 120.056  0.00  0.00    +0.000 A 
ATOM      5  C   UNL     1      -7.345   3.576 121.357  0.00  0.00    +0.000 A 
ATOM      6 CL   UNL     1      -8.952   3.123 121.806  0.00  0.00    +0.000 Cl
ATOM      7  C   UNL     1      -6.288   3.546 122.276  0.00  0.00    +0.000 A 
ATOM      8  C   UNL     1      -5.173   4.335 121.949  0.00  0.00    +0.000 A 
ATOM      9  C   UNL     1      -5.058   5.003 120.729  0.00  0.00    +0.000 A 
ENDBRANCH   1   7
BRANCH   1  10
ATOM     10  C   UNL     1      -7.086   3.265 124.727  0.00  0.00    +0.000 C 
BRANCH  10  11
ATOM     11  N   UNL     1      -6.307   3.756 125.842  0.00  0.00    +0.000 N 
ATOM     12  C   UNL     1      -6.265   3.231 127.102  0.00  0.00    +0.000 A 
ATOM     13  C   UNL     1      -5.678   4.227 127.858  0.00  0.00    +0.000 A 
ATOM     14  N   UNL     1      -5.153   5.199 127.054  0.00  0.00    +0.000 NA
ATOM     15  C   UNL     1      -5.506   4.862 125.824  0.00  0.00    +0.000 A 
ENDBRANCH  10  11
ENDBRANCH   1  10
BRANCH   1  16
ATOM     16  O   UNL     1      -6.944   1.406 123.152  0.00  0.00    +0.000 OA
BRANCH  16  17
ATOM     17  C   UNL     1      -7.857   0.860 124.093  0.00  0.00    +0.000 C 
BRANCH  17  18
ATOM     18  C   UNL     1      -7.913  -0.656 124.099  0.00  0.00    +0.000 A 
ATOM     19  C   UNL     1      -7.021  -1.512 124.772  0.00  0.00    +0.000 A 
ATOM     20 CL   UNL     1      -5.683  -1.031 125.736  0.00  0.00    +0.000 Cl
ATOM     21  C   UNL     1      -7.149  -2.903 124.704  0.00  0.00    +0.000 A 
ATOM     22  C   UNL     1      -8.161  -3.487 123.961  0.00  0.00    +0.000 A 
ATOM     23  C   UNL     1      -9.050  -2.675 123.273  0.00  0.00    +0.000 A 
ATOM     24  C   UNL     1      -8.930  -1.281 123.339  0.00  0.00    +0.000 A 
ATOM     25 CL   UNL     1     -10.088  -0.365 122.426  0.00  0.00    +0.000 Cl
ENDBRANCH  17  18
ENDBRANCH  16  17
ENDBRANCH   1  16
TORSDOF 6
ENDMDL
MODEL 2
REMARK VINA RESULT:      -7.6      2.581      4.627
REMARK  Name = Isoconazole
REMARK  6 active torsions:
REMARK  status: ('A' for Active; 'I' for Inactive)
REMARK    1  A    between atoms: C_6  and  C_9
REMARK    2  A    between atoms: C_9  and  C_10
REMARK    3  A    between atoms: C_9  and  O_16
REMARK    4  A    between atoms: C_10  and  N_11
REMARK    5  A    between atoms: O_16  and  C_17
REMARK    6  A    between atoms: C_17  and  C_18
REMARK                            x       y       z     vdW  Elec       q    Type
REMARK                         _______ _______ _______ _____ _____    ______ ____
ROOT
ATOM      1  C   UNL     1      -7.364   2.168 125.006  0.00  0.00    +0.000 C 
ENDROOT
BRANCH   1   7
ATOM      2 CL   UNL     1      -1.739   3.238 126.984  0.00  0.00    +0.000 Cl
ATOM      3  C   UNL     1      -3.378   2.992 126.532  0.00  0.00    +0.000 A 
ATOM      4  C   UNL     1      -4.037   3.933 125.754  0.00  0.00    +0.000 A 
ATOM      5  C   UNL     1      -5.399   3.770 125.474  0.00  0.00    +0.000 A 
ATOM      6 CL   UNL     1      -6.273   5.167 124.950  0.00  0.00    +0.000 Cl
ATOM      7  C   UNL     1      -6.038   2.542 125.691  0.00  0.00    +0.000 A 
ATOM      8  C   UNL     1      -5.353   1.637 126.519  0.00  0.00    +0.000 A 
ATOM      9  C   UNL     1      -4.061   1.880 126.990  0.00  0.00    +0.000 A 
ENDBRANCH   1   7
BRANCH   1  10
ATOM     10  C   UNL     1      -7.189   1.706 123.523  0.00  0.00    +0.000 C 
BRANCH  10  11
ATOM     11  N   UNL     1      -7.522   2.659 122.488  0.00  0.00    +0.000 N 
ATOM     12  C   UNL     1      -8.775   3.009 122.073  0.00  0.00    +0.000 A 
ATOM     13  C   UNL     1      -8.559   3.658 120.874  0.00  0.00    +0.000 A 
ATOM     14  N   UNL     1      -7.230   3.921 120.698  0.00  0.00    +0.000 NA
ATOM     15  C   UNL     1      -6.623   3.345 121.723  0.00  0.00    +0.000 A 
ENDBRANCH  10  11
ENDBRANCH   1  10
BRANCH   1  16
ATOM     16  O   UNL     1      -7.944   1.080 125.758  0.00  0.00    +0.000 OA
BRANCH  16  17
ATOM     17  C   UNL     1      -9.069   0.438 125.175  0.00  0.00    +0.000 C 
BRANCH  17  18
ATOM     18  C   UNL     1      -8.895  -1.054 124.966  0.00  0.00    +0.000 A 
ATOM     19  C   UNL     1      -8.413  -1.971 125.919  0.00  0.00    +0.000 A 
ATOM     20 CL   UNL     1      -7.925  -1.604 127.524  0.00  0.00    +0.000 Cl
ATOM     21  C   UNL     1      -8.276  -3.331 125.623  0.00  0.00    +0.000 A 
ATOM     22  C   UNL     1      -8.606  -3.822 124.371  0.00  0.00    +0.000 A 
ATOM     23  C   UNL     1      -9.071  -2.945 123.402  0.00  0.00    +0.000 A 
ATOM     24  C   UNL     1      -9.214  -1.582 123.692  0.00  0.00    +0.000 A 
ATOM     25 CL   UNL     1      -9.789  -0.577 122.400  0.00  0.00    +0.000 Cl
ENDBRANCH  17  18
ENDBRANCH  16  17
ENDBRANCH   1  16
TORSDOF 6
ENDMDL
MODEL 3
REMARK VINA RESULT:      -7.5      0.569      1.995
REMARK  Name = Isoconazole
REMARK  6 active torsions:
REMARK  status: ('A' for Active; 'I' for Inactive)
REMARK    1  A    between atoms: C_6  and  C_9
REMARK    2  A    between atoms: C_9  and  C_10
REMARK    3  A    between atoms: C_9  and  O_16
REMARK    4  A    between atoms: C_10  and  N_11
REMARK    5  A    between atoms: O_16  and  C_17
REMARK    6  A    between atoms: C_17  and  C_18
REMARK                            x       y       z     vdW  Elec       q    Type
REMARK                         _______ _______ _______ _____ _____    ______ ____
ROOT
ATOM      1  C   UNL     1      -6.339   2.657 123.947  0.00  0.00    +0.000 C 
ENDROOT
BRANCH   1   7
ATOM      2 CL   UNL     1      -5.644   5.280 118.531  0.00  0.00    +0.000 Cl
ATOM      3  C   UNL     1      -5.902   4.644 120.106  0.00  0.00    +0.000 A 
ATOM      4  C   UNL     1      -7.038   3.897 120.382  0.00  0.00    +0.000 A 
ATOM      5  C   UNL     1      -7.286   3.468 121.691  0.00  0.00    +0.000 A 
ATOM      6 CL   UNL     1      -8.903   2.993 122.076  0.00  0.00    +0.000 Cl
ATOM      7  C   UNL     1      -6.278   3.503 122.664  0.00  0.00    +0.000 A 
ATOM      8  C   UNL     1      -5.166   4.306 122.360  0.00  0.00    +0.000 A 
ATOM      9  C   UNL     1      -5.002   4.924 121.120  0.00  0.00    +0.000 A 
ENDBRANCH   1   7
BRANCH   1  10
ATOM     10  C   UNL     1      -7.189   3.311 125.084  0.00  0.00    +0.000 C 
BRANCH  10  11
ATOM     11  N   UNL     1      -6.473   3.984 126.145  0.00  0.00    +0.000 N 
ATOM     12  C   UNL     1      -5.241   4.566 126.056  0.00  0.00    +0.000 A 
ATOM     13  C   UNL     1      -4.865   4.749 127.372  0.00  0.00    +0.000 A 
ATOM     14  N   UNL     1      -5.921   4.533 128.212  0.00  0.00    +0.000 NA
ATOM     15  C   UNL     1      -6.906   4.117 127.433  0.00  0.00    +0.000 A 
ENDBRANCH  10  11
ENDBRANCH   1  10
BRANCH   1  16
ATOM     16  O   UNL     1      -6.939   1.390 123.599  0.00  0.00    +0.000 OA
BRANCH  16  17
ATOM     17  C   UNL     1      -7.682   0.741 124.621  0.00  0.00    +0.000 C 
BRANCH  17  18
ATOM     18  C   UNL     1      -7.944  -0.730 124.361  0.00  0.00    +0.000 A 
ATOM     19  C   UNL     1      -8.901  -1.253 123.470  0.00  0.00    +0.000 A 
ATOM     20 CL   UNL     1      -9.972  -0.345 122.482  0.00  0.00    +0.000 Cl
ATOM     21  C   UNL     1      -9.077  -2.632 123.312  0.00  0.00    +0.000 A 
ATOM     22  C   UNL     1      -8.315  -3.533 124.035  0.00  0.00    +0.000 A 
ATOM     23  C   UNL     1      -7.372  -3.053 124.933  0.00  0.00    +0.000 A 
ATOM     24  C   UNL     1      -7.188  -1.674 125.095  0.00  0.00    +0.000 A 
ATOM     25 CL   UNL     1      -5.992  -1.189 126.255  0.00  0.00    +0.000 Cl
ENDBRANCH  17  18
ENDBRANCH  16  17
ENDBRANCH   1  16
TORSDOF 6
ENDMDL
MODEL 4
REMARK VINA RESULT:      -7.3      3.850      5.762
REMARK  Name = Isoconazole
REMARK  6 active torsions:
REMARK  status: ('A' for Active; 'I' for Inactive)
REMARK    1  A    between atoms: C_6  and  C_9
REMARK    2  A    between atoms: C_9  and  C_10
REMARK    3  A    between atoms: C_9  and  O_16
REMARK    4  A    between atoms: C_10  and  N_11
REMARK    5  A    between atoms: O_16  and  C_17
REMARK    6  A    between atoms: C_17  and  C_18
REMARK                            x       y       z     vdW  Elec       q    Type
REMARK                         _______ _______ _______ _____ _____    ______ ____
ROOT
ATOM      1  C   UNL     1      -6.037   0.721 126.191  0.00  0.00    +0.000 C 
ENDROOT
BRANCH   1   7
ATOM      2 CL   UNL     1      -2.775   4.669 129.427  0.00  0.00    +0.000 Cl
ATOM      3  C   UNL     1      -3.596   3.471 128.510  0.00  0.00    +0.000 A 
ATOM      4  C   UNL     1      -4.349   2.495 129.148  0.00  0.00    +0.000 A 
ATOM      5  C   UNL     1      -4.933   1.467 128.398  0.00  0.00    +0.000 A 
ATOM      6 CL   UNL     1      -5.419   0.043 129.249  0.00  0.00    +0.000 Cl
ATOM      7  C   UNL     1      -5.039   1.564 127.004  0.00  0.00    +0.000 A 
ATOM      8  C   UNL     1      -4.228   2.537 126.397  0.00  0.00    +0.000 A 
ATOM      9  C   UNL     1      -3.463   3.443 127.133  0.00  0.00    +0.000 A 
ENDBRANCH   1   7
BRANCH   1  10
ATOM     10  C   UNL     1      -6.724   1.515 125.033  0.00  0.00    +0.000 C 
BRANCH  10  11
ATOM     11  N   UNL     1      -8.044   1.087 124.626  0.00  0.00    +0.000 N 
ATOM     12  C   UNL     1      -8.472   0.865 123.348  0.00  0.00    +0.000 A 
ATOM     13  C   UNL     1      -9.847   0.820 123.461  0.00  0.00    +0.000 A 
ATOM     14  N   UNL     1     -10.223   0.755 124.774  0.00  0.00    +0.000 NA
ATOM     15  C   UNL     1      -9.100   0.868 125.463  0.00  0.00    +0.000 A 
ENDBRANCH  10  11
ENDBRANCH   1  10
BRANCH   1  16
ATOM     16  O   UNL     1      -5.302  -0.380 125.616  0.00  0.00    +0.000 OA
BRANCH  16  17
ATOM     17  C   UNL     1      -5.679  -1.682 126.042  0.00  0.00    +0.000 C 
BRANCH  17  18
ATOM     18  C   UNL     1      -6.943  -2.208 125.390  0.00  0.00    +0.000 A 
ATOM     19  C   UNL     1      -7.133  -2.422 124.011  0.00  0.00    +0.000 A 
ATOM     20 CL   UNL     1      -5.979  -2.142 122.771  0.00  0.00    +0.000 Cl
ATOM     21  C   UNL     1      -8.348  -2.899 123.505  0.00  0.00    +0.000 A 
ATOM     22  C   UNL     1      -9.410  -3.172 124.349  0.00  0.00    +0.000 A 
ATOM     23  C   UNL     1      -9.263  -2.960 125.712  0.00  0.00    +0.000 A 
ATOM     24  C   UNL     1      -8.050  -2.485 126.227  0.00  0.00    +0.000 A 
ATOM     25 CL   UNL     1      -7.985  -2.243 127.944  0.00  0.00    +0.000 Cl
ENDBRANCH  17  18
ENDBRANCH  16  17
ENDBRANCH   1  16
TORSDOF 6
ENDMDL
MODEL 5
REMARK VINA RESULT:      -7.2      3.984      6.436
REMARK  Name = Isoconazole
REMARK  6 active torsions:
REMARK  status: ('A' for Active; 'I' for Inactive)
REMARK    1  A    between atoms: C_6  and  C_9
REMARK    2  A    between atoms: C_9  and  C_10
REMARK    3  A    between atoms: C_9  and  O_16
REMARK    4  A    between atoms: C_10  and  N_11
REMARK    5  A    between atoms: O_16  and  C_17
REMARK    6  A    between atoms: C_17  and  C_18
REMARK                            x       y       z     vdW  Elec       q    Type
REMARK                         _______ _______ _______ _____ _____    ______ ____
ROOT
ATOM      1  C   UNL     1      -7.842  -0.363 125.445  0.00  0.00    +0.000 C 
ENDROOT
BRANCH   1   7
ATOM      2 CL   UNL     1      -4.543  -5.107 123.627  0.00  0.00    +0.000 Cl
ATOM      3  C   UNL     1      -5.520  -3.750 124.020  0.00  0.00    +0.000 A 
ATOM      4  C   UNL     1      -6.825  -3.930 124.453  0.00  0.00    +0.000 A 
ATOM      5  C   UNL     1      -7.643  -2.816 124.676  0.00  0.00    +0.000 A 
ATOM      6 CL   UNL     1      -9.351  -3.083 124.725  0.00  0.00    +0.000 Cl
ATOM      7  C   UNL     1      -7.097  -1.529 124.773  0.00  0.00    +0.000 A 
ATOM      8  C   UNL     1      -5.788  -1.384 124.283  0.00  0.00    +0.000 A 
ATOM      9  C   UNL     1      -5.024  -2.469 123.850  0.00  0.00    +0.000 A 
ENDBRANCH   1   7
BRANCH   1  10
ATOM     10  C   UNL     1      -8.947   0.273 124.540  0.00  0.00    +0.000 C 
BRANCH  10  11
ATOM     11  N   UNL     1      -8.549   1.359 123.671  0.00  0.00    +0.000 N 
ATOM     12  C   UNL     1      -7.319   1.948 123.613  0.00  0.00    +0.000 A 
ATOM     13  C   UNL     1      -7.542   3.115 122.911  0.00  0.00    +0.000 A 
ATOM     14  N   UNL     1      -8.786   3.108 122.344  0.00  0.00    +0.000 NA
ATOM     15  C   UNL     1      -9.362   2.001 122.782  0.00  0.00    +0.000 A 
ENDBRANCH  10  11
ENDBRANCH   1  10
BRANCH   1  16
ATOM     16  O   UNL     1      -8.472  -0.885 126.636  0.00  0.00    +0.000 OA
BRANCH  16  17
ATOM     17  C   UNL     1      -7.908  -0.483 127.876  0.00  0.00    +0.000 C 
BRANCH  17  18
ATOM     18  C   UNL     1      -6.946  -1.490 128.477  0.00  0.00    +0.000 A 
ATOM     19  C   UNL     1      -7.260  -2.812 128.847  0.00  0.00    +0.000 A 
ATOM     20 CL   UNL     1      -8.791  -3.575 128.692  0.00  0.00    +0.000 Cl
ATOM     21  C   UNL     1      -6.301  -3.661 129.409  0.00  0.00    +0.000 A 
ATOM     22  C   UNL     1      -5.006  -3.225 129.629  0.00  0.00    +0.000 A 
ATOM     23  C   UNL     1      -4.665  -1.923 129.290  0.00  0.00    +0.000 A 
ATOM     24  C   UNL     1      -5.618  -1.068 128.723  0.00  0.00    +0.000 A 
ATOM     25 CL   UNL     1      -5.084   0.542 128.353  0.00  0.00    +0.000 Cl
ENDBRANCH  17  18
ENDBRANCH  16  17
ENDBRANCH   1  16
TORSDOF 6
ENDMDL
MODEL 6
REMARK VINA RESULT:      -7.2      4.466      7.419
REMARK  Name = Isoconazole
REMARK  6 active torsions:
REMARK  status: ('A' for Active; 'I' for Inactive)
REMARK    1  A    between atoms: C_6  and  C_9
REMARK    2  A    between atoms: C_9  and  C_10
REMARK    3  A    between atoms: C_9  and  O_16
REMARK    4  A    between atoms: C_10  and  N_11
REMARK    5  A    between atoms: O_16  and  C_17
REMARK    6  A    between atoms: C_17  and  C_18
REMARK                            x       y       z     vdW  Elec       q    Type
REMARK                         _______ _______ _______ _____ _____    ______ ____
ROOT
ATOM      1  C   UNL     1      -6.136  -0.782 127.724  0.00  0.00    +0.000 C 
ENDROOT
BRANCH   1   7
ATOM      2 CL   UNL     1      -5.233  -5.374 131.570  0.00  0.00    +0.000 Cl
ATOM      3  C   UNL     1      -5.478  -4.157 130.382  0.00  0.00    +0.000 A 
ATOM      4  C   UNL     1      -6.761  -3.838 129.962  0.00  0.00    +0.000 A 
ATOM      5  C   UNL     1      -6.942  -2.916 128.924  0.00  0.00    +0.000 A 
ATOM      6 CL   UNL     1      -8.470  -2.925 128.115  0.00  0.00    +0.000 Cl
ATOM      7  C   UNL     1      -5.895  -2.082 128.510  0.00  0.00    +0.000 A 
ATOM      8  C   UNL     1      -4.609  -2.467 128.924  0.00  0.00    +0.000 A 
ATOM      9  C   UNL     1      -4.389  -3.531 129.800  0.00  0.00    +0.000 A 
ENDBRANCH   1   7
BRANCH   1  10
ATOM     10  C   UNL     1      -5.831   0.510 128.549  0.00  0.00    +0.000 C 
BRANCH  10  11
ATOM     11  N   UNL     1      -6.893   1.484 128.674  0.00  0.00    +0.000 N 
ATOM     12  C   UNL     1      -7.672   1.704 129.774  0.00  0.00    +0.000 A 
ATOM     13  C   UNL     1      -8.724   2.456 129.290  0.00  0.00    +0.000 A 
ATOM     14  N   UNL     1      -8.464   2.893 128.022  0.00  0.00    +0.000 NA
ATOM     15  C   UNL     1      -7.316   2.327 127.688  0.00  0.00    +0.000 A 
ENDBRANCH  10  11
ENDBRANCH   1  10
BRANCH   1  16
ATOM     16  O   UNL     1      -5.263  -0.807 126.574  0.00  0.00    +0.000 OA
BRANCH  16  17
ATOM     17  C   UNL     1      -5.875  -0.588 125.311  0.00  0.00    +0.000 C 
BRANCH  17  18
ATOM     18  C   UNL     1      -6.987  -1.565 124.980  0.00  0.00    +0.000 A 
ATOM     19  C   UNL     1      -8.368  -1.295 125.037  0.00  0.00    +0.000 A 
ATOM     20 CL   UNL     1      -9.094   0.195 125.486  0.00  0.00    +0.000 Cl
ATOM     21  C   UNL     1      -9.318  -2.274 124.725  0.00  0.00    +0.000 A 
ATOM     22  C   UNL     1      -8.929  -3.548 124.353  0.00  0.00    +0.000 A 
ATOM     23  C   UNL     1      -7.576  -3.854 124.299  0.00  0.00    +0.000 A 
ATOM     24  C   UNL     1      -6.619  -2.880 124.607  0.00  0.00    +0.000 A 
ATOM     25 CL   UNL     1      -4.959  -3.378 124.521  0.00  0.00    +0.000 Cl
ENDBRANCH  17  18
ENDBRANCH  16  17
ENDBRANCH   1  16
TORSDOF 6
ENDMDL
MODEL 7
REMARK VINA RESULT:      -7.1      3.453      6.519
REMARK  Name = Isoconazole
REMARK  6 active torsions:
REMARK  status: ('A' for Active; 'I' for Inactive)
REMARK    1  A    between atoms: C_6  and  C_9
REMARK    2  A    between atoms: C_9  and  C_10
REMARK    3  A    between atoms: C_9  and  O_16
REMARK    4  A    between atoms: C_10  and  N_11
REMARK    5  A    between atoms: O_16  and  C_17
REMARK    6  A    between atoms: C_17  and  C_18
REMARK                            x       y       z     vdW  Elec       q    Type
REMARK                         _______ _______ _______ _____ _____    ______ ____
ROOT
ATOM      1  C   UNL     1      -8.484  -1.470 126.369  0.00  0.00    +0.000 C 
ENDROOT
BRANCH   1   7
ATOM      2 CL   UNL     1      -4.008  -4.308 123.436  0.00  0.00    +0.000 Cl
ATOM      3  C   UNL     1      -5.298  -3.434 124.159  0.00  0.00    +0.000 A 
ATOM      4  C   UNL     1      -6.593  -3.929 124.108  0.00  0.00    +0.000 A 
ATOM      5  C   UNL     1      -7.650  -3.163 124.614  0.00  0.00    +0.000 A 
ATOM      6 CL   UNL     1      -9.246  -3.575 124.094  0.00  0.00    +0.000 Cl
ATOM      7  C   UNL     1      -7.407  -2.059 125.441  0.00  0.00    +0.000 A 
ATOM      8  C   UNL     1      -6.092  -1.565 125.429  0.00  0.00    +0.000 A 
ATOM      9  C   UNL     1      -5.057  -2.205 124.746  0.00  0.00    +0.000 A 
ENDBRANCH   1   7
BRANCH   1  10
ATOM     10  C   UNL     1      -7.900  -0.824 127.668  0.00  0.00    +0.000 C 
BRANCH  10  11
ATOM     11  N   UNL     1      -7.425  -1.720 128.699  0.00  0.00    +0.000 N 
ATOM     12  C   UNL     1      -8.101  -2.779 129.235  0.00  0.00    +0.000 A 
ATOM     13  C   UNL     1      -7.389  -3.081 130.379  0.00  0.00    +0.000 A 
ATOM     14  N   UNL     1      -6.196  -2.415 130.398  0.00  0.00    +0.000 NA
ATOM     15  C   UNL     1      -6.220  -1.629 129.334  0.00  0.00    +0.000 A 
ENDBRANCH  10  11
ENDBRANCH   1  10
BRANCH   1  16
ATOM     16  O   UNL     1      -9.181  -0.447 125.625  0.00  0.00    +0.000 OA
BRANCH  16  17
ATOM     17  C   UNL     1      -8.841   0.898 125.929  0.00  0.00    +0.000 C 
BRANCH  17  18
ATOM     18  C   UNL     1      -8.283   1.680 124.756  0.00  0.00    +0.000 A 
ATOM     19  C   UNL     1      -6.970   2.176 124.644  0.00  0.00    +0.000 A 
ATOM     20 CL   UNL     1      -5.715   2.000 125.804  0.00  0.00    +0.000 Cl
ATOM     21  C   UNL     1      -6.554   2.902 123.522  0.00  0.00    +0.000 A 
ATOM     22  C   UNL     1      -7.428   3.162 122.482  0.00  0.00    +0.000 A 
ATOM     23  C   UNL     1      -8.734   2.701 122.564  0.00  0.00    +0.000 A 
ATOM     24  C   UNL     1      -9.157   1.972 123.682  0.00  0.00    +0.000 A 
ATOM     25 CL   UNL     1     -10.815   1.458 123.684  0.00  0.00    +0.000 Cl
ENDBRANCH  17  18
ENDBRANCH  16  17
ENDBRANCH   1  16
TORSDOF 6
ENDMDL
MODEL 8
REMARK VINA RESULT:      -7.0      2.135      5.931
REMARK  Name = Isoconazole
REMARK  6 active torsions:
REMARK  status: ('A' for Active; 'I' for Inactive)
REMARK    1  A    between atoms: C_6  and  C_9
REMARK    2  A    between atoms: C_9  and  C_10
REMARK    3  A    between atoms: C_9  and  O_16
REMARK    4  A    between atoms: C_10  and  N_11
REMARK    5  A    between atoms: O_16  and  C_17
REMARK    6  A    between atoms: C_17  and  C_18
REMARK                            x       y       z     vdW  Elec       q    Type
REMARK                         _______ _______ _______ _____ _____    ______ ____
ROOT
ATOM      1  C   UNL     1      -6.378   1.568 125.408  0.00  0.00    +0.000 C 
ENDROOT
BRANCH   1   7
ATOM      2 CL   UNL     1      -9.429  -3.354 123.629  0.00  0.00    +0.000 Cl
ATOM      3  C   UNL     1      -8.652  -1.886 124.071  0.00  0.00    +0.000 A 
ATOM      4  C   UNL     1      -8.974  -1.256 125.264  0.00  0.00    +0.000 A 
ATOM      5  C   UNL     1      -8.408  -0.012 125.567  0.00  0.00    +0.000 A 
ATOM      6 CL   UNL     1      -9.192   0.940 126.779  0.00  0.00    +0.000 Cl
ATOM      7  C   UNL     1      -7.301   0.468 124.856  0.00  0.00    +0.000 A 
ATOM      8  C   UNL     1      -7.038  -0.172 123.633  0.00  0.00    +0.000 A 
ATOM      9  C   UNL     1      -7.743  -1.299 123.208  0.00  0.00    +0.000 A 
ENDBRANCH   1   7
BRANCH   1  10
ATOM     10  C   UNL     1      -5.269   1.027 126.368  0.00  0.00    +0.000 C 
BRANCH  10  11
ATOM     11  N   UNL     1      -4.790   1.920 127.400  0.00  0.00    +0.000 N 
ATOM     12  C   UNL     1      -3.703   2.743 127.327  0.00  0.00    +0.000 A 
ATOM     13  C   UNL     1      -3.472   3.106 128.638  0.00  0.00    +0.000 A 
ATOM     14  N   UNL     1      -4.520   2.738 129.434  0.00  0.00    +0.000 NA
ATOM     15  C   UNL     1      -5.336   2.059 128.644  0.00  0.00    +0.000 A 
ENDBRANCH  10  11
ENDBRANCH   1  10
BRANCH   1  16
ATOM     16  O   UNL     1      -5.736   2.198 124.279  0.00  0.00    +0.000 OA
BRANCH  16  17
ATOM     17  C   UNL     1      -6.153   3.521 123.972  0.00  0.00    +0.000 C 
BRANCH  17  18
ATOM     18  C   UNL     1      -6.669   3.698 122.556  0.00  0.00    +0.000 A 
ATOM     19  C   UNL     1      -7.947   3.332 122.091  0.00  0.00    +0.000 A 
ATOM     20 CL   UNL     1      -9.199   2.614 123.022  0.00  0.00    +0.000 Cl
ATOM     21  C   UNL     1      -8.323   3.525 120.758  0.00  0.00    +0.000 A 
ATOM     22  C   UNL     1      -7.444   4.080 119.845  0.00  0.00    +0.000 A 
ATOM     23  C   UNL     1      -6.171   4.439 120.264  0.00  0.00    +0.000 A 
ATOM     24  C   UNL     1      -5.788   4.252 121.598  0.00  0.00    +0.000 A 
ATOM     25 CL   UNL     1      -4.168   4.724 122.006  0.00  0.00    +0.000 Cl
ENDBRANCH  17  18
ENDBRANCH  16  17
ENDBRANCH   1  16
TORSDOF 6
ENDMDL
MODEL 9
REMARK VINA RESULT:      -7.0      4.674      9.026
REMARK  Name = Isoconazole
REMARK  6 active torsions:
REMARK  status: ('A' for Active; 'I' for Inactive)
REMARK    1  A    between atoms: C_6  and  C_9
REMARK    2  A    between atoms: C_9  and  C_10
REMARK    3  A    between atoms: C_9  and  O_16
REMARK    4  A    between atoms: C_10  and  N_11
REMARK    5  A    between atoms: O_16  and  C_17
REMARK    6  A    between atoms: C_17  and  C_18
REMARK                            x       y       z     vdW  Elec       q    Type
REMARK                         _______ _______ _______ _____ _____    ______ ____
ROOT
ATOM      1  C   UNL     1      -6.700  -2.565 128.158  0.00  0.00    +0.000 C 
ENDROOT
BRANCH   1   7
ATOM      2 CL   UNL     1      -5.748  -5.022 133.613  0.00  0.00    +0.000 Cl
ATOM      3  C   UNL     1      -5.950  -4.222 132.106  0.00  0.00    +0.000 A 
ATOM      4  C   UNL     1      -5.043  -4.430 131.077  0.00  0.00    +0.000 A 
ATOM      5  C   UNL     1      -5.162  -3.698 129.889  0.00  0.00    +0.000 A 
ATOM      6 CL   UNL     1      -3.770  -3.618 128.866  0.00  0.00    +0.000 Cl
ATOM      7  C   UNL     1      -6.337  -2.996 129.590  0.00  0.00    +0.000 A 
ATOM      8  C   UNL     1      -7.205  -2.772 130.671  0.00  0.00    +0.000 A 
ATOM      9  C   UNL     1      -6.988  -3.323 131.934  0.00  0.00    +0.000 A 
ENDBRANCH   1   7
BRANCH   1  10
ATOM     10  C   UNL     1      -8.240  -2.508 127.897  0.00  0.00    +0.000 C 
BRANCH  10  11
ATOM     11  N   UNL     1      -8.695  -2.758 126.548  0.00  0.00    +0.000 N 
ATOM     12  C   UNL     1      -8.450  -3.873 125.798  0.00  0.00    +0.000 A 
ATOM     13  C   UNL     1      -8.784  -3.490 124.514  0.00  0.00    +0.000 A 
ATOM     14  N   UNL     1      -9.445  -2.294 124.522  0.00  0.00    +0.000 NA
ATOM     15  C   UNL     1      -9.422  -1.892 125.782  0.00  0.00    +0.000 A 
ENDBRANCH  10  11
ENDBRANCH   1  10
BRANCH   1  16
ATOM     16  O   UNL     1      -6.153  -1.244 127.954  0.00  0.00    +0.000 OA
BRANCH  16  17
ATOM     17  C   UNL     1      -5.273  -1.089 126.850  0.00  0.00    +0.000 C 
BRANCH  17  18
ATOM     18  C   UNL     1      -5.937  -0.552 125.596  0.00  0.00    +0.000 A 
ATOM     19  C   UNL     1      -6.604   0.682 125.478  0.00  0.00    +0.000 A 
ATOM     20 CL   UNL     1      -6.804   1.851 126.720  0.00  0.00    +0.000 Cl
ATOM     21  C   UNL     1      -7.198   1.081 124.276  0.00  0.00    +0.000 A 
ATOM     22  C   UNL     1      -7.156   0.266 123.158  0.00  0.00    +0.000 A 
ATOM     23  C   UNL     1      -6.520  -0.964 123.242  0.00  0.00    +0.000 A 
ATOM     24  C   UNL     1      -5.920  -1.369 124.440  0.00  0.00    +0.000 A 
ATOM     25 CL   UNL     1      -5.167  -2.933 124.433  0.00  0.00    +0.000 Cl
ENDBRANCH  17  18
ENDBRANCH  16  17
ENDBRANCH   1  16
TORSDOF 6
ENDMDL
