MODEL 1
REMARK VINA RESULT:      -6.8      0.000      0.000
REMARK  Name = Isocarboxazid
REMARK  5 active torsions:
REMARK  status: ('A' for Active; 'I' for Inactive)
REMARK    1  A    between atoms: C_1  and  C_2
REMARK    2  A    between atoms: C_4  and  C_7
REMARK    3  A    between atoms: N_9  and  N_10
REMARK    4  A    between atoms: N_10  and  C_11
REMARK    5  A    between atoms: C_11  and  C_12
REMARK                            x       y       z     vdW  Elec       q    Type
REMARK                         _______ _______ _______ _____ _____    ______ ____
ROOT
ATOM      1  C   UNL     1      -8.336  -0.641 123.412  0.00  0.00    +0.000 C 
ATOM      2  O   UNL     1      -9.561  -0.736 123.296  0.00  0.00    +0.000 OA
ATOM      3  N   UNL     1      -7.674   0.593 123.391  0.00  0.00    +0.000 N 
ATOM      4  H   UNL     1      -6.665   0.644 123.441  0.00  0.00    +0.000 HD
ENDROOT
BRANCH   1   8
ATOM      5  C   UNL     1      -4.489  -3.976 123.657  0.00  0.00    +0.000 C 
ATOM      6  C   UNL     1      -5.737  -3.197 123.696  0.00  0.00    +0.000 A 
ATOM      7  C   UNL     1      -6.072  -1.928 123.305  0.00  0.00    +0.000 A 
ATOM      8  C   UNL     1      -7.454  -1.799 123.612  0.00  0.00    +0.000 A 
ATOM      9  N   UNL     1      -7.907  -2.939 124.167  0.00  0.00    +0.000 NA
ATOM     10  O   UNL     1      -6.832  -3.806 124.215  0.00  0.00    +0.000 OA
ENDBRANCH   1   8
BRANCH   3  11
ATOM     11  N   UNL     1      -8.413   1.766 123.172  0.00  0.00    +0.000 NA
ATOM     12  H   UNL     1      -9.278   1.709 123.721  0.00  0.00    +0.000 HD
BRANCH  11  13
ATOM     13  C   UNL     1      -7.698   3.000 123.497  0.00  0.00    +0.000 C 
BRANCH  13  14
ATOM     14  C   UNL     1      -6.875   3.525 122.340  0.00  0.00    +0.000 A 
ATOM     15  C   UNL     1      -5.572   4.021 122.510  0.00  0.00    +0.000 A 
ATOM     16  C   UNL     1      -4.894   4.631 121.458  0.00  0.00    +0.000 A 
ATOM     17  C   UNL     1      -5.475   4.684 120.196  0.00  0.00    +0.000 A 
ATOM     18  C   UNL     1      -6.753   4.164 119.996  0.00  0.00    +0.000 A 
ATOM     19  C   UNL     1      -7.453   3.596 121.063  0.00  0.00    +0.000 A 
ENDBRANCH  13  14
ENDBRANCH  11  13
ENDBRANCH   3  11
TORSDOF 4
ENDMDL
MODEL 2
REMARK VINA RESULT:      -6.8      1.911      2.238
REMARK  Name = Isocarboxazid
REMARK  5 active torsions:
REMARK  status: ('A' for Active; 'I' for Inactive)
REMARK    1  A    between atoms: C_1  and  C_2
REMARK    2  A    between atoms: C_4  and  C_7
REMARK    3  A    between atoms: N_9  and  N_10
REMARK    4  A    between atoms: N_10  and  C_11
REMARK    5  A    between atoms: C_11  and  C_12
REMARK                            x       y       z     vdW  Elec       q    Type
REMARK                         _______ _______ _______ _____ _____    ______ ____
ROOT
ATOM      1  C   UNL     1      -8.763   0.961 124.007  0.00  0.00    +0.000 C 
ATOM      2  O   UNL     1      -9.275   1.679 124.869  0.00  0.00    +0.000 OA
ATOM      3  N   UNL     1      -7.997   1.481 122.956  0.00  0.00    +0.000 N 
ATOM      4  H   UNL     1      -7.625   0.877 122.234  0.00  0.00    +0.000 HD
ENDROOT
BRANCH   1   8
ATOM      5  C   UNL     1      -8.309  -4.059 124.767  0.00  0.00    +0.000 C 
ATOM      6  C   UNL     1      -8.630  -2.673 124.390  0.00  0.00    +0.000 A 
ATOM      7  C   UNL     1      -8.119  -1.454 124.749  0.00  0.00    +0.000 A 
ATOM      8  C   UNL     1      -8.876  -0.504 124.008  0.00  0.00    +0.000 A 
ATOM      9  N   UNL     1      -9.795  -1.139 123.257  0.00  0.00    +0.000 NA
ATOM     10  O   UNL     1      -9.635  -2.489 123.499  0.00  0.00    +0.000 OA
ENDBRANCH   1   8
BRANCH   3  11
ATOM     11  N   UNL     1      -7.848   2.872 122.836  0.00  0.00    +0.000 NA
ATOM     12  H   UNL     1      -8.160   3.305 123.711  0.00  0.00    +0.000 HD
BRANCH  11  13
ATOM     13  C   UNL     1      -6.488   3.308 122.521  0.00  0.00    +0.000 C 
BRANCH  13  14
ATOM     14  C   UNL     1      -6.378   3.950 121.154  0.00  0.00    +0.000 A 
ATOM     15  C   UNL     1      -5.270   4.726 120.776  0.00  0.00    +0.000 A 
ATOM     16  C   UNL     1      -5.260   5.424 119.571  0.00  0.00    +0.000 A 
ATOM     17  C   UNL     1      -6.323   5.292 118.685  0.00  0.00    +0.000 A 
ATOM     18  C   UNL     1      -7.417   4.496 119.023  0.00  0.00    +0.000 A 
ATOM     19  C   UNL     1      -7.449   3.835 120.253  0.00  0.00    +0.000 A 
ENDBRANCH  13  14
ENDBRANCH  11  13
ENDBRANCH   3  11
TORSDOF 4
ENDMDL
MODEL 3
REMARK VINA RESULT:      -6.7      8.559      9.981
REMARK  Name = Isocarboxazid
REMARK  5 active torsions:
REMARK  status: ('A' for Active; 'I' for Inactive)
REMARK    1  A    between atoms: C_1  and  C_2
REMARK    2  A    between atoms: C_4  and  C_7
REMARK    3  A    between atoms: N_9  and  N_10
REMARK    4  A    between atoms: N_10  and  C_11
REMARK    5  A    between atoms: C_11  and  C_12
REMARK                            x       y       z     vdW  Elec       q    Type
REMARK                         _______ _______ _______ _____ _____    ______ ____
ROOT
ATOM      1  C   UNL     1     -10.301   5.522 131.429  0.00  0.00    +0.000 C 
ATOM      2  O   UNL     1      -9.559   6.379 131.914  0.00  0.00    +0.000 OA
ATOM      3  N   UNL     1     -11.685   5.706 131.315  0.00  0.00    +0.000 N 
ATOM      4  H   UNL     1     -12.281   4.971 130.956  0.00  0.00    +0.000 HD
ENDROOT
BRANCH   1   8
ATOM      5  C   UNL     1      -8.454   0.831 130.675  0.00  0.00    +0.000 C 
ATOM      6  C   UNL     1      -9.010   2.193 130.640  0.00  0.00    +0.000 A 
ATOM      7  C   UNL     1      -9.322   3.113 131.605  0.00  0.00    +0.000 A 
ATOM      8  C   UNL     1      -9.814   4.243 130.896  0.00  0.00    +0.000 A 
ATOM      9  N   UNL     1      -9.799   3.993 129.573  0.00  0.00    +0.000 NA
ATOM     10  O   UNL     1      -9.297   2.715 129.421  0.00  0.00    +0.000 OA
ENDBRANCH   1   8
BRANCH   3  11
ATOM     11  N   UNL     1     -12.267   6.879 131.822  0.00  0.00    +0.000 NA
ATOM     12  H   UNL     1     -11.516   7.534 132.061  0.00  0.00    +0.000 HD
BRANCH  11  13
ATOM     13  C   UNL     1     -13.218   7.521 130.915  0.00  0.00    +0.000 C 
BRANCH  13  14
ATOM     14  C   UNL     1     -12.688   7.653 129.503  0.00  0.00    +0.000 A 
ATOM     15  C   UNL     1     -13.315   7.040 128.406  0.00  0.00    +0.000 A 
ATOM     16  C   UNL     1     -12.728   7.055 127.144  0.00  0.00    +0.000 A 
ATOM     17  C   UNL     1     -11.544   7.754 126.939  0.00  0.00    +0.000 A 
ATOM     18  C   UNL     1     -10.924   8.403 128.006  0.00  0.00    +0.000 A 
ATOM     19  C   UNL     1     -11.488   8.346 129.283  0.00  0.00    +0.000 A 
ENDBRANCH  13  14
ENDBRANCH  11  13
ENDBRANCH   3  11
TORSDOF 4
ENDMDL
MODEL 4
REMARK VINA RESULT:      -6.7      2.662      6.910
REMARK  Name = Isocarboxazid
REMARK  5 active torsions:
REMARK  status: ('A' for Active; 'I' for Inactive)
REMARK    1  A    between atoms: C_1  and  C_2
REMARK    2  A    between atoms: C_4  and  C_7
REMARK    3  A    between atoms: N_9  and  N_10
REMARK    4  A    between atoms: N_10  and  C_11
REMARK    5  A    between atoms: C_11  and  C_12
REMARK                            x       y       z     vdW  Elec       q    Type
REMARK                         _______ _______ _______ _____ _____    ______ ____
ROOT
ATOM      1  C   UNL     1      -6.535   2.752 123.314  0.00  0.00    +0.000 C 
ATOM      2  O   UNL     1      -6.041   2.713 124.444  0.00  0.00    +0.000 OA
ATOM      3  N   UNL     1      -7.614   1.942 122.938  0.00  0.00    +0.000 N 
ATOM      4  H   UNL     1      -7.973   1.958 121.992  0.00  0.00    +0.000 HD
ENDROOT
BRANCH   1   8
ATOM      5  C   UNL     1      -5.662   5.361 119.023  0.00  0.00    +0.000 C 
ATOM      6  C   UNL     1      -5.741   4.764 120.365  0.00  0.00    +0.000 A 
ATOM      7  C   UNL     1      -6.480   3.744 120.904  0.00  0.00    +0.000 A 
ATOM      8  C   UNL     1      -6.067   3.665 122.262  0.00  0.00    +0.000 A 
ATOM      9  N   UNL     1      -5.134   4.604 122.511  0.00  0.00    +0.000 NA
ATOM     10  O   UNL     1      -4.936   5.284 121.325  0.00  0.00    +0.000 OA
ENDBRANCH   1   8
BRANCH   3  11
ATOM     11  N   UNL     1      -8.123   1.007 123.853  0.00  0.00    +0.000 NA
ATOM     12  H   UNL     1      -8.837   1.471 124.424  0.00  0.00    +0.000 HD
BRANCH  11  13
ATOM     13  C   UNL     1      -8.681  -0.197 123.239  0.00  0.00    +0.000 C 
BRANCH  13  14
ATOM     14  C   UNL     1      -7.839  -1.430 123.490  0.00  0.00    +0.000 A 
ATOM     15  C   UNL     1      -8.376  -2.606 124.039  0.00  0.00    +0.000 A 
ATOM     16  C   UNL     1      -7.554  -3.672 124.395  0.00  0.00    +0.000 A 
ATOM     17  C   UNL     1      -6.190  -3.613 124.133  0.00  0.00    +0.000 A 
ATOM     18  C   UNL     1      -5.641  -2.470 123.553  0.00  0.00    +0.000 A 
ATOM     19  C   UNL     1      -6.459  -1.381 123.241  0.00  0.00    +0.000 A 
ENDBRANCH  13  14
ENDBRANCH  11  13
ENDBRANCH   3  11
TORSDOF 4
ENDMDL
MODEL 5
REMARK VINA RESULT:      -6.7      4.135      5.764
REMARK  Name = Isocarboxazid
REMARK  5 active torsions:
REMARK  status: ('A' for Active; 'I' for Inactive)
REMARK    1  A    between atoms: C_1  and  C_2
REMARK    2  A    between atoms: C_4  and  C_7
REMARK    3  A    between atoms: N_9  and  N_10
REMARK    4  A    between atoms: N_10  and  C_11
REMARK    5  A    between atoms: C_11  and  C_12
REMARK                            x       y       z     vdW  Elec       q    Type
REMARK                         _______ _______ _______ _____ _____    ______ ____
ROOT
ATOM      1  C   UNL     1      -6.352   3.384 125.147  0.00  0.00    +0.000 C 
ATOM      2  O   UNL     1      -6.616   2.183 125.248  0.00  0.00    +0.000 OA
ATOM      3  N   UNL     1      -6.867   4.181 124.116  0.00  0.00    +0.000 N 
ATOM      4  H   UNL     1      -6.600   5.153 124.026  0.00  0.00    +0.000 HD
ENDROOT
BRANCH   1   8
ATOM      5  C   UNL     1      -2.570   5.279 127.992  0.00  0.00    +0.000 C 
ATOM      6  C   UNL     1      -3.811   4.892 127.301  0.00  0.00    +0.000 A 
ATOM      7  C   UNL     1      -4.097   4.004 126.298  0.00  0.00    +0.000 A 
ATOM      8  C   UNL     1      -5.502   4.105 126.104  0.00  0.00    +0.000 A 
ATOM      9  N   UNL     1      -6.015   5.018 126.950  0.00  0.00    +0.000 NA
ATOM     10  O   UNL     1      -4.956   5.504 127.693  0.00  0.00    +0.000 OA
ENDBRANCH   1   8
BRANCH   3  11
ATOM     11  N   UNL     1      -7.666   3.590 123.125  0.00  0.00    +0.000 NA
ATOM     12  H   UNL     1      -8.290   4.309 122.744  0.00  0.00    +0.000 HD
BRANCH  11  13
ATOM     13  C   UNL     1      -6.915   2.958 122.041  0.00  0.00    +0.000 C 
BRANCH  13  14
ATOM     14  C   UNL     1      -6.682   3.886 120.867  0.00  0.00    +0.000 A 
ATOM     15  C   UNL     1      -7.609   4.019 119.821  0.00  0.00    +0.000 A 
ATOM     16  C   UNL     1      -7.306   4.764 118.684  0.00  0.00    +0.000 A 
ATOM     17  C   UNL     1      -6.103   5.457 118.610  0.00  0.00    +0.000 A 
ATOM     18  C   UNL     1      -5.183   5.370 119.655  0.00  0.00    +0.000 A 
ATOM     19  C   UNL     1      -5.466   4.582 120.773  0.00  0.00    +0.000 A 
ENDBRANCH  13  14
ENDBRANCH  11  13
ENDBRANCH   3  11
TORSDOF 4
ENDMDL
MODEL 6
REMARK VINA RESULT:      -6.6      3.265      7.445
REMARK  Name = Isocarboxazid
REMARK  5 active torsions:
REMARK  status: ('A' for Active; 'I' for Inactive)
REMARK    1  A    between atoms: C_1  and  C_2
REMARK    2  A    between atoms: C_4  and  C_7
REMARK    3  A    between atoms: N_9  and  N_10
REMARK    4  A    between atoms: N_10  and  C_11
REMARK    5  A    between atoms: C_11  and  C_12
REMARK                            x       y       z     vdW  Elec       q    Type
REMARK                         _______ _______ _______ _____ _____    ______ ____
ROOT
ATOM      1  C   UNL     1      -8.687   2.034 123.998  0.00  0.00    +0.000 C 
ATOM      2  O   UNL     1      -9.394   2.606 124.831  0.00  0.00    +0.000 OA
ATOM      3  N   UNL     1      -8.424   0.659 124.056  0.00  0.00    +0.000 N 
ATOM      4  H   UNL     1      -7.804   0.218 123.389  0.00  0.00    +0.000 HD
ENDROOT
BRANCH   1   8
ATOM      5  C   UNL     1      -5.600   4.153 120.539  0.00  0.00    +0.000 C 
ATOM      6  C   UNL     1      -6.679   3.615 121.383  0.00  0.00    +0.000 A 
ATOM      7  C   UNL     1      -6.700   2.939 122.574  0.00  0.00    +0.000 A 
ATOM      8  C   UNL     1      -8.078   2.719 122.850  0.00  0.00    +0.000 A 
ATOM      9  N   UNL     1      -8.830   3.235 121.860  0.00  0.00    +0.000 NA
ATOM     10  O   UNL     1      -7.952   3.792 120.950  0.00  0.00    +0.000 OA
ENDBRANCH   1   8
BRANCH   3  11
ATOM     11  N   UNL     1      -8.929  -0.093 125.129  0.00  0.00    +0.000 NA
ATOM     12  H   UNL     1      -9.934   0.089 125.204  0.00  0.00    +0.000 HD
BRANCH  11  13
ATOM     13  C   UNL     1      -8.689  -1.532 125.024  0.00  0.00    +0.000 C 
BRANCH  13  14
ATOM     14  C   UNL     1      -8.497  -2.197 126.371  0.00  0.00    +0.000 A 
ATOM     15  C   UNL     1      -9.032  -3.461 126.666  0.00  0.00    +0.000 A 
ATOM     16  C   UNL     1      -8.968  -3.985 127.955  0.00  0.00    +0.000 A 
ATOM     17  C   UNL     1      -8.295  -3.288 128.952  0.00  0.00    +0.000 A 
ATOM     18  C   UNL     1      -7.723  -2.048 128.672  0.00  0.00    +0.000 A 
ATOM     19  C   UNL     1      -7.831  -1.500 127.391  0.00  0.00    +0.000 A 
ENDBRANCH  13  14
ENDBRANCH  11  13
ENDBRANCH   3  11
TORSDOF 4
ENDMDL
MODEL 7
REMARK VINA RESULT:      -6.6     10.317     11.226
REMARK  Name = Isocarboxazid
REMARK  5 active torsions:
REMARK  status: ('A' for Active; 'I' for Inactive)
REMARK    1  A    between atoms: C_1  and  C_2
REMARK    2  A    between atoms: C_4  and  C_7
REMARK    3  A    between atoms: N_9  and  N_10
REMARK    4  A    between atoms: N_10  and  C_11
REMARK    5  A    between atoms: C_11  and  C_12
REMARK                            x       y       z     vdW  Elec       q    Type
REMARK                         _______ _______ _______ _____ _____    ______ ____
ROOT
ATOM      1  C   UNL     1      -9.732   5.481 131.844  0.00  0.00    +0.000 C 
ATOM      2  O   UNL     1      -9.869   4.854 130.791  0.00  0.00    +0.000 OA
ATOM      3  N   UNL     1     -10.806   6.106 132.490  0.00  0.00    +0.000 N 
ATOM      4  H   UNL     1     -10.662   6.653 133.329  0.00  0.00    +0.000 HD
ENDROOT
BRANCH   1   8
ATOM      5  C   UNL     1      -4.866   6.128 133.220  0.00  0.00    +0.000 C 
ATOM      6  C   UNL     1      -6.314   5.910 133.072  0.00  0.00    +0.000 A 
ATOM      7  C   UNL     1      -7.162   5.890 131.996  0.00  0.00    +0.000 A 
ATOM      8  C   UNL     1      -8.445   5.611 132.542  0.00  0.00    +0.000 A 
ATOM      9  N   UNL     1      -8.355   5.482 133.878  0.00  0.00    +0.000 NA
ATOM     10  O   UNL     1      -7.025   5.669 134.202  0.00  0.00    +0.000 OA
ENDBRANCH   1   8
BRANCH   3  11
ATOM     11  N   UNL     1     -12.078   6.074 131.897  0.00  0.00    +0.000 NA
ATOM     12  H   UNL     1     -12.747   5.724 132.590  0.00  0.00    +0.000 HD
BRANCH  11  13
ATOM     13  C   UNL     1     -12.531   7.362 131.371  0.00  0.00    +0.000 C 
BRANCH  13  14
ATOM     14  C   UNL     1     -12.319   7.495 129.878  0.00  0.00    +0.000 A 
ATOM     15  C   UNL     1     -13.278   7.073 128.943  0.00  0.00    +0.000 A 
ATOM     16  C   UNL     1     -12.998   7.072 127.579  0.00  0.00    +0.000 A 
ATOM     17  C   UNL     1     -11.784   7.570 127.120  0.00  0.00    +0.000 A 
ATOM     18  C   UNL     1     -10.832   8.029 128.029  0.00  0.00    +0.000 A 
ATOM     19  C   UNL     1     -11.093   7.985 129.400  0.00  0.00    +0.000 A 
ENDBRANCH  13  14
ENDBRANCH  11  13
ENDBRANCH   3  11
TORSDOF 4
ENDMDL
MODEL 8
REMARK VINA RESULT:      -6.5     10.858     11.441
REMARK  Name = Isocarboxazid
REMARK  5 active torsions:
REMARK  status: ('A' for Active; 'I' for Inactive)
REMARK    1  A    between atoms: C_1  and  C_2
REMARK    2  A    between atoms: C_4  and  C_7
REMARK    3  A    between atoms: N_9  and  N_10
REMARK    4  A    between atoms: N_10  and  C_11
REMARK    5  A    between atoms: C_11  and  C_12
REMARK                            x       y       z     vdW  Elec       q    Type
REMARK                         _______ _______ _______ _____ _____    ______ ____
ROOT
ATOM      1  C   UNL     1      -8.603   5.985 132.109  0.00  0.00    +0.000 C 
ATOM      2  O   UNL     1      -8.707   5.180 133.038  0.00  0.00    +0.000 OA
ATOM      3  N   UNL     1      -9.718   6.521 131.453  0.00  0.00    +0.000 N 
ATOM      4  H   UNL     1      -9.608   7.145 130.663  0.00  0.00    +0.000 HD
ENDROOT
BRANCH   1   8
ATOM      5  C   UNL     1      -3.700   7.074 131.237  0.00  0.00    +0.000 C 
ATOM      6  C   UNL     1      -5.161   6.910 131.289  0.00  0.00    +0.000 A 
ATOM      7  C   UNL     1      -6.005   6.197 132.099  0.00  0.00    +0.000 A 
ATOM      8  C   UNL     1      -7.312   6.485 131.618  0.00  0.00    +0.000 A 
ATOM      9  N   UNL     1      -7.236   7.323 130.567  0.00  0.00    +0.000 NA
ATOM     10  O   UNL     1      -5.894   7.584 130.368  0.00  0.00    +0.000 OA
ENDBRANCH   1   8
BRANCH   3  11
ATOM     11  N   UNL     1     -11.003   6.090 131.818  0.00  0.00    +0.000 NA
ATOM     12  H   UNL     1     -11.462   6.847 132.334  0.00  0.00    +0.000 HD
BRANCH  11  13
ATOM     13  C   UNL     1     -11.842   5.673 130.694  0.00  0.00    +0.000 C 
BRANCH  13  14
ATOM     14  C   UNL     1     -12.424   6.843 129.928  0.00  0.00    +0.000 A 
ATOM     15  C   UNL     1     -12.804   6.742 128.580  0.00  0.00    +0.000 A 
ATOM     16  C   UNL     1     -13.198   7.866 127.859  0.00  0.00    +0.000 A 
ATOM     17  C   UNL     1     -13.296   9.098 128.496  0.00  0.00    +0.000 A 
ATOM     18  C   UNL     1     -12.959   9.214 129.844  0.00  0.00    +0.000 A 
ATOM     19  C   UNL     1     -12.517   8.095 130.555  0.00  0.00    +0.000 A 
ENDBRANCH  13  14
ENDBRANCH  11  13
ENDBRANCH   3  11
TORSDOF 4
ENDMDL
MODEL 9
REMARK VINA RESULT:      -6.4     10.114     12.427
REMARK  Name = Isocarboxazid
REMARK  5 active torsions:
REMARK  status: ('A' for Active; 'I' for Inactive)
REMARK    1  A    between atoms: C_1  and  C_2
REMARK    2  A    between atoms: C_4  and  C_7
REMARK    3  A    between atoms: N_9  and  N_10
REMARK    4  A    between atoms: N_10  and  C_11
REMARK    5  A    between atoms: C_11  and  C_12
REMARK                            x       y       z     vdW  Elec       q    Type
REMARK                         _______ _______ _______ _____ _____    ______ ____
ROOT
ATOM      1  C   UNL     1     -10.327   5.695 131.818  0.00  0.00    +0.000 C 
ATOM      2  O   UNL     1     -10.121   6.438 132.780  0.00  0.00    +0.000 OA
ATOM      3  N   UNL     1     -10.262   4.300 131.920  0.00  0.00    +0.000 N 
ATOM      4  H   UNL     1     -10.389   3.711 131.107  0.00  0.00    +0.000 HD
ENDROOT
BRANCH   1   8
ATOM      5  C   UNL     1     -10.829   8.223 127.419  0.00  0.00    +0.000 C 
ATOM      6  C   UNL     1     -10.854   7.332 128.590  0.00  0.00    +0.000 A 
ATOM      7  C   UNL     1     -10.199   7.332 129.793  0.00  0.00    +0.000 A 
ATOM      8  C   UNL     1     -10.690   6.189 130.482  0.00  0.00    +0.000 A 
ATOM      9  N   UNL     1     -11.586   5.543 129.714  0.00  0.00    +0.000 NA
ATOM     10  O   UNL     1     -11.684   6.260 128.537  0.00  0.00    +0.000 OA
ENDBRANCH   1   8
BRANCH   3  11
ATOM     11  N   UNL     1      -9.892   3.717 133.142  0.00  0.00    +0.000 NA
ATOM     12  H   UNL     1     -10.601   3.021 133.395  0.00  0.00    +0.000 HD
BRANCH  11  13
ATOM     13  C   UNL     1      -8.566   3.099 133.140  0.00  0.00    +0.000 C 
BRANCH  13  14
ATOM     14  C   UNL     1      -7.659   3.647 134.222  0.00  0.00    +0.000 A 
ATOM     15  C   UNL     1      -7.978   4.802 134.954  0.00  0.00    +0.000 A 
ATOM     16  C   UNL     1      -7.062   5.367 135.838  0.00  0.00    +0.000 A 
ATOM     17  C   UNL     1      -5.842   4.739 136.066  0.00  0.00    +0.000 A 
ATOM     18  C   UNL     1      -5.521   3.570 135.379  0.00  0.00    +0.000 A 
ATOM     19  C   UNL     1      -6.420   3.031 134.455  0.00  0.00    +0.000 A 
ENDBRANCH  13  14
ENDBRANCH  11  13
ENDBRANCH   3  11
TORSDOF 4
ENDMDL
