MODEL 1
REMARK VINA RESULT:      -5.9      0.000      0.000
REMARK  Name = Isoeugenol
REMARK  5 active torsions:
REMARK  status: ('A' for Active; 'I' for Inactive)
REMARK    1  A    between atoms: C_1  and  O_2
REMARK    2  A    between atoms: O_2  and  C_3
REMARK    3  A    between atoms: C_5  and  C_6
REMARK    4  A    between atoms: C_7  and  C_8
REMARK    5  A    between atoms: C_11  and  O_12
REMARK                            x       y       z     vdW  Elec       q    Type
REMARK                         _______ _______ _______ _____ _____    ______ ____
ROOT
ATOM      1  C   UNL     1     -11.039   7.135 128.785  0.00  0.00    +0.000 A 
ATOM      2  C   UNL     1     -11.595   8.427 128.691  0.00  0.00    +0.000 A 
ATOM      3  C   UNL     1     -12.581   8.868 129.590  0.00  0.00    +0.000 A 
ATOM      4  C   UNL     1     -12.996   7.981 130.591  0.00  0.00    +0.000 A 
ATOM      5  C   UNL     1     -12.449   6.706 130.705  0.00  0.00    +0.000 A 
ATOM      6  C   UNL     1     -11.473   6.284 129.809  0.00  0.00    +0.000 A 
ENDROOT
BRANCH   3   7
ATOM      7  C   UNL     1     -13.148  10.228 129.467  0.00  0.00    +0.000 C 
ATOM      8  C   UNL     1     -13.305  11.088 130.493  0.00  0.00    +0.000 C 
ATOM      9  C   UNL     1     -13.877  12.460 130.380  0.00  0.00    +0.000 C 
ENDBRANCH   3   7
BRANCH   1  11
ATOM     10  C   UNL     1     -10.482   7.094 126.470  0.00  0.00    +0.000 C 
ATOM     11  O   UNL     1     -10.101   6.861 127.821  0.00  0.00    +0.000 OA
ENDBRANCH   1  11
BRANCH   6  12
ATOM     12  O   UNL     1     -10.965   5.024 129.971  0.00  0.00    +0.000 OA
ATOM     13  H   UNL     1     -11.548   4.507 130.549  0.00  0.00    +0.000 HD
ENDBRANCH   6  12
TORSDOF 3
ENDMDL
MODEL 2
REMARK VINA RESULT:      -5.5     10.733     13.278
REMARK  Name = Isoeugenol
REMARK  5 active torsions:
REMARK  status: ('A' for Active; 'I' for Inactive)
REMARK    1  A    between atoms: C_1  and  O_2
REMARK    2  A    between atoms: O_2  and  C_3
REMARK    3  A    between atoms: C_5  and  C_6
REMARK    4  A    between atoms: C_7  and  C_8
REMARK    5  A    between atoms: C_11  and  O_12
REMARK                            x       y       z     vdW  Elec       q    Type
REMARK                         _______ _______ _______ _____ _____    ______ ____
ROOT
ATOM      1  C   UNL     1      -8.811  -1.781 124.695  0.00  0.00    +0.000 A 
ATOM      2  C   UNL     1      -7.672  -2.536 124.350  0.00  0.00    +0.000 A 
ATOM      3  C   UNL     1      -6.639  -1.990 123.569  0.00  0.00    +0.000 A 
ATOM      4  C   UNL     1      -6.774  -0.663 123.144  0.00  0.00    +0.000 A 
ATOM      5  C   UNL     1      -7.886   0.101 123.486  0.00  0.00    +0.000 A 
ATOM      6  C   UNL     1      -8.900  -0.452 124.260  0.00  0.00    +0.000 A 
ENDROOT
BRANCH   3   7
ATOM      7  C   UNL     1      -5.457  -2.806 123.220  0.00  0.00    +0.000 C 
ATOM      8  C   UNL     1      -5.083  -3.928 123.868  0.00  0.00    +0.000 C 
ATOM      9  C   UNL     1      -3.893  -4.758 123.525  0.00  0.00    +0.000 C 
ENDBRANCH   3   7
BRANCH   1  11
ATOM     10  C   UNL     1      -9.220  -3.279 126.500  0.00  0.00    +0.000 C 
ATOM     11  O   UNL     1      -9.730  -2.469 125.447  0.00  0.00    +0.000 OA
ENDBRANCH   1  11
BRANCH   6  12
ATOM     12  O   UNL     1      -9.967   0.345 124.572  0.00  0.00    +0.000 OA
ATOM     13  H   UNL     1      -9.683   1.056 125.167  0.00  0.00    +0.000 HD
ENDBRANCH   6  12
TORSDOF 3
ENDMDL
MODEL 3
REMARK VINA RESULT:      -5.5      2.525      4.287
REMARK  Name = Isoeugenol
REMARK  5 active torsions:
REMARK  status: ('A' for Active; 'I' for Inactive)
REMARK    1  A    between atoms: C_1  and  O_2
REMARK    2  A    between atoms: O_2  and  C_3
REMARK    3  A    between atoms: C_5  and  C_6
REMARK    4  A    between atoms: C_7  and  C_8
REMARK    5  A    between atoms: C_11  and  O_12
REMARK                            x       y       z     vdW  Elec       q    Type
REMARK                         _______ _______ _______ _____ _____    ______ ____
ROOT
ATOM      1  C   UNL     1     -11.216   8.029 128.581  0.00  0.00    +0.000 A 
ATOM      2  C   UNL     1     -10.119   7.559 129.331  0.00  0.00    +0.000 A 
ATOM      3  C   UNL     1     -10.292   6.981 130.601  0.00  0.00    +0.000 A 
ATOM      4  C   UNL     1     -11.595   6.883 131.101  0.00  0.00    +0.000 A 
ATOM      5  C   UNL     1     -12.692   7.330 130.368  0.00  0.00    +0.000 A 
ATOM      6  C   UNL     1     -12.506   7.899 129.113  0.00  0.00    +0.000 A 
ENDROOT
BRANCH   3   7
ATOM      7  C   UNL     1      -9.123   6.500 131.366  0.00  0.00    +0.000 C 
ATOM      8  C   UNL     1      -7.843   6.826 131.096  0.00  0.00    +0.000 C 
ATOM      9  C   UNL     1      -6.657   6.346 131.860  0.00  0.00    +0.000 C 
ENDBRANCH   3   7
BRANCH   1  11
ATOM     10  C   UNL     1     -10.875   7.706 126.246  0.00  0.00    +0.000 C 
ATOM     11  O   UNL     1     -10.871   8.577 127.371  0.00  0.00    +0.000 OA
ENDBRANCH   1  11
BRANCH   6  12
ATOM     12  O   UNL     1     -13.617   8.316 128.433  0.00  0.00    +0.000 OA
ATOM     13  H   UNL     1     -13.739   7.774 127.638  0.00  0.00    +0.000 HD
ENDBRANCH   6  12
TORSDOF 3
ENDMDL
MODEL 4
REMARK VINA RESULT:      -5.4      9.901     12.828
REMARK  Name = Isoeugenol
REMARK  5 active torsions:
REMARK  status: ('A' for Active; 'I' for Inactive)
REMARK    1  A    between atoms: C_1  and  O_2
REMARK    2  A    between atoms: O_2  and  C_3
REMARK    3  A    between atoms: C_5  and  C_6
REMARK    4  A    between atoms: C_7  and  C_8
REMARK    5  A    between atoms: C_11  and  O_12
REMARK                            x       y       z     vdW  Elec       q    Type
REMARK                         _______ _______ _______ _____ _____    ______ ____
ROOT
ATOM      1  C   UNL     1      -7.995   0.436 123.536  0.00  0.00    +0.000 A 
ATOM      2  C   UNL     1      -6.827  -0.352 123.471  0.00  0.00    +0.000 A 
ATOM      3  C   UNL     1      -6.876  -1.706 123.097  0.00  0.00    +0.000 A 
ATOM      4  C   UNL     1      -8.127  -2.252 122.786  0.00  0.00    +0.000 A 
ATOM      5  C   UNL     1      -9.288  -1.485 122.833  0.00  0.00    +0.000 A 
ATOM      6  C   UNL     1      -9.224  -0.146 123.204  0.00  0.00    +0.000 A 
ENDROOT
BRANCH   3   7
ATOM      7  C   UNL     1      -5.636  -2.509 123.040  0.00  0.00    +0.000 C 
ATOM      8  C   UNL     1      -5.410  -3.620 123.769  0.00  0.00    +0.000 C 
ATOM      9  C   UNL     1      -4.164  -4.437 123.720  0.00  0.00    +0.000 C 
ENDBRANCH   3   7
BRANCH   1  11
ATOM     10  C   UNL     1      -7.586   2.695 122.902  0.00  0.00    +0.000 C 
ATOM     11  O   UNL     1      -7.771   1.731 123.933  0.00  0.00    +0.000 OA
ENDBRANCH   1  11
BRANCH   6  12
ATOM     12  O   UNL     1     -10.394   0.562 123.228  0.00  0.00    +0.000 OA
ATOM     13  H   UNL     1     -10.939   0.270 123.975  0.00  0.00    +0.000 HD
ENDBRANCH   6  12
TORSDOF 3
ENDMDL
MODEL 5
REMARK VINA RESULT:      -5.4      2.271      4.342
REMARK  Name = Isoeugenol
REMARK  5 active torsions:
REMARK  status: ('A' for Active; 'I' for Inactive)
REMARK    1  A    between atoms: C_1  and  O_2
REMARK    2  A    between atoms: O_2  and  C_3
REMARK    3  A    between atoms: C_5  and  C_6
REMARK    4  A    between atoms: C_7  and  C_8
REMARK    5  A    between atoms: C_11  and  O_12
REMARK                            x       y       z     vdW  Elec       q    Type
REMARK                         _______ _______ _______ _____ _____    ______ ____
ROOT
ATOM      1  C   UNL     1     -11.241   8.206 128.844  0.00  0.00    +0.000 A 
ATOM      2  C   UNL     1     -10.627   7.175 129.583  0.00  0.00    +0.000 A 
ATOM      3  C   UNL     1     -11.160   6.731 130.806  0.00  0.00    +0.000 A 
ATOM      4  C   UNL     1     -12.328   7.347 131.270  0.00  0.00    +0.000 A 
ATOM      5  C   UNL     1     -12.955   8.359 130.547  0.00  0.00    +0.000 A 
ATOM      6  C   UNL     1     -12.417   8.786 129.338  0.00  0.00    +0.000 A 
ENDROOT
BRANCH   3   7
ATOM      7  C   UNL     1     -10.494   5.649 131.561  0.00  0.00    +0.000 C 
ATOM      8  C   UNL     1      -9.686   5.842 132.622  0.00  0.00    +0.000 C 
ATOM      9  C   UNL     1      -9.009   4.759 133.391  0.00  0.00    +0.000 C 
ENDBRANCH   3   7
BRANCH   1  11
ATOM     10  C   UNL     1     -10.879   7.734 126.538  0.00  0.00    +0.000 C 
ATOM     11  O   UNL     1     -10.584   8.527 127.682  0.00  0.00    +0.000 OA
ENDBRANCH   1  11
BRANCH   6  12
ATOM     12  O   UNL     1     -13.075   9.779 128.666  0.00  0.00    +0.000 OA
ATOM     13  H   UNL     1     -12.563  10.602 128.711  0.00  0.00    +0.000 HD
ENDBRANCH   6  12
TORSDOF 3
ENDMDL
MODEL 6
REMARK VINA RESULT:      -5.3      3.909      5.536
REMARK  Name = Isoeugenol
REMARK  5 active torsions:
REMARK  status: ('A' for Active; 'I' for Inactive)
REMARK    1  A    between atoms: C_1  and  O_2
REMARK    2  A    between atoms: O_2  and  C_3
REMARK    3  A    between atoms: C_5  and  C_6
REMARK    4  A    between atoms: C_7  and  C_8
REMARK    5  A    between atoms: C_11  and  O_12
REMARK                            x       y       z     vdW  Elec       q    Type
REMARK                         _______ _______ _______ _____ _____    ______ ____
ROOT
ATOM      1  C   UNL     1     -10.343   7.052 130.489  0.00  0.00    +0.000 A 
ATOM      2  C   UNL     1      -8.957   7.248 130.321  0.00  0.00    +0.000 A 
ATOM      3  C   UNL     1      -8.029   6.770 131.262  0.00  0.00    +0.000 A 
ATOM      4  C   UNL     1      -8.525   6.088 132.379  0.00  0.00    +0.000 A 
ATOM      5  C   UNL     1      -9.890   5.875 132.555  0.00  0.00    +0.000 A 
ATOM      6  C   UNL     1     -10.797   6.351 131.615  0.00  0.00    +0.000 A 
ENDROOT
BRANCH   3   7
ATOM      7  C   UNL     1      -6.582   6.992 131.061  0.00  0.00    +0.000 C 
ATOM      8  C   UNL     1      -5.610   6.415 131.795  0.00  0.00    +0.000 C 
ATOM      9  C   UNL     1      -4.148   6.632 131.601  0.00  0.00    +0.000 C 
ENDBRANCH   3   7
BRANCH   1  11
ATOM     10  C   UNL     1     -10.413   8.213 128.411  0.00  0.00    +0.000 C 
ATOM     11  O   UNL     1     -11.109   7.594 129.487  0.00  0.00    +0.000 OA
ENDBRANCH   1  11
BRANCH   6  12
ATOM     12  O   UNL     1     -12.125   6.109 131.833  0.00  0.00    +0.000 OA
ATOM     13  H   UNL     1     -12.226   5.383 132.469  0.00  0.00    +0.000 HD
ENDBRANCH   6  12
TORSDOF 3
ENDMDL
MODEL 7
REMARK VINA RESULT:      -5.1     10.407     12.732
REMARK  Name = Isoeugenol
REMARK  5 active torsions:
REMARK  status: ('A' for Active; 'I' for Inactive)
REMARK    1  A    between atoms: C_1  and  O_2
REMARK    2  A    between atoms: O_2  and  C_3
REMARK    3  A    between atoms: C_5  and  C_6
REMARK    4  A    between atoms: C_7  and  C_8
REMARK    5  A    between atoms: C_11  and  O_12
REMARK                            x       y       z     vdW  Elec       q    Type
REMARK                         _______ _______ _______ _____ _____    ______ ____
ROOT
ATOM      1  C   UNL     1      -8.463  -0.249 123.943  0.00  0.00    +0.000 A 
ATOM      2  C   UNL     1      -7.348  -0.955 123.446  0.00  0.00    +0.000 A 
ATOM      3  C   UNL     1      -6.763  -2.007 124.172  0.00  0.00    +0.000 A 
ATOM      4  C   UNL     1      -7.325  -2.337 125.410  0.00  0.00    +0.000 A 
ATOM      5  C   UNL     1      -8.433  -1.659 125.911  0.00  0.00    +0.000 A 
ATOM      6  C   UNL     1      -9.003  -0.621 125.181  0.00  0.00    +0.000 A 
ENDROOT
BRANCH   3   7
ATOM      7  C   UNL     1      -5.592  -2.727 123.627  0.00  0.00    +0.000 C 
ATOM      8  C   UNL     1      -5.203  -3.958 124.015  0.00  0.00    +0.000 C 
ATOM      9  C   UNL     1      -4.025  -4.694 123.474  0.00  0.00    +0.000 C 
ENDBRANCH   3   7
BRANCH   1  11
ATOM     10  C   UNL     1     -10.143   0.550 122.456  0.00  0.00    +0.000 C 
ATOM     11  O   UNL     1      -8.899   0.756 123.117  0.00  0.00    +0.000 OA
ENDBRANCH   1  11
BRANCH   6  12
ATOM     12  O   UNL     1     -10.094   0.007 125.716  0.00  0.00    +0.000 OA
ATOM     13  H   UNL     1     -10.180  -0.227 126.653  0.00  0.00    +0.000 HD
ENDBRANCH   6  12
TORSDOF 3
ENDMDL
MODEL 8
REMARK VINA RESULT:      -4.9     12.388     12.860
REMARK  Name = Isoeugenol
REMARK  5 active torsions:
REMARK  status: ('A' for Active; 'I' for Inactive)
REMARK    1  A    between atoms: C_1  and  O_2
REMARK    2  A    between atoms: O_2  and  C_3
REMARK    3  A    between atoms: C_5  and  C_6
REMARK    4  A    between atoms: C_7  and  C_8
REMARK    5  A    between atoms: C_11  and  O_12
REMARK                            x       y       z     vdW  Elec       q    Type
REMARK                         _______ _______ _______ _____ _____    ______ ____
ROOT
ATOM      1  C   UNL     1      -6.950  -2.383 124.388  0.00  0.00    +0.000 A 
ATOM      2  C   UNL     1      -7.097  -2.669 125.761  0.00  0.00    +0.000 A 
ATOM      3  C   UNL     1      -8.344  -3.022 126.306  0.00  0.00    +0.000 A 
ATOM      4  C   UNL     1      -9.442  -3.083 125.440  0.00  0.00    +0.000 A 
ATOM      5  C   UNL     1      -9.311  -2.816 124.080  0.00  0.00    +0.000 A 
ATOM      6  C   UNL     1      -8.071  -2.469 123.554  0.00  0.00    +0.000 A 
ENDROOT
BRANCH   3   7
ATOM      7  C   UNL     1      -8.470  -3.314 127.750  0.00  0.00    +0.000 C 
ATOM      8  C   UNL     1      -7.592  -2.915 128.691  0.00  0.00    +0.000 C 
ATOM      9  C   UNL     1      -7.708  -3.205 130.149  0.00  0.00    +0.000 C 
ENDBRANCH   3   7
BRANCH   1  11
ATOM     10  C   UNL     1      -4.835  -3.093 123.553  0.00  0.00    +0.000 C 
ATOM     11  O   UNL     1      -5.671  -2.041 124.024  0.00  0.00    +0.000 OA
ENDBRANCH   1  11
BRANCH   6  12
ATOM     12  O   UNL     1      -7.998  -2.222 122.210  0.00  0.00    +0.000 OA
ATOM     13  H   UNL     1      -8.843  -1.861 121.897  0.00  0.00    +0.000 HD
ENDBRANCH   6  12
TORSDOF 3
ENDMDL
MODEL 9
REMARK VINA RESULT:      -4.8      9.525     12.037
REMARK  Name = Isoeugenol
REMARK  5 active torsions:
REMARK  status: ('A' for Active; 'I' for Inactive)
REMARK    1  A    between atoms: C_1  and  O_2
REMARK    2  A    between atoms: O_2  and  C_3
REMARK    3  A    between atoms: C_5  and  C_6
REMARK    4  A    between atoms: C_7  and  C_8
REMARK    5  A    between atoms: C_11  and  O_12
REMARK                            x       y       z     vdW  Elec       q    Type
REMARK                         _______ _______ _______ _____ _____    ______ ____
ROOT
ATOM      1  C   UNL     1      -8.834  -1.068 124.854  0.00  0.00    +0.000 A 
ATOM      2  C   UNL     1      -8.713  -1.549 126.174  0.00  0.00    +0.000 A 
ATOM      3  C   UNL     1      -8.586  -2.922 126.445  0.00  0.00    +0.000 A 
ATOM      4  C   UNL     1      -8.580  -3.805 125.359  0.00  0.00    +0.000 A 
ATOM      5  C   UNL     1      -8.686  -3.346 124.048  0.00  0.00    +0.000 A 
ATOM      6  C   UNL     1      -8.810  -1.985 123.794  0.00  0.00    +0.000 A 
ENDROOT
BRANCH   3   7
ATOM      7  C   UNL     1      -8.464  -3.398 127.839  0.00  0.00    +0.000 C 
ATOM      8  C   UNL     1      -7.813  -2.739 128.819  0.00  0.00    +0.000 C 
ATOM      9  C   UNL     1      -7.683  -3.210 130.227  0.00  0.00    +0.000 C 
ENDBRANCH   3   7
BRANCH   1  11
ATOM     10  C   UNL     1      -9.279   0.988 125.969  0.00  0.00    +0.000 C 
ATOM     11  O   UNL     1      -8.964   0.295 124.767  0.00  0.00    +0.000 OA
ENDBRANCH   1  11
BRANCH   6  12
ATOM     12  O   UNL     1      -8.904  -1.588 122.489  0.00  0.00    +0.000 OA
ATOM     13  H   UNL     1      -8.274  -0.871 122.317  0.00  0.00    +0.000 HD
ENDBRANCH   6  12
TORSDOF 3
ENDMDL
