MODEL 1
REMARK VINA RESULT:      -6.3      0.000      0.000
REMARK  Name = Isoetharine
REMARK  11 active torsions:
REMARK  status: ('A' for Active; 'I' for Inactive)
REMARK    1  A    between atoms: C_1  and  C_2
REMARK    2  A    between atoms: C_2  and  C_3
REMARK    3  A    between atoms: C_3  and  N_4
REMARK    4  A    between atoms: C_3  and  C_8
REMARK    5  A    between atoms: N_4  and  C_5
REMARK    6  A    between atoms: C_5  and  C_6
REMARK    7  A    between atoms: C_5  and  C_7
REMARK    8  A    between atoms: C_8  and  O_9
REMARK    9  A    between atoms: C_8  and  C_10
REMARK   10  A    between atoms: C_12  and  O_13
REMARK   11  A    between atoms: C_14  and  O_15
REMARK                            x       y       z     vdW  Elec       q    Type
REMARK                         _______ _______ _______ _____ _____    ______ ____
ROOT
ATOM      1  C   UNL     1     -10.250   4.962 130.526  0.00  0.00    +0.000 C 
ENDROOT
BRANCH   1   2
ATOM      2  C   UNL     1     -10.892   6.277 130.097  0.00  0.00    +0.000 A 
ATOM      3  C   UNL     1     -10.496   6.961 128.936  0.00  0.00    +0.000 A 
ATOM      4  C   UNL     1     -11.156   8.119 128.543  0.00  0.00    +0.000 A 
ATOM      5  C   UNL     1     -12.228   8.606 129.295  0.00  0.00    +0.000 A 
ATOM      6  C   UNL     1     -12.631   7.956 130.446  0.00  0.00    +0.000 A 
ATOM      7  C   UNL     1     -11.963   6.803 130.855  0.00  0.00    +0.000 A 
BRANCH   4   8
ATOM      8  O   UNL     1     -10.802   8.808 127.419  0.00  0.00    +0.000 OA
ATOM      9  H   UNL     1     -11.229   9.685 127.454  0.00  0.00    +0.000 HD
ENDBRANCH   4   8
BRANCH   5  10
ATOM     10  O   UNL     1     -12.893   9.729 128.896  0.00  0.00    +0.000 OA
ATOM     11  H   UNL     1     -12.306  10.149 128.239  0.00  0.00    +0.000 HD
ENDBRANCH   5  10
ENDBRANCH   1   2
BRANCH   1  12
ATOM     12  O   UNL     1     -11.298   4.040 130.851  0.00  0.00    +0.000 OA
ATOM     13  H   UNL     1     -10.884   3.204 131.113  0.00  0.00    +0.000 HD
ENDBRANCH   1  12
BRANCH   1  14
ATOM     14  C   UNL     1      -9.204   5.133 131.716  0.00  0.00    +0.000 C 
BRANCH  14  16
ATOM     15  C   UNL     1      -6.954   6.555 131.488  0.00  0.00    +0.000 C 
ATOM     16  C   UNL     1      -8.497   6.522 131.567  0.00  0.00    +0.000 C 
ENDBRANCH  14  16
BRANCH  14  17
ATOM     17  N   UNL     1      -9.920   4.860 133.005  0.00  0.00    +0.000 NA
ATOM     18  H   UNL     1     -10.860   4.528 132.768  0.00  0.00    +0.000 HD
BRANCH  17  19
ATOM     19  C   UNL     1      -9.312   3.886 133.912  0.00  0.00    +0.000 C 
ATOM     20  C   UNL     1      -8.751   2.696 133.140  0.00  0.00    +0.000 C 
ATOM     21  C   UNL     1      -8.075   4.421 134.645  0.00  0.00    +0.000 C 
ENDBRANCH  17  19
ENDBRANCH  14  17
ENDBRANCH   1  14
TORSDOF 8
ENDMDL
MODEL 2
REMARK VINA RESULT:      -6.3      1.339      1.435
REMARK  Name = Isoetharine
REMARK  11 active torsions:
REMARK  status: ('A' for Active; 'I' for Inactive)
REMARK    1  A    between atoms: C_1  and  C_2
REMARK    2  A    between atoms: C_2  and  C_3
REMARK    3  A    between atoms: C_3  and  N_4
REMARK    4  A    between atoms: C_3  and  C_8
REMARK    5  A    between atoms: N_4  and  C_5
REMARK    6  A    between atoms: C_5  and  C_6
REMARK    7  A    between atoms: C_5  and  C_7
REMARK    8  A    between atoms: C_8  and  O_9
REMARK    9  A    between atoms: C_8  and  C_10
REMARK   10  A    between atoms: C_12  and  O_13
REMARK   11  A    between atoms: C_14  and  O_15
REMARK                            x       y       z     vdW  Elec       q    Type
REMARK                         _______ _______ _______ _____ _____    ______ ____
ROOT
ATOM      1  C   UNL     1     -10.210   5.855 131.773  0.00  0.00    +0.000 C 
ENDROOT
BRANCH   1   2
ATOM      2  C   UNL     1     -10.916   6.884 130.898  0.00  0.00    +0.000 A 
ATOM      3  C   UNL     1     -10.323   7.417 129.741  0.00  0.00    +0.000 A 
ATOM      4  C   UNL     1     -11.031   8.299 128.932  0.00  0.00    +0.000 A 
ATOM      5  C   UNL     1     -12.343   8.652 129.257  0.00  0.00    +0.000 A 
ATOM      6  C   UNL     1     -12.945   8.148 130.393  0.00  0.00    +0.000 A 
ATOM      7  C   UNL     1     -12.236   7.276 131.219  0.00  0.00    +0.000 A 
BRANCH   4   8
ATOM      8  O   UNL     1     -10.489   8.834 127.799  0.00  0.00    +0.000 OA
ATOM      9  H   UNL     1      -9.674   9.309 128.048  0.00  0.00    +0.000 HD
ENDBRANCH   4   8
BRANCH   5  10
ATOM     10  O   UNL     1     -13.046   9.497 128.449  0.00  0.00    +0.000 OA
ATOM     11  H   UNL     1     -12.388  10.140 128.123  0.00  0.00    +0.000 HD
ENDBRANCH   5  10
ENDBRANCH   1   2
BRANCH   1  12
ATOM     12  O   UNL     1     -10.098   6.397 133.095  0.00  0.00    +0.000 OA
ATOM     13  H   UNL     1      -9.791   7.312 133.013  0.00  0.00    +0.000 HD
ENDBRANCH   1  12
BRANCH   1  14
ATOM     14  C   UNL     1      -8.801   5.395 131.187  0.00  0.00    +0.000 C 
BRANCH  14  16
ATOM     15  C   UNL     1      -6.654   6.983 131.121  0.00  0.00    +0.000 C 
ATOM     16  C   UNL     1      -7.666   6.159 131.948  0.00  0.00    +0.000 C 
ENDBRANCH  14  16
BRANCH  14  17
ATOM     17  N   UNL     1      -8.756   3.896 131.210  0.00  0.00    +0.000 NA
ATOM     18  H   UNL     1      -7.769   3.620 131.223  0.00  0.00    +0.000 HD
BRANCH  17  19
ATOM     19  C   UNL     1      -9.428   3.226 132.324  0.00  0.00    +0.000 C 
ATOM     20  C   UNL     1      -9.872   1.821 131.930  0.00  0.00    +0.000 C 
ATOM     21  C   UNL     1      -8.510   2.962 133.523  0.00  0.00    +0.000 C 
ENDBRANCH  17  19
ENDBRANCH  14  17
ENDBRANCH   1  14
TORSDOF 8
ENDMDL
MODEL 3
REMARK VINA RESULT:      -6.2      8.811     10.088
REMARK  Name = Isoetharine
REMARK  11 active torsions:
REMARK  status: ('A' for Active; 'I' for Inactive)
REMARK    1  A    between atoms: C_1  and  C_2
REMARK    2  A    between atoms: C_2  and  C_3
REMARK    3  A    between atoms: C_3  and  N_4
REMARK    4  A    between atoms: C_3  and  C_8
REMARK    5  A    between atoms: N_4  and  C_5
REMARK    6  A    between atoms: C_5  and  C_6
REMARK    7  A    between atoms: C_5  and  C_7
REMARK    8  A    between atoms: C_8  and  O_9
REMARK    9  A    between atoms: C_8  and  C_10
REMARK   10  A    between atoms: C_12  and  O_13
REMARK   11  A    between atoms: C_14  and  O_15
REMARK                            x       y       z     vdW  Elec       q    Type
REMARK                         _______ _______ _______ _____ _____    ______ ____
ROOT
ATOM      1  C   UNL     1      -9.331   2.197 123.707  0.00  0.00    +0.000 C 
ENDROOT
BRANCH   1   2
ATOM      2  C   UNL     1      -8.343   2.747 122.683  0.00  0.00    +0.000 A 
ATOM      3  C   UNL     1      -8.758   3.268 121.446  0.00  0.00    +0.000 A 
ATOM      4  C   UNL     1      -7.832   3.825 120.572  0.00  0.00    +0.000 A 
ATOM      5  C   UNL     1      -6.481   3.881 120.923  0.00  0.00    +0.000 A 
ATOM      6  C   UNL     1      -6.047   3.368 122.130  0.00  0.00    +0.000 A 
ATOM      7  C   UNL     1      -6.967   2.793 123.005  0.00  0.00    +0.000 A 
BRANCH   4   8
ATOM      8  O   UNL     1      -8.199   4.344 119.364  0.00  0.00    +0.000 OA
ATOM      9  H   UNL     1      -8.735   5.143 119.528  0.00  0.00    +0.000 HD
ENDBRANCH   4   8
BRANCH   5  10
ATOM     10  O   UNL     1      -5.575   4.451 120.076  0.00  0.00    +0.000 OA
ATOM     11  H   UNL     1      -4.984   4.972 120.653  0.00  0.00    +0.000 HD
ENDBRANCH   5  10
ENDBRANCH   1   2
BRANCH   1  12
ATOM     12  O   UNL     1      -9.380   3.109 124.811  0.00  0.00    +0.000 OA
ATOM     13  H   UNL     1      -8.798   3.855 124.603  0.00  0.00    +0.000 HD
ENDBRANCH   1  12
BRANCH   1  14
ATOM     14  C   UNL     1      -8.995   0.709 124.166  0.00  0.00    +0.000 C 
BRANCH  14  16
ATOM     15  C   UNL     1      -8.280   0.135 126.675  0.00  0.00    +0.000 C 
ATOM     16  C   UNL     1      -9.382   0.548 125.674  0.00  0.00    +0.000 C 
ENDBRANCH  14  16
BRANCH  14  17
ATOM     17  N   UNL     1      -9.632  -0.233 123.187  0.00  0.00    +0.000 NA
ATOM     18  H   UNL     1      -9.868   0.309 122.351  0.00  0.00    +0.000 HD
BRANCH  17  19
ATOM     19  C   UNL     1      -8.843  -1.392 122.768  0.00  0.00    +0.000 C 
ATOM     20  C   UNL     1      -7.367  -1.199 123.102  0.00  0.00    +0.000 C 
ATOM     21  C   UNL     1      -9.192  -2.678 123.527  0.00  0.00    +0.000 C 
ENDBRANCH  17  19
ENDBRANCH  14  17
ENDBRANCH   1  14
TORSDOF 8
ENDMDL
MODEL 4
REMARK VINA RESULT:      -5.9      9.791     10.840
REMARK  Name = Isoetharine
REMARK  11 active torsions:
REMARK  status: ('A' for Active; 'I' for Inactive)
REMARK    1  A    between atoms: C_1  and  C_2
REMARK    2  A    between atoms: C_2  and  C_3
REMARK    3  A    between atoms: C_3  and  N_4
REMARK    4  A    between atoms: C_3  and  C_8
REMARK    5  A    between atoms: N_4  and  C_5
REMARK    6  A    between atoms: C_5  and  C_6
REMARK    7  A    between atoms: C_5  and  C_7
REMARK    8  A    between atoms: C_8  and  O_9
REMARK    9  A    between atoms: C_8  and  C_10
REMARK   10  A    between atoms: C_12  and  O_13
REMARK   11  A    between atoms: C_14  and  O_15
REMARK                            x       y       z     vdW  Elec       q    Type
REMARK                         _______ _______ _______ _____ _____    ______ ____
ROOT
ATOM      1  C   UNL     1      -8.698  -2.244 123.433  0.00  0.00    +0.000 C 
ENDROOT
BRANCH   1   2
ATOM      2  C   UNL     1      -8.689  -0.721 123.358  0.00  0.00    +0.000 A 
ATOM      3  C   UNL     1      -7.596   0.044 123.798  0.00  0.00    +0.000 A 
ATOM      4  C   UNL     1      -7.599   1.426 123.646  0.00  0.00    +0.000 A 
ATOM      5  C   UNL     1      -8.686   2.064 123.041  0.00  0.00    +0.000 A 
ATOM      6  C   UNL     1      -9.776   1.334 122.607  0.00  0.00    +0.000 A 
ATOM      7  C   UNL     1      -9.788  -0.051 122.772  0.00  0.00    +0.000 A 
BRANCH   4   8
ATOM      8  O   UNL     1      -6.555   2.202 124.058  0.00  0.00    +0.000 OA
ATOM      9  H   UNL     1      -6.915   2.940 124.585  0.00  0.00    +0.000 HD
ENDBRANCH   4   8
BRANCH   5  10
ATOM     10  O   UNL     1      -8.678   3.417 122.868  0.00  0.00    +0.000 OA
ATOM     11  H   UNL     1      -8.616   3.547 121.902  0.00  0.00    +0.000 HD
ENDBRANCH   5  10
ENDBRANCH   1   2
BRANCH   1  12
ATOM     12  O   UNL     1     -10.062  -2.683 123.406  0.00  0.00    +0.000 OA
ATOM     13  H   UNL     1     -10.378  -2.606 122.493  0.00  0.00    +0.000 HD
ENDBRANCH   1  12
BRANCH   1  14
ATOM     14  C   UNL     1      -7.903  -2.814 124.691  0.00  0.00    +0.000 C 
BRANCH  14  16
ATOM     15  C   UNL     1      -8.532  -3.116 127.269  0.00  0.00    +0.000 C 
ATOM     16  C   UNL     1      -8.937  -3.247 125.784  0.00  0.00    +0.000 C 
ENDBRANCH  14  16
BRANCH  14  17
ATOM     17  N   UNL     1      -6.944  -3.858 124.199  0.00  0.00    +0.000 NA
ATOM     18  H   UNL     1      -7.253  -4.140 123.264  0.00  0.00    +0.000 HD
BRANCH  17  19
ATOM     19  C   UNL     1      -5.534  -3.479 124.115  0.00  0.00    +0.000 C 
ATOM     20  C   UNL     1      -4.659  -4.690 123.807  0.00  0.00    +0.000 C 
ATOM     21  C   UNL     1      -5.221  -2.536 122.947  0.00  0.00    +0.000 C 
ENDBRANCH  17  19
ENDBRANCH  14  17
ENDBRANCH   1  14
TORSDOF 8
ENDMDL
MODEL 5
REMARK VINA RESULT:      -5.9      2.785      5.617
REMARK  Name = Isoetharine
REMARK  11 active torsions:
REMARK  status: ('A' for Active; 'I' for Inactive)
REMARK    1  A    between atoms: C_1  and  C_2
REMARK    2  A    between atoms: C_2  and  C_3
REMARK    3  A    between atoms: C_3  and  N_4
REMARK    4  A    between atoms: C_3  and  C_8
REMARK    5  A    between atoms: N_4  and  C_5
REMARK    6  A    between atoms: C_5  and  C_6
REMARK    7  A    between atoms: C_5  and  C_7
REMARK    8  A    between atoms: C_8  and  O_9
REMARK    9  A    between atoms: C_8  and  C_10
REMARK   10  A    between atoms: C_12  and  O_13
REMARK   11  A    between atoms: C_14  and  O_15
REMARK                            x       y       z     vdW  Elec       q    Type
REMARK                         _______ _______ _______ _____ _____    ______ ____
ROOT
ATOM      1  C   UNL     1     -10.288   6.390 131.536  0.00  0.00    +0.000 C 
ENDROOT
BRANCH   1   2
ATOM      2  C   UNL     1      -8.778   6.320 131.740  0.00  0.00    +0.000 A 
ATOM      3  C   UNL     1      -7.875   6.955 130.872  0.00  0.00    +0.000 A 
ATOM      4  C   UNL     1      -6.510   6.927 131.136  0.00  0.00    +0.000 A 
ATOM      5  C   UNL     1      -6.028   6.276 132.274  0.00  0.00    +0.000 A 
ATOM      6  C   UNL     1      -6.896   5.637 133.138  0.00  0.00    +0.000 A 
ATOM      7  C   UNL     1      -8.264   5.647 132.872  0.00  0.00    +0.000 A 
BRANCH   4   8
ATOM      8  O   UNL     1      -5.603   7.536 130.318  0.00  0.00    +0.000 OA
ATOM      9  H   UNL     1      -5.213   8.288 130.804  0.00  0.00    +0.000 HD
ENDBRANCH   4   8
BRANCH   5  10
ATOM     10  O   UNL     1      -4.691   6.270 132.546  0.00  0.00    +0.000 OA
ATOM     11  H   UNL     1      -4.563   5.525 133.164  0.00  0.00    +0.000 HD
ENDBRANCH   5  10
ENDBRANCH   1   2
BRANCH   1  12
ATOM     12  O   UNL     1     -10.919   5.778 132.668  0.00  0.00    +0.000 OA
ATOM     13  H   UNL     1     -10.498   6.131 133.466  0.00  0.00    +0.000 HD
ENDBRANCH   1  12
BRANCH   1  14
ATOM     14  C   UNL     1     -10.764   5.748 130.157  0.00  0.00    +0.000 C 
BRANCH  14  16
ATOM     15  C   UNL     1     -10.030   3.189 130.376  0.00  0.00    +0.000 C 
ATOM     16  C   UNL     1     -11.151   4.251 130.407  0.00  0.00    +0.000 C 
ENDBRANCH  14  16
BRANCH  14  17
ATOM     17  N   UNL     1     -11.815   6.641 129.568  0.00  0.00    +0.000 NA
ATOM     18  H   UNL     1     -12.658   6.542 130.143  0.00  0.00    +0.000 HD
BRANCH  17  19
ATOM     19  C   UNL     1     -11.499   8.066 129.469  0.00  0.00    +0.000 C 
ATOM     20  C   UNL     1     -10.570   8.341 128.291  0.00  0.00    +0.000 C 
ATOM     21  C   UNL     1     -12.716   8.942 129.145  0.00  0.00    +0.000 C 
ENDBRANCH  17  19
ENDBRANCH  14  17
ENDBRANCH   1  14
TORSDOF 8
ENDMDL
MODEL 6
REMARK VINA RESULT:      -5.8      8.845      9.984
REMARK  Name = Isoetharine
REMARK  11 active torsions:
REMARK  status: ('A' for Active; 'I' for Inactive)
REMARK    1  A    between atoms: C_1  and  C_2
REMARK    2  A    between atoms: C_2  and  C_3
REMARK    3  A    between atoms: C_3  and  N_4
REMARK    4  A    between atoms: C_3  and  C_8
REMARK    5  A    between atoms: N_4  and  C_5
REMARK    6  A    between atoms: C_5  and  C_6
REMARK    7  A    between atoms: C_5  and  C_7
REMARK    8  A    between atoms: C_8  and  O_9
REMARK    9  A    between atoms: C_8  and  C_10
REMARK   10  A    between atoms: C_12  and  O_13
REMARK   11  A    between atoms: C_14  and  O_15
REMARK                            x       y       z     vdW  Elec       q    Type
REMARK                         _______ _______ _______ _____ _____    ______ ____
ROOT
ATOM      1  C   UNL     1      -8.753  -0.016 123.193  0.00  0.00    +0.000 C 
ENDROOT
BRANCH   1   2
ATOM      2  C   UNL     1      -8.229   1.380 123.511  0.00  0.00    +0.000 A 
ATOM      3  C   UNL     1      -8.921   2.265 124.354  0.00  0.00    +0.000 A 
ATOM      4  C   UNL     1      -8.373   3.502 124.676  0.00  0.00    +0.000 A 
ATOM      5  C   UNL     1      -7.123   3.869 124.170  0.00  0.00    +0.000 A 
ATOM      6  C   UNL     1      -6.428   3.020 123.332  0.00  0.00    +0.000 A 
ATOM      7  C   UNL     1      -6.978   1.784 122.992  0.00  0.00    +0.000 A 
BRANCH   4   8
ATOM      8  O   UNL     1      -9.014   4.386 125.495  0.00  0.00    +0.000 OA
ATOM      9  H   UNL     1      -9.548   3.875 126.133  0.00  0.00    +0.000 HD
ENDBRANCH   4   8
BRANCH   5  10
ATOM     10  O   UNL     1      -6.574   5.072 124.506  0.00  0.00    +0.000 OA
ATOM     11  H   UNL     1      -7.257   5.521 125.039  0.00  0.00    +0.000 HD
ENDBRANCH   5  10
ENDBRANCH   1   2
BRANCH   1  12
ATOM     12  O   UNL     1     -10.165  -0.029 123.437  0.00  0.00    +0.000 OA
ATOM     13  H   UNL     1     -10.306   0.244 124.356  0.00  0.00    +0.000 HD
ENDBRANCH   1  12
BRANCH   1  14
ATOM     14  C   UNL     1      -7.990  -1.167 123.990  0.00  0.00    +0.000 C 
BRANCH  14  16
ATOM     15  C   UNL     1      -9.467  -3.369 123.662  0.00  0.00    +0.000 C 
ATOM     16  C   UNL     1      -9.049  -2.176 124.550  0.00  0.00    +0.000 C 
ENDBRANCH  14  16
BRANCH  14  17
ATOM     17  N   UNL     1      -6.919  -1.719 123.096  0.00  0.00    +0.000 NA
ATOM     18  H   UNL     1      -6.739  -1.020 122.369  0.00  0.00    +0.000 HD
BRANCH  17  19
ATOM     19  C   UNL     1      -5.642  -2.063 123.721  0.00  0.00    +0.000 C 
ATOM     20  C   UNL     1      -5.500  -1.391 125.083  0.00  0.00    +0.000 C 
ATOM     21  C   UNL     1      -5.511  -3.551 124.068  0.00  0.00    +0.000 C 
ENDBRANCH  17  19
ENDBRANCH  14  17
ENDBRANCH   1  14
TORSDOF 8
ENDMDL
MODEL 7
REMARK VINA RESULT:      -5.7      8.942     10.021
REMARK  Name = Isoetharine
REMARK  11 active torsions:
REMARK  status: ('A' for Active; 'I' for Inactive)
REMARK    1  A    between atoms: C_1  and  C_2
REMARK    2  A    between atoms: C_2  and  C_3
REMARK    3  A    between atoms: C_3  and  N_4
REMARK    4  A    between atoms: C_3  and  C_8
REMARK    5  A    between atoms: N_4  and  C_5
REMARK    6  A    between atoms: C_5  and  C_6
REMARK    7  A    between atoms: C_5  and  C_7
REMARK    8  A    between atoms: C_8  and  O_9
REMARK    9  A    between atoms: C_8  and  C_10
REMARK   10  A    between atoms: C_12  and  O_13
REMARK   11  A    between atoms: C_14  and  O_15
REMARK                            x       y       z     vdW  Elec       q    Type
REMARK                         _______ _______ _______ _____ _____    ______ ____
ROOT
ATOM      1  C   UNL     1      -6.433  -0.975 125.427  0.00  0.00    +0.000 C 
ENDROOT
BRANCH   1   2
ATOM      2  C   UNL     1      -7.097   0.377 125.190  0.00  0.00    +0.000 A 
ATOM      3  C   UNL     1      -8.462   0.496 124.878  0.00  0.00    +0.000 A 
ATOM      4  C   UNL     1      -9.044   1.752 124.740  0.00  0.00    +0.000 A 
ATOM      5  C   UNL     1      -8.277   2.905 124.924  0.00  0.00    +0.000 A 
ATOM      6  C   UNL     1      -6.931   2.813 125.223  0.00  0.00    +0.000 A 
ATOM      7  C   UNL     1      -6.337   1.558 125.347  0.00  0.00    +0.000 A 
BRANCH   4   8
ATOM      8  O   UNL     1     -10.366   1.907 124.442  0.00  0.00    +0.000 OA
ATOM      9  H   UNL     1     -10.447   2.027 123.476  0.00  0.00    +0.000 HD
ENDBRANCH   4   8
BRANCH   5  10
ATOM     10  O   UNL     1      -8.853   4.137 124.814  0.00  0.00    +0.000 OA
ATOM     11  H   UNL     1      -9.015   4.422 125.734  0.00  0.00    +0.000 HD
ENDBRANCH   5  10
ENDBRANCH   1   2
BRANCH   1  12
ATOM     12  O   UNL     1      -5.022  -0.762 125.552  0.00  0.00    +0.000 OA
ATOM     13  H   UNL     1      -4.849   0.175 125.372  0.00  0.00    +0.000 HD
ENDBRANCH   1  12
BRANCH   1  14
ATOM     14  C   UNL     1      -6.785  -2.052 124.306  0.00  0.00    +0.000 C 
BRANCH  14  16
ATOM     15  C   UNL     1      -4.728  -3.541 123.479  0.00  0.00    +0.000 C 
ATOM     16  C   UNL     1      -5.540  -2.231 123.373  0.00  0.00    +0.000 C 
ENDBRANCH  14  16
BRANCH  14  17
ATOM     17  N   UNL     1      -7.316  -3.277 124.990  0.00  0.00    +0.000 NA
ATOM     18  H   UNL     1      -7.173  -3.150 125.997  0.00  0.00    +0.000 HD
BRANCH  17  19
ATOM     19  C   UNL     1      -8.724  -3.606 124.769  0.00  0.00    +0.000 C 
ATOM     20  C   UNL     1      -9.611  -2.950 125.822  0.00  0.00    +0.000 C 
ATOM     21  C   UNL     1      -9.286  -3.041 123.460  0.00  0.00    +0.000 C 
ENDBRANCH  17  19
ENDBRANCH  14  17
ENDBRANCH   1  14
TORSDOF 8
ENDMDL
MODEL 8
REMARK VINA RESULT:      -5.7      9.216     10.224
REMARK  Name = Isoetharine
REMARK  11 active torsions:
REMARK  status: ('A' for Active; 'I' for Inactive)
REMARK    1  A    between atoms: C_1  and  C_2
REMARK    2  A    between atoms: C_2  and  C_3
REMARK    3  A    between atoms: C_3  and  N_4
REMARK    4  A    between atoms: C_3  and  C_8
REMARK    5  A    between atoms: N_4  and  C_5
REMARK    6  A    between atoms: C_5  and  C_6
REMARK    7  A    between atoms: C_5  and  C_7
REMARK    8  A    between atoms: C_8  and  O_9
REMARK    9  A    between atoms: C_8  and  C_10
REMARK   10  A    between atoms: C_12  and  O_13
REMARK   11  A    between atoms: C_14  and  O_15
REMARK                            x       y       z     vdW  Elec       q    Type
REMARK                         _______ _______ _______ _____ _____    ______ ____
ROOT
ATOM      1  C   UNL     1      -6.676  -0.533 125.154  0.00  0.00    +0.000 C 
ENDROOT
BRANCH   1   2
ATOM      2  C   UNL     1      -7.238   0.658 124.383  0.00  0.00    +0.000 A 
ATOM      3  C   UNL     1      -6.576   1.895 124.331  0.00  0.00    +0.000 A 
ATOM      4  C   UNL     1      -7.086   2.933 123.558  0.00  0.00    +0.000 A 
ATOM      5  C   UNL     1      -8.256   2.746 122.817  0.00  0.00    +0.000 A 
ATOM      6  C   UNL     1      -8.929   1.541 122.858  0.00  0.00    +0.000 A 
ATOM      7  C   UNL     1      -8.433   0.501 123.644  0.00  0.00    +0.000 A 
BRANCH   4   8
ATOM      8  O   UNL     1      -6.469   4.147 123.479  0.00  0.00    +0.000 OA
ATOM      9  H   UNL     1      -7.117   4.833 123.729  0.00  0.00    +0.000 HD
ENDBRANCH   4   8
BRANCH   5  10
ATOM     10  O   UNL     1      -8.743   3.755 122.038  0.00  0.00    +0.000 OA
ATOM     11  H   UNL     1      -8.908   4.493 122.656  0.00  0.00    +0.000 HD
ENDBRANCH   5  10
ENDBRANCH   1   2
BRANCH   1  12
ATOM     12  O   UNL     1      -5.320  -0.233 125.509  0.00  0.00    +0.000 OA
ATOM     13  H   UNL     1      -4.745  -0.641 124.844  0.00  0.00    +0.000 HD
ENDBRANCH   1  12
BRANCH   1  14
ATOM     14  C   UNL     1      -6.804  -1.909 124.360  0.00  0.00    +0.000 C 
BRANCH  14  16
ATOM     15  C   UNL     1      -4.839  -3.600 123.716  0.00  0.00    +0.000 C 
ATOM     16  C   UNL     1      -5.455  -2.187 123.615  0.00  0.00    +0.000 C 
ENDBRANCH  14  16
BRANCH  14  17
ATOM     17  N   UNL     1      -7.288  -2.955 125.321  0.00  0.00    +0.000 NA
ATOM     18  H   UNL     1      -7.305  -2.529 126.253  0.00  0.00    +0.000 HD
BRANCH  17  19
ATOM     19  C   UNL     1      -8.605  -3.536 125.065  0.00  0.00    +0.000 C 
ATOM     20  C   UNL     1      -9.655  -2.948 126.002  0.00  0.00    +0.000 C 
ATOM     21  C   UNL     1      -9.166  -3.194 123.679  0.00  0.00    +0.000 C 
ENDBRANCH  17  19
ENDBRANCH  14  17
ENDBRANCH   1  14
TORSDOF 8
ENDMDL
MODEL 9
REMARK VINA RESULT:      -5.6      8.389      9.487
REMARK  Name = Isoetharine
REMARK  11 active torsions:
REMARK  status: ('A' for Active; 'I' for Inactive)
REMARK    1  A    between atoms: C_1  and  C_2
REMARK    2  A    between atoms: C_2  and  C_3
REMARK    3  A    between atoms: C_3  and  N_4
REMARK    4  A    between atoms: C_3  and  C_8
REMARK    5  A    between atoms: N_4  and  C_5
REMARK    6  A    between atoms: C_5  and  C_6
REMARK    7  A    between atoms: C_5  and  C_7
REMARK    8  A    between atoms: C_8  and  O_9
REMARK    9  A    between atoms: C_8  and  C_10
REMARK   10  A    between atoms: C_12  and  O_13
REMARK   11  A    between atoms: C_14  and  O_15
REMARK                            x       y       z     vdW  Elec       q    Type
REMARK                         _______ _______ _______ _____ _____    ______ ____
ROOT
ATOM      1  C   UNL     1      -9.243   0.589 125.225  0.00  0.00    +0.000 C 
ENDROOT
BRANCH   1   2
ATOM      2  C   UNL     1      -8.427   1.549 124.365  0.00  0.00    +0.000 A 
ATOM      3  C   UNL     1      -8.984   2.232 123.272  0.00  0.00    +0.000 A 
ATOM      4  C   UNL     1      -8.225   3.153 122.559  0.00  0.00    +0.000 A 
ATOM      5  C   UNL     1      -6.904   3.414 122.932  0.00  0.00    +0.000 A 
ATOM      6  C   UNL     1      -6.332   2.748 123.999  0.00  0.00    +0.000 A 
ATOM      7  C   UNL     1      -7.081   1.811 124.709  0.00  0.00    +0.000 A 
BRANCH   4   8
ATOM      8  O   UNL     1      -8.733   3.839 121.494  0.00  0.00    +0.000 OA
ATOM      9  H   UNL     1      -8.775   3.229 120.733  0.00  0.00    +0.000 HD
ENDBRANCH   4   8
BRANCH   5  10
ATOM     10  O   UNL     1      -6.167   4.336 122.249  0.00  0.00    +0.000 OA
ATOM     11  H   UNL     1      -5.248   4.195 122.547  0.00  0.00    +0.000 HD
ENDBRANCH   5  10
ENDBRANCH   1   2
BRANCH   1  12
ATOM     12  O   UNL     1      -9.487   1.220 126.488  0.00  0.00    +0.000 OA
ATOM     13  H   UNL     1     -10.103   1.953 126.337  0.00  0.00    +0.000 HD
ENDBRANCH   1  12
BRANCH   1  14
ATOM     14  C   UNL     1      -8.561  -0.843 125.386  0.00  0.00    +0.000 C 
BRANCH  14  16
ATOM     15  C   UNL     1      -6.589  -0.939 127.186  0.00  0.00    +0.000 C 
ATOM     16  C   UNL     1      -8.100  -1.016 126.872  0.00  0.00    +0.000 C 
ENDBRANCH  14  16
BRANCH  14  17
ATOM     17  N   UNL     1      -9.504  -1.870 124.834  0.00  0.00    +0.000 NA
ATOM     18  H   UNL     1     -10.287  -1.367 124.406  0.00  0.00    +0.000 HD
BRANCH  17  19
ATOM     19  C   UNL     1      -8.967  -2.801 123.841  0.00  0.00    +0.000 C 
ATOM     20  C   UNL     1      -8.254  -2.054 122.719  0.00  0.00    +0.000 C 
ATOM     21  C   UNL     1      -7.863  -3.713 124.390  0.00  0.00    +0.000 C 
ENDBRANCH  17  19
ENDBRANCH  14  17
ENDBRANCH   1  14
TORSDOF 8
ENDMDL
