MODEL 1
REMARK VINA RESULT:      -5.0      0.000      0.000
REMARK  Name = Isoflurophate
REMARK  8 active torsions:
REMARK  status: ('A' for Active; 'I' for Inactive)
REMARK    1  A    between atoms: C_1  and  C_2
REMARK    2  A    between atoms: C_2  and  C_3
REMARK    3  A    between atoms: C_2  and  O_4
REMARK    4  A    between atoms: O_4  and  P_5
REMARK    5  A    between atoms: P_5  and  O_8
REMARK    6  A    between atoms: O_8  and  C_9
REMARK    7  A    between atoms: C_9  and  C_10
REMARK    8  A    between atoms: C_9  and  C_11
REMARK                            x       y       z     vdW  Elec       q    Type
REMARK                         _______ _______ _______ _____ _____    ______ ____
ROOT
ATOM      1  P   UNL     1     -10.394   7.075 128.908  0.00  0.00    +0.000 P 
ATOM      2  F   UNL     1     -10.348   8.497 128.188  0.00  0.00    +0.000 F 
ATOM      3  O   UNL     1      -9.525   6.072 128.143  0.00  0.00    +0.000 OA
ENDROOT
BRANCH   1   4
ATOM      4  O   UNL     1      -9.025   7.511 129.871  0.00  0.00    +0.000 OA
BRANCH   4   6
ATOM      5  C   UNL     1      -7.119   6.805 131.239  0.00  0.00    +0.000 C 
ATOM      6  C   UNL     1      -8.507   6.457 130.720  0.00  0.00    +0.000 C 
ATOM      7  C   UNL     1      -9.387   6.151 131.935  0.00  0.00    +0.000 C 
ENDBRANCH   4   6
ENDBRANCH   1   4
BRANCH   1   8
ATOM      8  O   UNL     1     -11.763   6.639 127.945  0.00  0.00    +0.000 OA
BRANCH   8   9
ATOM      9  C   UNL     1     -13.049   6.822 128.585  0.00  0.00    +0.000 C 
ATOM     10  C   UNL     1     -12.953   7.259 130.049  0.00  0.00    +0.000 C 
ATOM     11  C   UNL     1     -13.885   7.860 127.850  0.00  0.00    +0.000 C 
ENDBRANCH   8   9
ENDBRANCH   1   8
TORSDOF 4
ENDMDL
MODEL 2
REMARK VINA RESULT:      -5.0      1.164      1.617
REMARK  Name = Isoflurophate
REMARK  8 active torsions:
REMARK  status: ('A' for Active; 'I' for Inactive)
REMARK    1  A    between atoms: C_1  and  C_2
REMARK    2  A    between atoms: C_2  and  C_3
REMARK    3  A    between atoms: C_2  and  O_4
REMARK    4  A    between atoms: O_4  and  P_5
REMARK    5  A    between atoms: P_5  and  O_8
REMARK    6  A    between atoms: O_8  and  C_9
REMARK    7  A    between atoms: C_9  and  C_10
REMARK    8  A    between atoms: C_9  and  C_11
REMARK                            x       y       z     vdW  Elec       q    Type
REMARK                         _______ _______ _______ _____ _____    ______ ____
ROOT
ATOM      1  P   UNL     1     -10.555   7.396 128.302  0.00  0.00    +0.000 P 
ATOM      2  F   UNL     1      -9.862   8.827 128.432  0.00  0.00    +0.000 F 
ATOM      3  O   UNL     1     -10.088   6.702 127.019  0.00  0.00    +0.000 OA
ENDROOT
BRANCH   1   4
ATOM      4  O   UNL     1      -9.239   6.674 129.161  0.00  0.00    +0.000 OA
BRANCH   4   6
ATOM      5  C   UNL     1     -10.163   6.391 131.411  0.00  0.00    +0.000 C 
ATOM      6  C   UNL     1      -9.113   7.074 130.548  0.00  0.00    +0.000 C 
ATOM      7  C   UNL     1      -7.744   6.764 131.160  0.00  0.00    +0.000 C 
ENDBRANCH   4   6
ENDBRANCH   1   4
BRANCH   1   8
ATOM      8  O   UNL     1     -11.872   8.119 127.443  0.00  0.00    +0.000 OA
BRANCH   8   9
ATOM      9  C   UNL     1     -13.099   8.255 128.200  0.00  0.00    +0.000 C 
ATOM     10  C   UNL     1     -13.415   7.048 129.086  0.00  0.00    +0.000 C 
ATOM     11  C   UNL     1     -13.056   9.484 129.097  0.00  0.00    +0.000 C 
ENDBRANCH   8   9
ENDBRANCH   1   8
TORSDOF 4
ENDMDL
MODEL 3
REMARK VINA RESULT:      -4.9      2.445      2.785
REMARK  Name = Isoflurophate
REMARK  8 active torsions:
REMARK  status: ('A' for Active; 'I' for Inactive)
REMARK    1  A    between atoms: C_1  and  C_2
REMARK    2  A    between atoms: C_2  and  C_3
REMARK    3  A    between atoms: C_2  and  O_4
REMARK    4  A    between atoms: O_4  and  P_5
REMARK    5  A    between atoms: P_5  and  O_8
REMARK    6  A    between atoms: O_8  and  C_9
REMARK    7  A    between atoms: C_9  and  C_10
REMARK    8  A    between atoms: C_9  and  C_11
REMARK                            x       y       z     vdW  Elec       q    Type
REMARK                         _______ _______ _______ _____ _____    ______ ____
ROOT
ATOM      1  P   UNL     1     -11.887   6.877 130.696  0.00  0.00    +0.000 P 
ATOM      2  F   UNL     1     -11.727   5.328 130.352  0.00  0.00    +0.000 F 
ATOM      3  O   UNL     1     -13.114   7.093 131.588  0.00  0.00    +0.000 OA
ENDROOT
BRANCH   1   4
ATOM      4  O   UNL     1     -10.909   6.672 132.108  0.00  0.00    +0.000 OA
BRANCH   4   6
ATOM      5  C   UNL     1      -8.778   6.873 130.918  0.00  0.00    +0.000 C 
ATOM      6  C   UNL     1      -9.620   6.049 131.880  0.00  0.00    +0.000 C 
ATOM      7  C   UNL     1      -8.796   5.848 133.155  0.00  0.00    +0.000 C 
ENDBRANCH   4   6
ENDBRANCH   1   4
BRANCH   1   8
ATOM      8  O   UNL     1     -12.866   7.083 129.284  0.00  0.00    +0.000 OA
BRANCH   8   9
ATOM      9  C   UNL     1     -12.532   8.231 128.466  0.00  0.00    +0.000 C 
ATOM     10  C   UNL     1     -13.136   9.543 128.969  0.00  0.00    +0.000 C 
ATOM     11  C   UNL     1     -11.025   8.422 128.380  0.00  0.00    +0.000 C 
ENDBRANCH   8   9
ENDBRANCH   1   8
TORSDOF 4
ENDMDL
MODEL 4
REMARK VINA RESULT:      -4.7      2.095      4.824
REMARK  Name = Isoflurophate
REMARK  8 active torsions:
REMARK  status: ('A' for Active; 'I' for Inactive)
REMARK    1  A    between atoms: C_1  and  C_2
REMARK    2  A    between atoms: C_2  and  C_3
REMARK    3  A    between atoms: C_2  and  O_4
REMARK    4  A    between atoms: O_4  and  P_5
REMARK    5  A    between atoms: P_5  and  O_8
REMARK    6  A    between atoms: O_8  and  C_9
REMARK    7  A    between atoms: C_9  and  C_10
REMARK    8  A    between atoms: C_9  and  C_11
REMARK                            x       y       z     vdW  Elec       q    Type
REMARK                         _______ _______ _______ _____ _____    ______ ____
ROOT
ATOM      1  P   UNL     1     -11.637   6.380 130.080  0.00  0.00    +0.000 P 
ATOM      2  F   UNL     1     -13.031   6.707 130.784  0.00  0.00    +0.000 F 
ATOM      3  O   UNL     1     -11.439   4.864 129.989  0.00  0.00    +0.000 OA
ENDROOT
BRANCH   1   4
ATOM      4  O   UNL     1     -12.414   6.361 128.535  0.00  0.00    +0.000 OA
BRANCH   4   6
ATOM      5  C   UNL     1     -13.412   8.568 128.165  0.00  0.00    +0.000 C 
ATOM      6  C   UNL     1     -12.310   7.592 127.777  0.00  0.00    +0.000 C 
ATOM      7  C   UNL     1     -10.973   8.317 127.954  0.00  0.00    +0.000 C 
ENDBRANCH   4   6
ENDBRANCH   1   4
BRANCH   1   8
ATOM      8  O   UNL     1     -10.860   6.399 131.626  0.00  0.00    +0.000 OA
BRANCH   8   9
ATOM      9  C   UNL     1      -9.473   5.981 131.622  0.00  0.00    +0.000 C 
ATOM     10  C   UNL     1      -8.549   6.918 130.842  0.00  0.00    +0.000 C 
ATOM     11  C   UNL     1      -8.929   5.875 133.039  0.00  0.00    +0.000 C 
ENDBRANCH   8   9
ENDBRANCH   1   8
TORSDOF 4
ENDMDL
MODEL 5
REMARK VINA RESULT:      -4.6      1.407      4.738
REMARK  Name = Isoflurophate
REMARK  8 active torsions:
REMARK  status: ('A' for Active; 'I' for Inactive)
REMARK    1  A    between atoms: C_1  and  C_2
REMARK    2  A    between atoms: C_2  and  C_3
REMARK    3  A    between atoms: C_2  and  O_4
REMARK    4  A    between atoms: O_4  and  P_5
REMARK    5  A    between atoms: P_5  and  O_8
REMARK    6  A    between atoms: O_8  and  C_9
REMARK    7  A    between atoms: C_9  and  C_10
REMARK    8  A    between atoms: C_9  and  C_11
REMARK                            x       y       z     vdW  Elec       q    Type
REMARK                         _______ _______ _______ _____ _____    ______ ____
ROOT
ATOM      1  P   UNL     1     -10.191   7.461 128.974  0.00  0.00    +0.000 P 
ATOM      2  F   UNL     1     -11.337   6.815 129.875  0.00  0.00    +0.000 F 
ATOM      3  O   UNL     1     -10.044   6.674 127.668  0.00  0.00    +0.000 OA
ENDROOT
BRANCH   1   4
ATOM      4  O   UNL     1     -11.359   8.486 128.213  0.00  0.00    +0.000 OA
BRANCH   4   6
ATOM      5  C   UNL     1     -13.167   9.797 129.219  0.00  0.00    +0.000 C 
ATOM      6  C   UNL     1     -12.694   8.421 128.773  0.00  0.00    +0.000 C 
ATOM      7  C   UNL     1     -13.745   7.866 127.806  0.00  0.00    +0.000 C 
ENDBRANCH   4   6
ENDBRANCH   1   4
BRANCH   1   8
ATOM      8  O   UNL     1      -9.023   6.436 129.734  0.00  0.00    +0.000 OA
BRANCH   8   9
ATOM      9  C   UNL     1      -8.561   6.887 131.031  0.00  0.00    +0.000 C 
ATOM     10  C   UNL     1      -9.076   6.041 132.197  0.00  0.00    +0.000 C 
ATOM     11  C   UNL     1      -7.041   6.889 131.101  0.00  0.00    +0.000 C 
ENDBRANCH   8   9
ENDBRANCH   1   8
TORSDOF 4
ENDMDL
MODEL 6
REMARK VINA RESULT:      -4.4      1.392      4.633
REMARK  Name = Isoflurophate
REMARK  8 active torsions:
REMARK  status: ('A' for Active; 'I' for Inactive)
REMARK    1  A    between atoms: C_1  and  C_2
REMARK    2  A    between atoms: C_2  and  C_3
REMARK    3  A    between atoms: C_2  and  O_4
REMARK    4  A    between atoms: O_4  and  P_5
REMARK    5  A    between atoms: P_5  and  O_8
REMARK    6  A    between atoms: O_8  and  C_9
REMARK    7  A    between atoms: C_9  and  C_10
REMARK    8  A    between atoms: C_9  and  C_11
REMARK                            x       y       z     vdW  Elec       q    Type
REMARK                         _______ _______ _______ _____ _____    ______ ____
ROOT
ATOM      1  P   UNL     1     -10.387   6.418 129.342  0.00  0.00    +0.000 P 
ATOM      2  F   UNL     1     -10.086   4.882 129.650  0.00  0.00    +0.000 F 
ATOM      3  O   UNL     1     -10.057   6.734 127.880  0.00  0.00    +0.000 OA
ENDROOT
BRANCH   1   4
ATOM      4  O   UNL     1     -12.004   6.015 128.880  0.00  0.00    +0.000 OA
BRANCH   4   6
ATOM      5  C   UNL     1     -12.752   7.325 130.810  0.00  0.00    +0.000 C 
ATOM      6  C   UNL     1     -13.029   6.914 129.371  0.00  0.00    +0.000 C 
ATOM      7  C   UNL     1     -13.173   8.198 128.548  0.00  0.00    +0.000 C 
ENDBRANCH   4   6
ENDBRANCH   1   4
BRANCH   1   8
ATOM      8  O   UNL     1      -8.769   6.821 129.805  0.00  0.00    +0.000 OA
BRANCH   8   9
ATOM      9  C   UNL     1      -8.280   6.141 130.986  0.00  0.00    +0.000 C 
ATOM     10  C   UNL     1      -6.911   6.634 131.459  0.00  0.00    +0.000 C 
ATOM     11  C   UNL     1      -9.250   6.295 132.148  0.00  0.00    +0.000 C 
ENDBRANCH   8   9
ENDBRANCH   1   8
TORSDOF 4
ENDMDL
MODEL 7
REMARK VINA RESULT:      -4.4     10.970     11.505
REMARK  Name = Isoflurophate
REMARK  8 active torsions:
REMARK  status: ('A' for Active; 'I' for Inactive)
REMARK    1  A    between atoms: C_1  and  C_2
REMARK    2  A    between atoms: C_2  and  C_3
REMARK    3  A    between atoms: C_2  and  O_4
REMARK    4  A    between atoms: O_4  and  P_5
REMARK    5  A    between atoms: P_5  and  O_8
REMARK    6  A    between atoms: O_8  and  C_9
REMARK    7  A    between atoms: C_9  and  C_10
REMARK    8  A    between atoms: C_9  and  C_11
REMARK                            x       y       z     vdW  Elec       q    Type
REMARK                         _______ _______ _______ _____ _____    ______ ____
ROOT
ATOM      1  P   UNL     1      -8.177  -2.920 124.590  0.00  0.00    +0.000 P 
ATOM      2  F   UNL     1      -8.975  -3.473 123.325  0.00  0.00    +0.000 F 
ATOM      3  O   UNL     1      -8.583  -3.696 125.847  0.00  0.00    +0.000 OA
ENDROOT
BRANCH   1   4
ATOM      4  O   UNL     1      -6.914  -4.067 124.302  0.00  0.00    +0.000 OA
BRANCH   4   6
ATOM      5  C   UNL     1      -4.593  -4.573 123.704  0.00  0.00    +0.000 C 
ATOM      6  C   UNL     1      -5.602  -3.496 124.075  0.00  0.00    +0.000 C 
ATOM      7  C   UNL     1      -5.570  -2.438 122.968  0.00  0.00    +0.000 C 
ENDBRANCH   4   6
ENDBRANCH   1   4
BRANCH   1   8
ATOM      8  O   UNL     1      -9.440  -1.773 124.878  0.00  0.00    +0.000 OA
BRANCH   8   9
ATOM      9  C   UNL     1      -9.067  -0.387 124.686  0.00  0.00    +0.000 C 
ATOM     10  C   UNL     1      -7.622  -0.076 125.081  0.00  0.00    +0.000 C 
ATOM     11  C   UNL     1      -9.246   0.032 123.234  0.00  0.00    +0.000 C 
ENDBRANCH   8   9
ENDBRANCH   1   8
TORSDOF 4
ENDMDL
MODEL 8
REMARK VINA RESULT:      -4.3      1.494      1.981
REMARK  Name = Isoflurophate
REMARK  8 active torsions:
REMARK  status: ('A' for Active; 'I' for Inactive)
REMARK    1  A    between atoms: C_1  and  C_2
REMARK    2  A    between atoms: C_2  and  C_3
REMARK    3  A    between atoms: C_2  and  O_4
REMARK    4  A    between atoms: O_4  and  P_5
REMARK    5  A    between atoms: P_5  and  O_8
REMARK    6  A    between atoms: O_8  and  C_9
REMARK    7  A    between atoms: C_9  and  C_10
REMARK    8  A    between atoms: C_9  and  C_11
REMARK                            x       y       z     vdW  Elec       q    Type
REMARK                         _______ _______ _______ _____ _____    ______ ____
ROOT
ATOM      1  P   UNL     1     -10.225   5.997 129.564  0.00  0.00    +0.000 P 
ATOM      2  F   UNL     1     -10.229   7.413 130.298  0.00  0.00    +0.000 F 
ATOM      3  O   UNL     1      -9.549   6.118 128.195  0.00  0.00    +0.000 OA
ENDROOT
BRANCH   1   4
ATOM      4  O   UNL     1      -8.693   5.624 130.276  0.00  0.00    +0.000 OA
BRANCH   4   6
ATOM      5  C   UNL     1      -8.376   5.953 132.682  0.00  0.00    +0.000 C 
ATOM      6  C   UNL     1      -8.242   6.555 131.291  0.00  0.00    +0.000 C 
ATOM      7  C   UNL     1      -6.786   6.998 131.122  0.00  0.00    +0.000 C 
ENDBRANCH   4   6
ENDBRANCH   1   4
BRANCH   1   8
ATOM      8  O   UNL     1     -11.757   6.370 128.852  0.00  0.00    +0.000 OA
BRANCH   8   9
ATOM      9  C   UNL     1     -11.741   7.452 127.890  0.00  0.00    +0.000 C 
ATOM     10  C   UNL     1     -12.357   7.085 126.538  0.00  0.00    +0.000 C 
ATOM     11  C   UNL     1     -12.488   8.667 128.419  0.00  0.00    +0.000 C 
ENDBRANCH   8   9
ENDBRANCH   1   8
TORSDOF 4
ENDMDL
MODEL 9
REMARK VINA RESULT:      -4.2      2.496      4.590
REMARK  Name = Isoflurophate
REMARK  8 active torsions:
REMARK  status: ('A' for Active; 'I' for Inactive)
REMARK    1  A    between atoms: C_1  and  C_2
REMARK    2  A    between atoms: C_2  and  C_3
REMARK    3  A    between atoms: C_2  and  O_4
REMARK    4  A    between atoms: O_4  and  P_5
REMARK    5  A    between atoms: P_5  and  O_8
REMARK    6  A    between atoms: O_8  and  C_9
REMARK    7  A    between atoms: C_9  and  C_10
REMARK    8  A    between atoms: C_9  and  C_11
REMARK                            x       y       z     vdW  Elec       q    Type
REMARK                         _______ _______ _______ _____ _____    ______ ____
ROOT
ATOM      1  P   UNL     1     -11.644   6.686 130.393  0.00  0.00    +0.000 P 
ATOM      2  F   UNL     1     -10.195   7.211 130.805  0.00  0.00    +0.000 F 
ATOM      3  O   UNL     1     -12.580   6.726 131.604  0.00  0.00    +0.000 OA
ENDROOT
BRANCH   1   4
ATOM      4  O   UNL     1     -12.119   8.298 129.984  0.00  0.00    +0.000 OA
BRANCH   4   6
ATOM      5  C   UNL     1     -11.020   8.341 127.796  0.00  0.00    +0.000 C 
ATOM      6  C   UNL     1     -12.315   8.544 128.569  0.00  0.00    +0.000 C 
ATOM      7  C   UNL     1     -13.378   7.650 127.926  0.00  0.00    +0.000 C 
ENDBRANCH   4   6
ENDBRANCH   1   4
BRANCH   1   8
ATOM      8  O   UNL     1     -11.168   5.073 130.801  0.00  0.00    +0.000 OA
BRANCH   8   9
ATOM      9  C   UNL     1      -9.746   4.885 131.008  0.00  0.00    +0.000 C 
ATOM     10  C   UNL     1      -9.396   4.274 132.366  0.00  0.00    +0.000 C 
ATOM     11  C   UNL     1      -9.151   3.988 129.933  0.00  0.00    +0.000 C 
ENDBRANCH   8   9
ENDBRANCH   1   8
TORSDOF 4
ENDMDL
