MODEL 1
REMARK VINA RESULT:      -4.9      0.000      0.000
REMARK  Name = Isoflurane
REMARK  3 active torsions:
REMARK  status: ('A' for Active; 'I' for Inactive)
REMARK    1  A    between atoms: C_2  and  O_4
REMARK    2  A    between atoms: O_4  and  C_5
REMARK    3  A    between atoms: C_5  and  C_7
REMARK                            x       y       z     vdW  Elec       q    Type
REMARK                         _______ _______ _______ _____ _____    ______ ____
ROOT
ATOM      1  C   UNL     1     -12.294   8.977 129.154  0.00  0.00    +0.000 C 
ATOM      2 CL   UNL     1     -13.534  10.271 129.128  0.00  0.00    +0.000 Cl
ENDROOT
BRANCH   1   3
ATOM      3  C   UNL     1     -12.605   7.998 130.301  0.00  0.00    +0.000 C 
ATOM      4  F   UNL     1     -13.158   8.609 131.371  0.00  0.00    +0.000 F 
ATOM      5  F   UNL     1     -13.466   7.032 129.892  0.00  0.00    +0.000 F 
ATOM      6  F   UNL     1     -11.486   7.363 130.724  0.00  0.00    +0.000 F 
ENDBRANCH   1   3
BRANCH   1   7
ATOM      7  O   UNL     1     -12.255   8.294 127.896  0.00  0.00    +0.000 OA
BRANCH   7   9
ATOM      8  F   UNL     1     -10.884   8.216 126.146  0.00  0.00    +0.000 F 
ATOM      9  C   UNL     1     -10.945   7.975 127.480  0.00  0.00    +0.000 C 
ATOM     10  F   UNL     1     -10.078   8.827 128.064  0.00  0.00    +0.000 F 
ENDBRANCH   7   9
ENDBRANCH   1   7
TORSDOF 3
ENDMDL
MODEL 2
REMARK VINA RESULT:      -4.7      2.091      2.453
REMARK  Name = Isoflurane
REMARK  3 active torsions:
REMARK  status: ('A' for Active; 'I' for Inactive)
REMARK    1  A    between atoms: C_2  and  O_4
REMARK    2  A    between atoms: O_4  and  C_5
REMARK    3  A    between atoms: C_5  and  C_7
REMARK                            x       y       z     vdW  Elec       q    Type
REMARK                         _______ _______ _______ _____ _____    ______ ____
ROOT
ATOM      1  C   UNL     1     -11.438   6.967 129.234  0.00  0.00    +0.000 C 
ATOM      2 CL   UNL     1     -10.420   8.290 128.582  0.00  0.00    +0.000 Cl
ENDROOT
BRANCH   1   3
ATOM      3  C   UNL     1     -12.296   7.510 130.391  0.00  0.00    +0.000 C 
ATOM      4  F   UNL     1     -11.756   7.258 131.603  0.00  0.00    +0.000 F 
ATOM      5  F   UNL     1     -12.456   8.854 130.286  0.00  0.00    +0.000 F 
ATOM      6  F   UNL     1     -13.540   6.972 130.377  0.00  0.00    +0.000 F 
ENDBRANCH   1   3
BRANCH   1   7
ATOM      7  O   UNL     1     -12.264   6.415 128.202  0.00  0.00    +0.000 OA
BRANCH   7   9
ATOM      8  F   UNL     1     -12.656   6.704 126.032  0.00  0.00    +0.000 F 
ATOM      9  C   UNL     1     -12.627   7.360 127.219  0.00  0.00    +0.000 C 
ATOM     10  F   UNL     1     -13.886   7.779 127.458  0.00  0.00    +0.000 F 
ENDBRANCH   7   9
ENDBRANCH   1   7
TORSDOF 3
ENDMDL
MODEL 3
REMARK VINA RESULT:      -4.6      1.188      3.672
REMARK  Name = Isoflurane
REMARK  3 active torsions:
REMARK  status: ('A' for Active; 'I' for Inactive)
REMARK    1  A    between atoms: C_2  and  O_4
REMARK    2  A    between atoms: O_4  and  C_5
REMARK    3  A    between atoms: C_5  and  C_7
REMARK                            x       y       z     vdW  Elec       q    Type
REMARK                         _______ _______ _______ _____ _____    ______ ____
ROOT
ATOM      1  C   UNL     1     -12.363   7.714 128.048  0.00  0.00    +0.000 C 
ATOM      2 CL   UNL     1     -13.062   9.299 128.506  0.00  0.00    +0.000 Cl
ENDROOT
BRANCH   1   3
ATOM      3  C   UNL     1     -10.937   7.925 127.509  0.00  0.00    +0.000 C 
ATOM      4  F   UNL     1     -10.912   8.161 126.180  0.00  0.00    +0.000 F 
ATOM      5  F   UNL     1     -10.338   8.977 128.123  0.00  0.00    +0.000 F 
ATOM      6  F   UNL     1     -10.154   6.844 127.748  0.00  0.00    +0.000 F 
ENDBRANCH   1   3
BRANCH   1   7
ATOM      7  O   UNL     1     -12.358   6.825 129.171  0.00  0.00    +0.000 OA
BRANCH   7   9
ATOM      8  F   UNL     1     -13.359   7.093 131.139  0.00  0.00    +0.000 F 
ATOM      9  C   UNL     1     -12.290   7.498 130.410  0.00  0.00    +0.000 C 
ATOM     10  F   UNL     1     -11.191   7.086 131.074  0.00  0.00    +0.000 F 
ENDBRANCH   7   9
ENDBRANCH   1   7
TORSDOF 3
ENDMDL
MODEL 4
REMARK VINA RESULT:      -4.6      2.363      3.315
REMARK  Name = Isoflurane
REMARK  3 active torsions:
REMARK  status: ('A' for Active; 'I' for Inactive)
REMARK    1  A    between atoms: C_2  and  O_4
REMARK    2  A    between atoms: O_4  and  C_5
REMARK    3  A    between atoms: C_5  and  C_7
REMARK                            x       y       z     vdW  Elec       q    Type
REMARK                         _______ _______ _______ _____ _____    ______ ____
ROOT
ATOM      1  C   UNL     1     -11.830   7.438 129.321  0.00  0.00    +0.000 C 
ATOM      2 CL   UNL     1     -11.640   6.905 131.022  0.00  0.00    +0.000 Cl
ENDROOT
BRANCH   1   3
ATOM      3  C   UNL     1     -10.443   7.745 128.728  0.00  0.00    +0.000 C 
ATOM      4  F   UNL     1     -10.006   6.775 127.896  0.00  0.00    +0.000 F 
ATOM      5  F   UNL     1     -10.463   8.907 128.027  0.00  0.00    +0.000 F 
ATOM      6  F   UNL     1      -9.514   7.900 129.702  0.00  0.00    +0.000 F 
ENDBRANCH   1   3
BRANCH   1   7
ATOM      7  O   UNL     1     -12.502   6.433 128.553  0.00  0.00    +0.000 OA
BRANCH   7   9
ATOM      8  F   UNL     1     -13.609   8.261 127.939  0.00  0.00    +0.000 F 
ATOM      9  C   UNL     1     -13.386   6.969 127.593  0.00  0.00    +0.000 C 
ATOM     10  F   UNL     1     -12.770   6.993 126.393  0.00  0.00    +0.000 F 
ENDBRANCH   7   9
ENDBRANCH   1   7
TORSDOF 3
ENDMDL
MODEL 5
REMARK VINA RESULT:      -4.6      1.774      3.760
REMARK  Name = Isoflurane
REMARK  3 active torsions:
REMARK  status: ('A' for Active; 'I' for Inactive)
REMARK    1  A    between atoms: C_2  and  O_4
REMARK    2  A    between atoms: O_4  and  C_5
REMARK    3  A    between atoms: C_5  and  C_7
REMARK                            x       y       z     vdW  Elec       q    Type
REMARK                         _______ _______ _______ _____ _____    ______ ____
ROOT
ATOM      1  C   UNL     1     -11.706   7.146 128.691  0.00  0.00    +0.000 C 
ATOM      2 CL   UNL     1     -13.348   6.938 128.003  0.00  0.00    +0.000 Cl
ENDROOT
BRANCH   1   3
ATOM      3  C   UNL     1     -10.778   7.741 127.616  0.00  0.00    +0.000 C 
ATOM      4  F   UNL     1      -9.919   6.831 127.107  0.00  0.00    +0.000 F 
ATOM      5  F   UNL     1     -11.496   8.248 126.582  0.00  0.00    +0.000 F 
ATOM      6  F   UNL     1     -10.042   8.766 128.113  0.00  0.00    +0.000 F 
ENDBRANCH   1   3
BRANCH   1   7
ATOM      7  O   UNL     1     -11.751   7.987 129.849  0.00  0.00    +0.000 OA
BRANCH   7   9
ATOM      8  F   UNL     1     -13.105   9.108 131.211  0.00  0.00    +0.000 F 
ATOM      9  C   UNL     1     -12.912   8.787 129.908  0.00  0.00    +0.000 C 
ATOM     10  F   UNL     1     -12.682   9.944 129.256  0.00  0.00    +0.000 F 
ENDBRANCH   7   9
ENDBRANCH   1   7
TORSDOF 3
ENDMDL
MODEL 6
REMARK VINA RESULT:      -4.6      2.223      2.866
REMARK  Name = Isoflurane
REMARK  3 active torsions:
REMARK  status: ('A' for Active; 'I' for Inactive)
REMARK    1  A    between atoms: C_2  and  O_4
REMARK    2  A    between atoms: O_4  and  C_5
REMARK    3  A    between atoms: C_5  and  C_7
REMARK                            x       y       z     vdW  Elec       q    Type
REMARK                         _______ _______ _______ _____ _____    ______ ____
ROOT
ATOM      1  C   UNL     1     -11.654   7.591 128.058  0.00  0.00    +0.000 C 
ATOM      2 CL   UNL     1     -11.936   7.140 126.346  0.00  0.00    +0.000 Cl
ENDROOT
BRANCH   1   3
ATOM      3  C   UNL     1     -12.985   8.038 128.690  0.00  0.00    +0.000 C 
ATOM      4  F   UNL     1     -13.887   8.445 127.771  0.00  0.00    +0.000 F 
ATOM      5  F   UNL     1     -13.549   7.026 129.396  0.00  0.00    +0.000 F 
ATOM      6  F   UNL     1     -12.798   9.058 129.562  0.00  0.00    +0.000 F 
ENDBRANCH   1   3
BRANCH   1   7
ATOM      7  O   UNL     1     -11.089   6.491 128.779  0.00  0.00    +0.000 OA
BRANCH   7   9
ATOM      8  F   UNL     1      -9.706   8.126 129.378  0.00  0.00    +0.000 F 
ATOM      9  C   UNL     1     -10.134   6.891 129.738  0.00  0.00    +0.000 C 
ATOM     10  F   UNL     1     -10.742   7.027 130.934  0.00  0.00    +0.000 F 
ENDBRANCH   7   9
ENDBRANCH   1   7
TORSDOF 3
ENDMDL
MODEL 7
REMARK VINA RESULT:      -4.5      2.456      3.358
REMARK  Name = Isoflurane
REMARK  3 active torsions:
REMARK  status: ('A' for Active; 'I' for Inactive)
REMARK    1  A    between atoms: C_2  and  O_4
REMARK    2  A    between atoms: O_4  and  C_5
REMARK    3  A    between atoms: C_5  and  C_7
REMARK                            x       y       z     vdW  Elec       q    Type
REMARK                         _______ _______ _______ _____ _____    ______ ____
ROOT
ATOM      1  C   UNL     1     -13.128   7.053 129.548  0.00  0.00    +0.000 C 
ATOM      2 CL   UNL     1     -12.858   7.359 131.293  0.00  0.00    +0.000 Cl
ENDROOT
BRANCH   1   3
ATOM      3  C   UNL     1     -12.903   8.359 128.764  0.00  0.00    +0.000 C 
ATOM      4  F   UNL     1     -13.886   8.606 127.871  0.00  0.00    +0.000 F 
ATOM      5  F   UNL     1     -12.837   9.423 129.604  0.00  0.00    +0.000 F 
ATOM      6  F   UNL     1     -11.730   8.330 128.085  0.00  0.00    +0.000 F 
ENDBRANCH   1   3
BRANCH   1   7
ATOM      7  O   UNL     1     -12.256   6.019 129.079  0.00  0.00    +0.000 OA
BRANCH   7   9
ATOM      8  F   UNL     1     -11.621   4.188 130.170  0.00  0.00    +0.000 F 
ATOM      9  C   UNL     1     -11.396   5.523 130.082  0.00  0.00    +0.000 C 
ATOM     10  F   UNL     1     -10.118   5.672 129.679  0.00  0.00    +0.000 F 
ENDBRANCH   7   9
ENDBRANCH   1   7
TORSDOF 3
ENDMDL
MODEL 8
REMARK VINA RESULT:      -4.4      2.269      2.505
REMARK  Name = Isoflurane
REMARK  3 active torsions:
REMARK  status: ('A' for Active; 'I' for Inactive)
REMARK    1  A    between atoms: C_2  and  O_4
REMARK    2  A    between atoms: O_4  and  C_5
REMARK    3  A    between atoms: C_5  and  C_7
REMARK                            x       y       z     vdW  Elec       q    Type
REMARK                         _______ _______ _______ _____ _____    ______ ____
ROOT
ATOM      1  C   UNL     1     -11.408   6.977 130.282  0.00  0.00    +0.000 C 
ATOM      2 CL   UNL     1     -10.824   6.410 131.879  0.00  0.00    +0.000 Cl
ENDROOT
BRANCH   1   3
ATOM      3  C   UNL     1     -12.787   7.639 130.452  0.00  0.00    +0.000 C 
ATOM      4  F   UNL     1     -13.324   7.417 131.672  0.00  0.00    +0.000 F 
ATOM      5  F   UNL     1     -12.704   8.983 130.281  0.00  0.00    +0.000 F 
ATOM      6  F   UNL     1     -13.669   7.187 129.527  0.00  0.00    +0.000 F 
ENDBRANCH   1   3
BRANCH   1   7
ATOM      7  O   UNL     1     -10.471   7.890 129.701  0.00  0.00    +0.000 OA
BRANCH   7   9
ATOM      8  F   UNL     1     -11.063   6.666 127.941  0.00  0.00    +0.000 F 
ATOM      9  C   UNL     1     -10.414   7.803 128.293  0.00  0.00    +0.000 C 
ATOM     10  F   UNL     1     -11.113   8.826 127.761  0.00  0.00    +0.000 F 
ENDBRANCH   7   9
ENDBRANCH   1   7
TORSDOF 3
ENDMDL
MODEL 9
REMARK VINA RESULT:      -4.4      2.426      3.757
REMARK  Name = Isoflurane
REMARK  3 active torsions:
REMARK  status: ('A' for Active; 'I' for Inactive)
REMARK    1  A    between atoms: C_2  and  O_4
REMARK    2  A    between atoms: O_4  and  C_5
REMARK    3  A    between atoms: C_5  and  C_7
REMARK                            x       y       z     vdW  Elec       q    Type
REMARK                         _______ _______ _______ _____ _____    ______ ____
ROOT
ATOM      1  C   UNL     1     -11.208   7.065 128.852  0.00  0.00    +0.000 C 
ATOM      2 CL   UNL     1     -12.875   6.407 128.838  0.00  0.00    +0.000 Cl
ENDROOT
BRANCH   1   3
ATOM      3  C   UNL     1     -11.135   8.280 127.909  0.00  0.00    +0.000 C 
ATOM      4  F   UNL     1     -11.067   7.926 126.607  0.00  0.00    +0.000 F 
ATOM      5  F   UNL     1     -12.224   9.076 128.060  0.00  0.00    +0.000 F 
ATOM      6  F   UNL     1     -10.054   9.050 128.181  0.00  0.00    +0.000 F 
ENDBRANCH   1   3
BRANCH   1   7
ATOM      7  O   UNL     1     -10.823   7.427 130.182  0.00  0.00    +0.000 OA
BRANCH   7   9
ATOM      8  F   UNL     1      -8.621   7.643 130.409  0.00  0.00    +0.000 F 
ATOM      9  C   UNL     1      -9.646   6.779 130.613  0.00  0.00    +0.000 C 
ATOM     10  F   UNL     1      -9.718   6.575 131.944  0.00  0.00    +0.000 F 
ENDBRANCH   7   9
ENDBRANCH   1   7
TORSDOF 3
ENDMDL
