MODEL 1
REMARK VINA RESULT:      -4.8      0.000      0.000
REMARK  Name = Isometheptene
REMARK  8 active torsions:
REMARK  status: ('A' for Active; 'I' for Inactive)
REMARK    1  A    between atoms: C_1  and  N_2
REMARK    2  A    between atoms: N_2  and  C_3
REMARK    3  A    between atoms: C_3  and  C_4
REMARK    4  A    between atoms: C_3  and  C_5
REMARK    5  A    between atoms: C_5  and  C_6
REMARK    6  A    between atoms: C_6  and  C_7
REMARK    7  A    between atoms: C_8  and  C_9
REMARK    8  A    between atoms: C_8  and  C_10
REMARK                            x       y       z     vdW  Elec       q    Type
REMARK                         _______ _______ _______ _____ _____    ______ ____
ROOT
ATOM      1  C   UNL     1     -12.434   7.060 131.304  0.00  0.00    +0.000 C 
ENDROOT
BRANCH   1   2
ATOM      2  C   UNL     1     -11.006   6.476 131.297  0.00  0.00    +0.000 C 
ATOM      3  C   UNL     1     -10.984   5.099 130.616  0.00  0.00    +0.000 C 
BRANCH   2   5
ATOM      4  C   UNL     1      -9.353   5.542 132.816  0.00  0.00    +0.000 C 
ATOM      5  N   UNL     1     -10.531   6.393 132.686  0.00  0.00    +0.000 NA
ATOM      6  H   UNL     1     -10.298   7.329 133.017  0.00  0.00    +0.000 HD
ENDBRANCH   2   5
ENDBRANCH   1   2
BRANCH   1   7
ATOM      7  C   UNL     1     -12.585   8.122 130.220  0.00  0.00    +0.000 C 
BRANCH   7   8
ATOM      8  C   UNL     1     -12.905   7.571 128.871  0.00  0.00    +0.000 C 
ATOM      9  C   UNL     1     -12.057   7.686 127.827  0.00  0.00    +0.000 C 
ATOM     10  C   UNL     1     -10.731   8.394 127.920  0.00  0.00    +0.000 C 
ATOM     11  C   UNL     1     -12.403   7.094 126.494  0.00  0.00    +0.000 C 
ENDBRANCH   7   8
ENDBRANCH   1   7
TORSDOF 4
ENDMDL
MODEL 2
REMARK VINA RESULT:      -4.8      1.936      4.371
REMARK  Name = Isometheptene
REMARK  8 active torsions:
REMARK  status: ('A' for Active; 'I' for Inactive)
REMARK    1  A    between atoms: C_1  and  N_2
REMARK    2  A    between atoms: N_2  and  C_3
REMARK    3  A    between atoms: C_3  and  C_4
REMARK    4  A    between atoms: C_3  and  C_5
REMARK    5  A    between atoms: C_5  and  C_6
REMARK    6  A    between atoms: C_6  and  C_7
REMARK    7  A    between atoms: C_8  and  C_9
REMARK    8  A    between atoms: C_8  and  C_10
REMARK                            x       y       z     vdW  Elec       q    Type
REMARK                         _______ _______ _______ _____ _____    ______ ____
ROOT
ATOM      1  C   UNL     1     -12.769   8.713 129.989  0.00  0.00    +0.000 C 
ENDROOT
BRANCH   1   2
ATOM      2  C   UNL     1     -12.672   8.764 128.450  0.00  0.00    +0.000 C 
ATOM      3  C   UNL     1     -13.397   7.566 127.819  0.00  0.00    +0.000 C 
BRANCH   2   5
ATOM      4  C   UNL     1     -10.966   7.915 126.941  0.00  0.00    +0.000 C 
ATOM      5  N   UNL     1     -11.251   8.789 128.074  0.00  0.00    +0.000 NA
ATOM      6  H   UNL     1     -10.986   9.743 127.829  0.00  0.00    +0.000 HD
ENDBRANCH   2   5
ENDBRANCH   1   2
BRANCH   1   7
ATOM      7  C   UNL     1     -12.940   7.276 130.468  0.00  0.00    +0.000 C 
BRANCH   7   8
ATOM      8  C   UNL     1     -12.026   6.895 131.585  0.00  0.00    +0.000 C 
ATOM      9  C   UNL     1     -10.863   6.243 131.373  0.00  0.00    +0.000 C 
ATOM     10  C   UNL     1     -10.395   5.823 130.004  0.00  0.00    +0.000 C 
ATOM     11  C   UNL     1      -9.958   5.903 132.518  0.00  0.00    +0.000 C 
ENDBRANCH   7   8
ENDBRANCH   1   7
TORSDOF 4
ENDMDL
MODEL 3
REMARK VINA RESULT:      -4.7     11.335     12.838
REMARK  Name = Isometheptene
REMARK  8 active torsions:
REMARK  status: ('A' for Active; 'I' for Inactive)
REMARK    1  A    between atoms: C_1  and  N_2
REMARK    2  A    between atoms: N_2  and  C_3
REMARK    3  A    between atoms: C_3  and  C_4
REMARK    4  A    between atoms: C_3  and  C_5
REMARK    5  A    between atoms: C_5  and  C_6
REMARK    6  A    between atoms: C_6  and  C_7
REMARK    7  A    between atoms: C_8  and  C_9
REMARK    8  A    between atoms: C_8  and  C_10
REMARK                            x       y       z     vdW  Elec       q    Type
REMARK                         _______ _______ _______ _____ _____    ______ ____
ROOT
ATOM      1  C   UNL     1      -7.851  -1.815 122.215  0.00  0.00    +0.000 C 
ENDROOT
BRANCH   1   2
ATOM      2  C   UNL     1      -8.940  -1.797 123.307  0.00  0.00    +0.000 C 
ATOM      3  C   UNL     1      -9.441  -3.219 123.600  0.00  0.00    +0.000 C 
BRANCH   2   5
ATOM      4  C   UNL     1      -9.702   0.488 122.980  0.00  0.00    +0.000 C 
ATOM      5  N   UNL     1     -10.036  -0.926 122.857  0.00  0.00    +0.000 NA
ATOM      6  H   UNL     1     -10.248  -1.131 121.880  0.00  0.00    +0.000 HD
ENDBRANCH   2   5
ENDBRANCH   1   2
BRANCH   1   7
ATOM      7  C   UNL     1      -6.483  -1.510 122.816  0.00  0.00    +0.000 C 
BRANCH   7   8
ATOM      8  C   UNL     1      -5.530  -2.657 122.770  0.00  0.00    +0.000 C 
ATOM      9  C   UNL     1      -5.141  -3.316 123.882  0.00  0.00    +0.000 C 
ATOM     10  C   UNL     1      -5.611  -2.942 125.264  0.00  0.00    +0.000 C 
ATOM     11  C   UNL     1      -4.204  -4.482 123.791  0.00  0.00    +0.000 C 
ENDBRANCH   7   8
ENDBRANCH   1   7
TORSDOF 4
ENDMDL
MODEL 4
REMARK VINA RESULT:      -4.7      2.298      4.631
REMARK  Name = Isometheptene
REMARK  8 active torsions:
REMARK  status: ('A' for Active; 'I' for Inactive)
REMARK    1  A    between atoms: C_1  and  N_2
REMARK    2  A    between atoms: N_2  and  C_3
REMARK    3  A    between atoms: C_3  and  C_4
REMARK    4  A    between atoms: C_3  and  C_5
REMARK    5  A    between atoms: C_5  and  C_6
REMARK    6  A    between atoms: C_6  and  C_7
REMARK    7  A    between atoms: C_8  and  C_9
REMARK    8  A    between atoms: C_8  and  C_10
REMARK                            x       y       z     vdW  Elec       q    Type
REMARK                         _______ _______ _______ _____ _____    ______ ____
ROOT
ATOM      1  C   UNL     1     -12.752   8.348 130.311  0.00  0.00    +0.000 C 
ENDROOT
BRANCH   1   2
ATOM      2  C   UNL     1     -12.932   8.824 128.855  0.00  0.00    +0.000 C 
ATOM      3  C   UNL     1     -11.664   8.549 128.032  0.00  0.00    +0.000 C 
BRANCH   2   5
ATOM      4  C   UNL     1     -13.368  10.783 130.227  0.00  0.00    +0.000 C 
ATOM      5  N   UNL     1     -13.258  10.258 128.871  0.00  0.00    +0.000 NA
ATOM      6  H   UNL     1     -12.529  10.773 128.376  0.00  0.00    +0.000 HD
ENDBRANCH   2   5
ENDBRANCH   1   2
BRANCH   1   7
ATOM      7  C   UNL     1     -12.414   6.862 130.352  0.00  0.00    +0.000 C 
BRANCH   7   8
ATOM      8  C   UNL     1     -11.644   6.447 131.562  0.00  0.00    +0.000 C 
ATOM      9  C   UNL     1     -10.296   6.392 131.574  0.00  0.00    +0.000 C 
ATOM     10  C   UNL     1      -9.450   6.719 130.371  0.00  0.00    +0.000 C 
ATOM     11  C   UNL     1      -9.558   5.998 132.818  0.00  0.00    +0.000 C 
ENDBRANCH   7   8
ENDBRANCH   1   7
TORSDOF 4
ENDMDL
MODEL 5
REMARK VINA RESULT:      -4.6      1.635      2.587
REMARK  Name = Isometheptene
REMARK  8 active torsions:
REMARK  status: ('A' for Active; 'I' for Inactive)
REMARK    1  A    between atoms: C_1  and  N_2
REMARK    2  A    between atoms: N_2  and  C_3
REMARK    3  A    between atoms: C_3  and  C_4
REMARK    4  A    between atoms: C_3  and  C_5
REMARK    5  A    between atoms: C_5  and  C_6
REMARK    6  A    between atoms: C_6  and  C_7
REMARK    7  A    between atoms: C_8  and  C_9
REMARK    8  A    between atoms: C_8  and  C_10
REMARK                            x       y       z     vdW  Elec       q    Type
REMARK                         _______ _______ _______ _____ _____    ______ ____
ROOT
ATOM      1  C   UNL     1     -11.281   6.443 131.835  0.00  0.00    +0.000 C 
ENDROOT
BRANCH   1   2
ATOM      2  C   UNL     1     -10.052   5.873 131.097  0.00  0.00    +0.000 C 
ATOM      3  C   UNL     1      -9.193   7.006 130.515  0.00  0.00    +0.000 C 
BRANCH   2   5
ATOM      4  C   UNL     1     -10.295   3.564 130.379  0.00  0.00    +0.000 C 
ATOM      5  N   UNL     1     -10.524   4.964 130.042  0.00  0.00    +0.000 NA
ATOM      6  H   UNL     1     -11.523   5.109 129.897  0.00  0.00    +0.000 HD
ENDBRANCH   2   5
ENDBRANCH   1   2
BRANCH   1   7
ATOM      7  C   UNL     1     -12.416   6.718 130.855  0.00  0.00    +0.000 C 
BRANCH   7   8
ATOM      8  C   UNL     1     -12.887   8.134 130.854  0.00  0.00    +0.000 C 
ATOM      9  C   UNL     1     -12.722   8.947 129.789  0.00  0.00    +0.000 C 
ATOM     10  C   UNL     1     -12.032   8.512 128.522  0.00  0.00    +0.000 C 
ATOM     11  C   UNL     1     -13.235  10.356 129.816  0.00  0.00    +0.000 C 
ENDBRANCH   7   8
ENDBRANCH   1   7
TORSDOF 4
ENDMDL
MODEL 6
REMARK VINA RESULT:      -4.5      2.465      4.981
REMARK  Name = Isometheptene
REMARK  8 active torsions:
REMARK  status: ('A' for Active; 'I' for Inactive)
REMARK    1  A    between atoms: C_1  and  N_2
REMARK    2  A    between atoms: N_2  and  C_3
REMARK    3  A    between atoms: C_3  and  C_4
REMARK    4  A    between atoms: C_3  and  C_5
REMARK    5  A    between atoms: C_5  and  C_6
REMARK    6  A    between atoms: C_6  and  C_7
REMARK    7  A    between atoms: C_8  and  C_9
REMARK    8  A    between atoms: C_8  and  C_10
REMARK                            x       y       z     vdW  Elec       q    Type
REMARK                         _______ _______ _______ _____ _____    ______ ____
ROOT
ATOM      1  C   UNL     1     -11.441   7.009 129.210  0.00  0.00    +0.000 C 
ENDROOT
BRANCH   1   2
ATOM      2  C   UNL     1     -11.600   8.487 128.798  0.00  0.00    +0.000 C 
ATOM      3  C   UNL     1     -13.083   8.849 128.630  0.00  0.00    +0.000 C 
BRANCH   2   5
ATOM      4  C   UNL     1     -10.969   7.578 126.634  0.00  0.00    +0.000 C 
ATOM      5  N   UNL     1     -10.852   8.705 127.551  0.00  0.00    +0.000 NA
ATOM      6  H   UNL     1     -11.207   9.544 127.090  0.00  0.00    +0.000 HD
ENDBRANCH   2   5
ENDBRANCH   1   2
BRANCH   1   7
ATOM      7  C   UNL     1     -10.689   6.899 130.533  0.00  0.00    +0.000 C 
BRANCH   7   8
ATOM      8  C   UNL     1      -9.215   7.104 130.412  0.00  0.00    +0.000 C 
ATOM      9  C   UNL     1      -8.349   6.667 131.351  0.00  0.00    +0.000 C 
ATOM     10  C   UNL     1      -8.786   5.960 132.607  0.00  0.00    +0.000 C 
ATOM     11  C   UNL     1      -6.873   6.867 131.180  0.00  0.00    +0.000 C 
ENDBRANCH   7   8
ENDBRANCH   1   7
TORSDOF 4
ENDMDL
MODEL 7
REMARK VINA RESULT:      -4.4     10.378     11.639
REMARK  Name = Isometheptene
REMARK  8 active torsions:
REMARK  status: ('A' for Active; 'I' for Inactive)
REMARK    1  A    between atoms: C_1  and  N_2
REMARK    2  A    between atoms: N_2  and  C_3
REMARK    3  A    between atoms: C_3  and  C_4
REMARK    4  A    between atoms: C_3  and  C_5
REMARK    5  A    between atoms: C_5  and  C_6
REMARK    6  A    between atoms: C_6  and  C_7
REMARK    7  A    between atoms: C_8  and  C_9
REMARK    8  A    between atoms: C_8  and  C_10
REMARK                            x       y       z     vdW  Elec       q    Type
REMARK                         _______ _______ _______ _____ _____    ______ ____
ROOT
ATOM      1  C   UNL     1      -9.218  -2.646 125.713  0.00  0.00    +0.000 C 
ENDROOT
BRANCH   1   2
ATOM      2  C   UNL     1      -8.291  -2.986 126.898  0.00  0.00    +0.000 C 
ATOM      3  C   UNL     1      -8.970  -3.979 127.853  0.00  0.00    +0.000 C 
BRANCH   2   5
ATOM      4  C   UNL     1      -7.653  -0.653 126.654  0.00  0.00    +0.000 C 
ATOM      5  N   UNL     1      -7.941  -1.735 127.588  0.00  0.00    +0.000 NA
ATOM      6  H   UNL     1      -8.717  -1.455 128.188  0.00  0.00    +0.000 HD
ENDBRANCH   2   5
ENDBRANCH   1   2
BRANCH   1   7
ATOM      7  C   UNL     1      -8.762  -3.370 124.450  0.00  0.00    +0.000 C 
BRANCH   7   8
ATOM      8  C   UNL     1      -7.299  -3.659 124.412  0.00  0.00    +0.000 C 
ATOM      9  C   UNL     1      -6.434  -2.906 123.699  0.00  0.00    +0.000 C 
ATOM     10  C   UNL     1      -6.865  -1.728 122.866  0.00  0.00    +0.000 C 
ATOM     11  C   UNL     1      -4.967  -3.213 123.709  0.00  0.00    +0.000 C 
ENDBRANCH   7   8
ENDBRANCH   1   7
TORSDOF 4
ENDMDL
MODEL 8
REMARK VINA RESULT:      -4.4      1.776      2.620
REMARK  Name = Isometheptene
REMARK  8 active torsions:
REMARK  status: ('A' for Active; 'I' for Inactive)
REMARK    1  A    between atoms: C_1  and  N_2
REMARK    2  A    between atoms: N_2  and  C_3
REMARK    3  A    between atoms: C_3  and  C_4
REMARK    4  A    between atoms: C_3  and  C_5
REMARK    5  A    between atoms: C_5  and  C_6
REMARK    6  A    between atoms: C_6  and  C_7
REMARK    7  A    between atoms: C_8  and  C_9
REMARK    8  A    between atoms: C_8  and  C_10
REMARK                            x       y       z     vdW  Elec       q    Type
REMARK                         _______ _______ _______ _____ _____    ______ ____
ROOT
ATOM      1  C   UNL     1     -10.106   6.805 129.440  0.00  0.00    +0.000 C 
ENDROOT
BRANCH   1   2
ATOM      2  C   UNL     1     -11.159   5.999 130.230  0.00  0.00    +0.000 C 
ATOM      3  C   UNL     1     -11.042   6.279 131.735  0.00  0.00    +0.000 C 
BRANCH   2   5
ATOM      4  C   UNL     1     -10.097   3.919 130.905  0.00  0.00    +0.000 C 
ATOM      5  N   UNL     1     -10.969   4.571 129.935  0.00  0.00    +0.000 NA
ATOM      6  H   UNL     1     -11.876   4.104 129.941  0.00  0.00    +0.000 HD
ENDBRANCH   2   5
ENDBRANCH   1   2
BRANCH   1   7
ATOM      7  C   UNL     1     -10.737   7.452 128.212  0.00  0.00    +0.000 C 
BRANCH   7   8
ATOM      8  C   UNL     1     -11.517   8.689 128.511  0.00  0.00    +0.000 C 
ATOM      9  C   UNL     1     -12.863   8.733 128.416  0.00  0.00    +0.000 C 
ATOM     10  C   UNL     1     -13.694   7.554 127.980  0.00  0.00    +0.000 C 
ATOM     11  C   UNL     1     -13.612   9.987 128.752  0.00  0.00    +0.000 C 
ENDBRANCH   7   8
ENDBRANCH   1   7
TORSDOF 4
ENDMDL
MODEL 9
REMARK VINA RESULT:      -4.3      9.980     11.179
REMARK  Name = Isometheptene
REMARK  8 active torsions:
REMARK  status: ('A' for Active; 'I' for Inactive)
REMARK    1  A    between atoms: C_1  and  N_2
REMARK    2  A    between atoms: N_2  and  C_3
REMARK    3  A    between atoms: C_3  and  C_4
REMARK    4  A    between atoms: C_3  and  C_5
REMARK    5  A    between atoms: C_5  and  C_6
REMARK    6  A    between atoms: C_6  and  C_7
REMARK    7  A    between atoms: C_8  and  C_9
REMARK    8  A    between atoms: C_8  and  C_10
REMARK                            x       y       z     vdW  Elec       q    Type
REMARK                         _______ _______ _______ _____ _____    ______ ____
ROOT
ATOM      1  C   UNL     1      -8.652  -3.712 128.166  0.00  0.00    +0.000 C 
ENDROOT
BRANCH   1   2
ATOM      2  C   UNL     1      -8.069  -3.182 129.492  0.00  0.00    +0.000 C 
ATOM      3  C   UNL     1      -7.762  -1.681 129.391  0.00  0.00    +0.000 C 
BRANCH   2   5
ATOM      4  C   UNL     1      -5.640  -3.191 129.574  0.00  0.00    +0.000 C 
ATOM      5  N   UNL     1      -6.859  -3.955 129.810  0.00  0.00    +0.000 NA
ATOM      6  H   UNL     1      -6.888  -4.235 130.791  0.00  0.00    +0.000 HD
ENDBRANCH   2   5
ENDBRANCH   1   2
BRANCH   1   7
ATOM      7  C   UNL     1      -8.293  -2.781 127.012  0.00  0.00    +0.000 C 
BRANCH   7   8
ATOM      8  C   UNL     1      -9.183  -2.917 125.823  0.00  0.00    +0.000 C 
ATOM      9  C   UNL     1      -8.713  -3.270 124.608  0.00  0.00    +0.000 C 
ATOM     10  C   UNL     1      -7.255  -3.534 124.337  0.00  0.00    +0.000 C 
ATOM     11  C   UNL     1      -9.644  -3.424 123.443  0.00  0.00    +0.000 C 
ENDBRANCH   7   8
ENDBRANCH   1   7
TORSDOF 4
ENDMDL
