MODEL 1
REMARK VINA RESULT:      -5.7      0.000      0.000
REMARK  Name = Isoniazid
REMARK  2 active torsions:
REMARK  status: ('A' for Active; 'I' for Inactive)
REMARK    1  A    between atoms: N_1  and  N_2
REMARK    2  A    between atoms: C_3  and  C_5
REMARK                            x       y       z     vdW  Elec       q    Type
REMARK                         _______ _______ _______ _____ _____    ______ ____
ROOT
ATOM      1  N   UNL     1     -13.273  10.670 129.236  0.00  0.00    +0.000 N 
ATOM      2  C   UNL     1     -12.900   9.375 129.596  0.00  0.00    +0.000 C 
ATOM      3  O   UNL     1     -12.950   8.924 130.740  0.00  0.00    +0.000 OA
ATOM      4  H   UNL     1     -13.354  10.917 128.252  0.00  0.00    +0.000 HD
ENDROOT
BRANCH   2   5
ATOM      5  C   UNL     1     -12.409   8.500 128.498  0.00  0.00    +0.000 A 
ATOM      6  C   UNL     1     -13.285   7.702 127.763  0.00  0.00    +0.000 A 
ATOM      7  C   UNL     1     -12.761   6.968 126.711  0.00  0.00    +0.000 A 
ATOM      8  N   UNL     1     -11.454   6.967 126.371  0.00  0.00    +0.000 NA
ATOM      9  C   UNL     1     -10.631   7.754 127.096  0.00  0.00    +0.000 A 
ATOM     10  C   UNL     1     -11.057   8.541 128.152  0.00  0.00    +0.000 A 
ENDBRANCH   2   5
BRANCH   1  11
ATOM     11  N   UNL     1     -13.861  11.510 130.206  0.00  0.00    +0.000 NA
ATOM     12  H   UNL     1     -13.601  11.221 131.149  0.00  0.00    +0.000 HD
ATOM     13  H   UNL     1     -14.879  11.411 130.136  0.00  0.00    +0.000 HD
ENDBRANCH   1  11
TORSDOF 2
ENDMDL
MODEL 2
REMARK VINA RESULT:      -5.4      2.177      2.792
REMARK  Name = Isoniazid
REMARK  2 active torsions:
REMARK  status: ('A' for Active; 'I' for Inactive)
REMARK    1  A    between atoms: N_1  and  N_2
REMARK    2  A    between atoms: C_3  and  C_5
REMARK                            x       y       z     vdW  Elec       q    Type
REMARK                         _______ _______ _______ _____ _____    ______ ____
ROOT
ATOM      1  N   UNL     1     -13.514  11.752 130.932  0.00  0.00    +0.000 N 
ATOM      2  C   UNL     1     -13.588  11.207 129.650  0.00  0.00    +0.000 C 
ATOM      3  O   UNL     1     -13.887  11.838 128.637  0.00  0.00    +0.000 OA
ATOM      4  H   UNL     1     -13.108  11.208 131.690  0.00  0.00    +0.000 HD
ENDROOT
BRANCH   2   5
ATOM      5  C   UNL     1     -13.282   9.757 129.531  0.00  0.00    +0.000 A 
ATOM      6  C   UNL     1     -12.872   9.011 130.635  0.00  0.00    +0.000 A 
ATOM      7  C   UNL     1     -12.672   7.651 130.458  0.00  0.00    +0.000 A 
ATOM      8  N   UNL     1     -12.833   7.014 129.279  0.00  0.00    +0.000 NA
ATOM      9  C   UNL     1     -13.237   7.760 128.229  0.00  0.00    +0.000 A 
ATOM     10  C   UNL     1     -13.484   9.119 128.305  0.00  0.00    +0.000 A 
ENDBRANCH   2   5
BRANCH   1  11
ATOM     11  N   UNL     1     -13.673  13.146 131.097  0.00  0.00    +0.000 NA
ATOM     12  H   UNL     1     -12.803  13.580 131.402  0.00  0.00    +0.000 HD
ATOM     13  H   UNL     1     -14.360  13.301 131.842  0.00  0.00    +0.000 HD
ENDBRANCH   1  11
TORSDOF 2
ENDMDL
MODEL 3
REMARK VINA RESULT:      -5.2      2.508      3.149
REMARK  Name = Isoniazid
REMARK  2 active torsions:
REMARK  status: ('A' for Active; 'I' for Inactive)
REMARK    1  A    between atoms: N_1  and  N_2
REMARK    2  A    between atoms: C_3  and  C_5
REMARK                            x       y       z     vdW  Elec       q    Type
REMARK                         _______ _______ _______ _____ _____    ______ ____
ROOT
ATOM      1  N   UNL     1     -13.076  10.412 129.479  0.00  0.00    +0.000 N 
ATOM      2  C   UNL     1     -13.068   9.096 129.016  0.00  0.00    +0.000 C 
ATOM      3  O   UNL     1     -13.716   8.689 128.052  0.00  0.00    +0.000 OA
ATOM      4  H   UNL     1     -12.397  10.706 130.178  0.00  0.00    +0.000 HD
ENDROOT
BRANCH   2   5
ATOM      5  C   UNL     1     -12.208   8.139 129.760  0.00  0.00    +0.000 A 
ATOM      6  C   UNL     1     -10.884   7.914 129.386  0.00  0.00    +0.000 A 
ATOM      7  C   UNL     1     -10.127   7.061 130.172  0.00  0.00    +0.000 A 
ATOM      8  N   UNL     1     -10.600   6.424 131.263  0.00  0.00    +0.000 NA
ATOM      9  C   UNL     1     -11.884   6.666 131.607  0.00  0.00    +0.000 A 
ATOM     10  C   UNL     1     -12.717   7.516 130.902  0.00  0.00    +0.000 A 
ENDBRANCH   2   5
BRANCH   1  11
ATOM     11  N   UNL     1     -13.775  11.395 128.745  0.00  0.00    +0.000 NA
ATOM     12  H   UNL     1     -13.200  11.763 127.987  0.00  0.00    +0.000 HD
ATOM     13  H   UNL     1     -13.973  12.180 129.374  0.00  0.00    +0.000 HD
ENDBRANCH   1  11
TORSDOF 2
ENDMDL
MODEL 4
REMARK VINA RESULT:      -5.1      3.055      3.534
REMARK  Name = Isoniazid
REMARK  2 active torsions:
REMARK  status: ('A' for Active; 'I' for Inactive)
REMARK    1  A    between atoms: N_1  and  N_2
REMARK    2  A    between atoms: C_3  and  C_5
REMARK                            x       y       z     vdW  Elec       q    Type
REMARK                         _______ _______ _______ _____ _____    ______ ____
ROOT
ATOM      1  N   UNL     1     -10.557   6.360 131.535  0.00  0.00    +0.000 N 
ATOM      2  C   UNL     1     -11.767   6.808 131.006  0.00  0.00    +0.000 C 
ATOM      3  O   UNL     1     -12.818   6.897 131.640  0.00  0.00    +0.000 OA
ATOM      4  H   UNL     1      -9.700   6.464 130.996  0.00  0.00    +0.000 HD
ENDROOT
BRANCH   2   5
ATOM      5  C   UNL     1     -11.756   7.196 129.571  0.00  0.00    +0.000 A 
ATOM      6  C   UNL     1     -10.701   7.927 129.027  0.00  0.00    +0.000 A 
ATOM      7  C   UNL     1     -10.731   8.190 127.667  0.00  0.00    +0.000 A 
ATOM      8  N   UNL     1     -11.728   7.796 126.846  0.00  0.00    +0.000 NA
ATOM      9  C   UNL     1     -12.733   7.084 127.399  0.00  0.00    +0.000 A 
ATOM     10  C   UNL     1     -12.787   6.751 128.741  0.00  0.00    +0.000 A 
ENDBRANCH   2   5
BRANCH   1  11
ATOM     11  N   UNL     1     -10.468   6.093 132.919  0.00  0.00    +0.000 NA
ATOM     12  H   UNL     1     -10.063   5.172 133.090  0.00  0.00    +0.000 HD
ATOM     13  H   UNL     1     -11.420   6.073 133.300  0.00  0.00    +0.000 HD
ENDBRANCH   1  11
TORSDOF 2
ENDMDL
MODEL 5
REMARK VINA RESULT:      -5.1      3.753      4.178
REMARK  Name = Isoniazid
REMARK  2 active torsions:
REMARK  status: ('A' for Active; 'I' for Inactive)
REMARK    1  A    between atoms: N_1  and  N_2
REMARK    2  A    between atoms: C_3  and  C_5
REMARK                            x       y       z     vdW  Elec       q    Type
REMARK                         _______ _______ _______ _____ _____    ______ ____
ROOT
ATOM      1  N   UNL     1     -10.906   5.716 132.113  0.00  0.00    +0.000 N 
ATOM      2  C   UNL     1     -10.163   6.593 131.323  0.00  0.00    +0.000 C 
ATOM      3  O   UNL     1      -8.967   6.836 131.481  0.00  0.00    +0.000 OA
ATOM      4  H   UNL     1     -11.845   5.447 131.825  0.00  0.00    +0.000 HD
ENDROOT
BRANCH   2   5
ATOM      5  C   UNL     1     -10.896   7.270 130.220  0.00  0.00    +0.000 A 
ATOM      6  C   UNL     1     -12.277   7.451 130.274  0.00  0.00    +0.000 A 
ATOM      7  C   UNL     1     -12.877   8.152 129.240  0.00  0.00    +0.000 A 
ATOM      8  N   UNL     1     -12.206   8.652 128.181  0.00  0.00    +0.000 NA
ATOM      9  C   UNL     1     -10.868   8.468 128.159  0.00  0.00    +0.000 A 
ATOM     10  C   UNL     1     -10.171   7.801 129.150  0.00  0.00    +0.000 A 
ENDBRANCH   2   5
BRANCH   1  11
ATOM     11  N   UNL     1     -10.245   4.950 133.098  0.00  0.00    +0.000 NA
ATOM     12  H   UNL     1     -10.914   4.482 133.709  0.00  0.00    +0.000 HD
ATOM     13  H   UNL     1      -9.703   5.590 133.687  0.00  0.00    +0.000 HD
ENDBRANCH   1  11
TORSDOF 2
ENDMDL
MODEL 6
REMARK VINA RESULT:      -5.1      2.937      4.298
REMARK  Name = Isoniazid
REMARK  2 active torsions:
REMARK  status: ('A' for Active; 'I' for Inactive)
REMARK    1  A    between atoms: N_1  and  N_2
REMARK    2  A    between atoms: C_3  and  C_5
REMARK                            x       y       z     vdW  Elec       q    Type
REMARK                         _______ _______ _______ _____ _____    ______ ____
ROOT
ATOM      1  N   UNL     1     -11.337   7.885 126.669  0.00  0.00    +0.000 N 
ATOM      2  C   UNL     1     -10.701   7.102 127.631  0.00  0.00    +0.000 C 
ATOM      3  O   UNL     1      -9.688   6.432 127.431  0.00  0.00    +0.000 OA
ATOM      4  H   UNL     1     -12.072   8.531 126.948  0.00  0.00    +0.000 HD
ENDROOT
BRANCH   2   5
ATOM      5  C   UNL     1     -11.314   7.092 128.986  0.00  0.00    +0.000 A 
ATOM      6  C   UNL     1     -12.233   8.067 129.370  0.00  0.00    +0.000 A 
ATOM      7  C   UNL     1     -12.813   7.949 130.623  0.00  0.00    +0.000 A 
ATOM      8  N   UNL     1     -12.524   6.961 131.496  0.00  0.00    +0.000 NA
ATOM      9  C   UNL     1     -11.634   6.028 131.095  0.00  0.00    +0.000 A 
ATOM     10  C   UNL     1     -11.017   6.042 129.857  0.00  0.00    +0.000 A 
ENDBRANCH   2   5
BRANCH   1  11
ATOM     11  N   UNL     1     -10.739   8.035 125.398  0.00  0.00    +0.000 NA
ATOM     12  H   UNL     1      -9.737   7.849 125.441  0.00  0.00    +0.000 HD
ATOM     13  H   UNL     1     -10.847   9.013 125.110  0.00  0.00    +0.000 HD
ENDBRANCH   1  11
TORSDOF 2
ENDMDL
MODEL 7
REMARK VINA RESULT:      -4.8     10.252     11.366
REMARK  Name = Isoniazid
REMARK  2 active torsions:
REMARK  status: ('A' for Active; 'I' for Inactive)
REMARK    1  A    between atoms: N_1  and  N_2
REMARK    2  A    between atoms: C_3  and  C_5
REMARK                            x       y       z     vdW  Elec       q    Type
REMARK                         _______ _______ _______ _____ _____    ______ ____
ROOT
ATOM      1  N   UNL     1      -6.188   5.196 118.470  0.00  0.00    +0.000 N 
ATOM      2  C   UNL     1      -5.694   5.273 119.772  0.00  0.00    +0.000 C 
ATOM      3  O   UNL     1      -4.796   6.031 120.136  0.00  0.00    +0.000 OA
ATOM      4  H   UNL     1      -7.034   4.663 118.281  0.00  0.00    +0.000 HD
ENDROOT
BRANCH   2   5
ATOM      5  C   UNL     1      -6.314   4.360 120.769  0.00  0.00    +0.000 A 
ATOM      6  C   UNL     1      -5.627   3.969 121.916  0.00  0.00    +0.000 A 
ATOM      7  C   UNL     1      -6.298   3.173 122.831  0.00  0.00    +0.000 A 
ATOM      8  N   UNL     1      -7.567   2.742 122.665  0.00  0.00    +0.000 NA
ATOM      9  C   UNL     1      -8.210   3.143 121.548  0.00  0.00    +0.000 A 
ATOM     10  C   UNL     1      -7.638   3.954 120.584  0.00  0.00    +0.000 A 
ENDBRANCH   2   5
BRANCH   1  11
ATOM     11  N   UNL     1      -5.729   6.119 117.504  0.00  0.00    +0.000 NA
ATOM     12  H   UNL     1      -6.064   7.060 117.709  0.00  0.00    +0.000 HD
ATOM     13  H   UNL     1      -6.127   5.854 116.598  0.00  0.00    +0.000 HD
ENDBRANCH   1  11
TORSDOF 2
ENDMDL
MODEL 8
REMARK VINA RESULT:      -4.6      3.597      4.014
REMARK  Name = Isoniazid
REMARK  2 active torsions:
REMARK  status: ('A' for Active; 'I' for Inactive)
REMARK    1  A    between atoms: N_1  and  N_2
REMARK    2  A    between atoms: C_3  and  C_5
REMARK                            x       y       z     vdW  Elec       q    Type
REMARK                         _______ _______ _______ _____ _____    ______ ____
ROOT
ATOM      1  N   UNL     1     -12.617   8.651 129.338  0.00  0.00    +0.000 N 
ATOM      2  C   UNL     1     -12.090   7.359 129.293  0.00  0.00    +0.000 C 
ATOM      3  O   UNL     1     -12.420   6.497 128.479  0.00  0.00    +0.000 OA
ATOM      4  H   UNL     1     -12.183   9.353 129.933  0.00  0.00    +0.000 HD
ENDROOT
BRANCH   2   5
ATOM      5  C   UNL     1     -11.062   7.030 130.315  0.00  0.00    +0.000 A 
ATOM      6  C   UNL     1     -11.413   6.459 131.537  0.00  0.00    +0.000 A 
ATOM      7  C   UNL     1     -10.391   6.117 132.407  0.00  0.00    +0.000 A 
ATOM      8  N   UNL     1      -9.082   6.321 132.149  0.00  0.00    +0.000 NA
ATOM      9  C   UNL     1      -8.771   6.870 130.955  0.00  0.00    +0.000 A 
ATOM     10  C   UNL     1      -9.714   7.227 130.007  0.00  0.00    +0.000 A 
ENDBRANCH   2   5
BRANCH   1  11
ATOM     11  N   UNL     1     -13.506   9.066 128.322  0.00  0.00    +0.000 NA
ATOM     12  H   UNL     1     -13.185   8.756 127.405  0.00  0.00    +0.000 HD
ATOM     13  H   UNL     1     -13.509  10.091 128.304  0.00  0.00    +0.000 HD
ENDBRANCH   1  11
TORSDOF 2
ENDMDL
MODEL 9
REMARK VINA RESULT:      -4.5     10.209     11.162
REMARK  Name = Isoniazid
REMARK  2 active torsions:
REMARK  status: ('A' for Active; 'I' for Inactive)
REMARK    1  A    between atoms: N_1  and  N_2
REMARK    2  A    between atoms: C_3  and  C_5
REMARK                            x       y       z     vdW  Elec       q    Type
REMARK                         _______ _______ _______ _____ _____    ______ ____
ROOT
ATOM      1  N   UNL     1      -5.944   4.973 119.177  0.00  0.00    +0.000 N 
ATOM      2  C   UNL     1      -5.313   5.213 120.398  0.00  0.00    +0.000 C 
ATOM      3  O   UNL     1      -4.446   6.067 120.582  0.00  0.00    +0.000 OA
ATOM      4  H   UNL     1      -6.758   4.364 119.140  0.00  0.00    +0.000 HD
ENDROOT
BRANCH   2   5
ATOM      5  C   UNL     1      -5.738   4.360 121.539  0.00  0.00    +0.000 A 
ATOM      6  C   UNL     1      -6.591   3.274 121.352  0.00  0.00    +0.000 A 
ATOM      7  C   UNL     1      -6.885   2.487 122.454  0.00  0.00    +0.000 A 
ATOM      8  N   UNL     1      -6.409   2.721 123.695  0.00  0.00    +0.000 NA
ATOM      9  C   UNL     1      -5.580   3.776 123.846  0.00  0.00    +0.000 A 
ATOM     10  C   UNL     1      -5.207   4.611 122.807  0.00  0.00    +0.000 A 
ENDBRANCH   2   5
BRANCH   1  11
ATOM     11  N   UNL     1      -5.676   5.827 118.085  0.00  0.00    +0.000 NA
ATOM     12  H   UNL     1      -6.527   6.286 117.761  0.00  0.00    +0.000 HD
ATOM     13  H   UNL     1      -5.335   5.251 117.308  0.00  0.00    +0.000 HD
ENDBRANCH   1  11
TORSDOF 2
ENDMDL
