MODEL 1
REMARK VINA RESULT:      -3.1      0.000      0.000
REMARK  Name = Isopropyl alcohol
REMARK  3 active torsions:
REMARK  status: ('A' for Active; 'I' for Inactive)
REMARK    1  A    between atoms: C_1  and  C_2
REMARK    2  A    between atoms: C_2  and  C_3
REMARK    3  A    between atoms: C_2  and  O_4
REMARK                            x       y       z     vdW  Elec       q    Type
REMARK                         _______ _______ _______ _____ _____    ______ ____
ROOT
ATOM      1  C   UNL     1      -6.015   4.253 120.668  0.00  0.00    +0.000 C 
ATOM      2  C   UNL     1      -5.177   5.148 119.767  0.00  0.00    +0.000 C 
ATOM      3  C   UNL     1      -6.005   5.715 118.625  0.00  0.00    +0.000 C 
ENDROOT
BRANCH   2   4
ATOM      4  O   UNL     1      -4.637   6.217 120.536  0.00  0.00    +0.000 OA
ATOM      5  H   UNL     1      -3.785   5.924 120.902  0.00  0.00    +0.000 HD
ENDBRANCH   2   4
TORSDOF 1
ENDMDL
MODEL 2
REMARK VINA RESULT:      -2.8      9.038      9.510
REMARK  Name = Isopropyl alcohol
REMARK  3 active torsions:
REMARK  status: ('A' for Active; 'I' for Inactive)
REMARK    1  A    between atoms: C_1  and  C_2
REMARK    2  A    between atoms: C_2  and  C_3
REMARK    3  A    between atoms: C_2  and  O_4
REMARK                            x       y       z     vdW  Elec       q    Type
REMARK                         _______ _______ _______ _____ _____    ______ ____
ROOT
ATOM      1  C   UNL     1     -12.704   7.078 126.945  0.00  0.00    +0.000 C 
ATOM      2  C   UNL     1     -11.302   7.567 126.613  0.00  0.00    +0.000 C 
ATOM      3  C   UNL     1     -10.669   8.281 127.798  0.00  0.00    +0.000 C 
ENDROOT
BRANCH   2   4
ATOM      4  O   UNL     1     -10.491   6.457 126.242  0.00  0.00    +0.000 OA
ATOM      5  H   UNL     1     -10.372   5.896 127.027  0.00  0.00    +0.000 HD
ENDBRANCH   2   4
TORSDOF 1
ENDMDL
MODEL 3
REMARK VINA RESULT:      -2.8     10.014     10.406
REMARK  Name = Isopropyl alcohol
REMARK  3 active torsions:
REMARK  status: ('A' for Active; 'I' for Inactive)
REMARK    1  A    between atoms: C_1  and  C_2
REMARK    2  A    between atoms: C_2  and  C_3
REMARK    3  A    between atoms: C_2  and  O_4
REMARK                            x       y       z     vdW  Elec       q    Type
REMARK                         _______ _______ _______ _____ _____    ______ ____
ROOT
ATOM      1  C   UNL     1     -11.105   8.318 127.701  0.00  0.00    +0.000 C 
ATOM      2  C   UNL     1     -12.098   7.182 127.507  0.00  0.00    +0.000 C 
ATOM      3  C   UNL     1     -13.527   7.651 127.735  0.00  0.00    +0.000 C 
ENDROOT
BRANCH   2   4
ATOM      4  O   UNL     1     -11.974   6.668 126.185  0.00  0.00    +0.000 OA
ATOM      5  H   UNL     1     -12.065   5.701 126.228  0.00  0.00    +0.000 HD
ENDBRANCH   2   4
TORSDOF 1
ENDMDL
MODEL 4
REMARK VINA RESULT:      -2.8     18.071     18.477
REMARK  Name = Isopropyl alcohol
REMARK  3 active torsions:
REMARK  status: ('A' for Active; 'I' for Inactive)
REMARK    1  A    between atoms: C_1  and  C_2
REMARK    2  A    between atoms: C_2  and  C_3
REMARK    3  A    between atoms: C_2  and  O_4
REMARK                            x       y       z     vdW  Elec       q    Type
REMARK                         _______ _______ _______ _____ _____    ______ ____
ROOT
ATOM      1  C   UNL     1      -9.996   9.683 138.459  0.00  0.00    +0.000 C 
ATOM      2  C   UNL     1      -9.323   8.938 137.315  0.00  0.00    +0.000 C 
ATOM      3  C   UNL     1      -8.738   7.616 137.785  0.00  0.00    +0.000 C 
ENDROOT
BRANCH   2   4
ATOM      4  O   UNL     1     -10.276   8.695 136.285  0.00  0.00    +0.000 OA
ATOM      5  H   UNL     1     -10.053   7.848 135.864  0.00  0.00    +0.000 HD
ENDBRANCH   2   4
TORSDOF 1
ENDMDL
MODEL 5
REMARK VINA RESULT:      -2.6     11.148     11.636
REMARK  Name = Isopropyl alcohol
REMARK  3 active torsions:
REMARK  status: ('A' for Active; 'I' for Inactive)
REMARK    1  A    between atoms: C_1  and  C_2
REMARK    2  A    between atoms: C_2  and  C_3
REMARK    3  A    between atoms: C_2  and  O_4
REMARK                            x       y       z     vdW  Elec       q    Type
REMARK                         _______ _______ _______ _____ _____    ______ ____
ROOT
ATOM      1  C   UNL     1     -13.490   7.765 127.956  0.00  0.00    +0.000 C 
ATOM      2  C   UNL     1     -12.488   8.592 128.746  0.00  0.00    +0.000 C 
ATOM      3  C   UNL     1     -11.095   8.501 128.141  0.00  0.00    +0.000 C 
ENDROOT
BRANCH   2   4
ATOM      4  O   UNL     1     -12.908   9.953 128.762  0.00  0.00    +0.000 OA
ATOM      5  H   UNL     1     -12.552  10.387 127.968  0.00  0.00    +0.000 HD
ENDBRANCH   2   4
TORSDOF 1
ENDMDL
MODEL 6
REMARK VINA RESULT:      -2.6     12.157     12.530
REMARK  Name = Isopropyl alcohol
REMARK  3 active torsions:
REMARK  status: ('A' for Active; 'I' for Inactive)
REMARK    1  A    between atoms: C_1  and  C_2
REMARK    2  A    between atoms: C_2  and  C_3
REMARK    3  A    between atoms: C_2  and  O_4
REMARK                            x       y       z     vdW  Elec       q    Type
REMARK                         _______ _______ _______ _____ _____    ______ ____
ROOT
ATOM      1  C   UNL     1     -12.649   8.029 130.260  0.00  0.00    +0.000 C 
ATOM      2  C   UNL     1     -12.887   9.013 129.124  0.00  0.00    +0.000 C 
ATOM      3  C   UNL     1     -13.284  10.382 129.652  0.00  0.00    +0.000 C 
ENDROOT
BRANCH   2   4
ATOM      4  O   UNL     1     -11.699   9.132 128.347  0.00  0.00    +0.000 OA
ATOM      5  H   UNL     1     -11.818   8.611 127.535  0.00  0.00    +0.000 HD
ENDBRANCH   2   4
TORSDOF 1
ENDMDL
MODEL 7
REMARK VINA RESULT:      -2.5     11.620     12.000
REMARK  Name = Isopropyl alcohol
REMARK  3 active torsions:
REMARK  status: ('A' for Active; 'I' for Inactive)
REMARK    1  A    between atoms: C_1  and  C_2
REMARK    2  A    between atoms: C_2  and  C_3
REMARK    3  A    between atoms: C_2  and  O_4
REMARK                            x       y       z     vdW  Elec       q    Type
REMARK                         _______ _______ _______ _____ _____    ______ ____
ROOT
ATOM      1  C   UNL     1     -12.565   8.129 129.934  0.00  0.00    +0.000 C 
ATOM      2  C   UNL     1     -13.183   6.957 129.186  0.00  0.00    +0.000 C 
ATOM      3  C   UNL     1     -13.730   7.390 127.834  0.00  0.00    +0.000 C 
ENDROOT
BRANCH   2   4
ATOM      4  O   UNL     1     -12.199   5.946 128.996  0.00  0.00    +0.000 OA
ATOM      5  H   UNL     1     -12.587   5.249 128.441  0.00  0.00    +0.000 HD
ENDBRANCH   2   4
TORSDOF 1
ENDMDL
MODEL 8
REMARK VINA RESULT:      -2.5     11.797     12.244
REMARK  Name = Isopropyl alcohol
REMARK  3 active torsions:
REMARK  status: ('A' for Active; 'I' for Inactive)
REMARK    1  A    between atoms: C_1  and  C_2
REMARK    2  A    between atoms: C_2  and  C_3
REMARK    3  A    between atoms: C_2  and  O_4
REMARK                            x       y       z     vdW  Elec       q    Type
REMARK                         _______ _______ _______ _____ _____    ______ ____
ROOT
ATOM      1  C   UNL     1     -13.624   7.013 128.321  0.00  0.00    +0.000 C 
ATOM      2  C   UNL     1     -12.472   6.860 129.303  0.00  0.00    +0.000 C 
ATOM      3  C   UNL     1     -12.878   7.289 130.705  0.00  0.00    +0.000 C 
ENDROOT
BRANCH   2   4
ATOM      4  O   UNL     1     -12.052   5.499 129.328  0.00  0.00    +0.000 OA
ATOM      5  H   UNL     1     -12.698   4.995 129.852  0.00  0.00    +0.000 HD
ENDBRANCH   2   4
TORSDOF 1
ENDMDL
MODEL 9
REMARK VINA RESULT:      -2.5      9.975     10.227
REMARK  Name = Isopropyl alcohol
REMARK  3 active torsions:
REMARK  status: ('A' for Active; 'I' for Inactive)
REMARK    1  A    between atoms: C_1  and  C_2
REMARK    2  A    between atoms: C_2  and  C_3
REMARK    3  A    between atoms: C_2  and  O_4
REMARK                            x       y       z     vdW  Elec       q    Type
REMARK                         _______ _______ _______ _____ _____    ______ ____
ROOT
ATOM      1  C   UNL     1      -9.742   7.233 130.034  0.00  0.00    +0.000 C 
ATOM      2  C   UNL     1     -10.453   7.117 128.694  0.00  0.00    +0.000 C 
ATOM      3  C   UNL     1     -10.625   8.478 128.039  0.00  0.00    +0.000 C 
ENDROOT
BRANCH   2   4
ATOM      4  O   UNL     1      -9.698   6.270 127.832  0.00  0.00    +0.000 OA
ATOM      5  H   UNL     1     -10.125   5.396 127.821  0.00  0.00    +0.000 HD
ENDBRANCH   2   4
TORSDOF 1
ENDMDL
