MODEL 1
REMARK VINA RESULT:      -6.0      0.000      0.000
REMARK  Name = Isoprenaline
REMARK  9 active torsions:
REMARK  status: ('A' for Active; 'I' for Inactive)
REMARK    1  A    between atoms: C_1  and  C_2
REMARK    2  A    between atoms: C_2  and  C_3
REMARK    3  A    between atoms: C_2  and  N_4
REMARK    4  A    between atoms: N_4  and  C_5
REMARK    5  A    between atoms: C_5  and  C_6
REMARK    6  A    between atoms: C_6  and  O_7
REMARK    7  A    between atoms: C_6  and  C_8
REMARK    8  A    between atoms: C_10  and  O_11
REMARK    9  A    between atoms: C_12  and  O_13
REMARK                            x       y       z     vdW  Elec       q    Type
REMARK                         _______ _______ _______ _____ _____    ______ ____
ROOT
ATOM      1  C   UNL     1     -11.020   6.618 131.302  0.00  0.00    +0.000 A 
ATOM      2  C   UNL     1     -10.208   7.060 130.237  0.00  0.00    +0.000 A 
ATOM      3  C   UNL     1     -10.732   7.947 129.294  0.00  0.00    +0.000 A 
ATOM      4  C   UNL     1     -12.040   8.402 129.405  0.00  0.00    +0.000 A 
ATOM      5  C   UNL     1     -12.842   8.006 130.464  0.00  0.00    +0.000 A 
ATOM      6  C   UNL     1     -12.328   7.124 131.412  0.00  0.00    +0.000 A 
ENDROOT
BRANCH   3   7
ATOM      7  O   UNL     1      -9.991   8.399 128.235  0.00  0.00    +0.000 OA
ATOM      8  H   UNL     1      -9.828   9.349 128.357  0.00  0.00    +0.000 HD
ENDBRANCH   3   7
BRANCH   4   9
ATOM      9  O   UNL     1     -12.566   9.251 128.472  0.00  0.00    +0.000 OA
ATOM     10  H   UNL     1     -12.177  10.122 128.683  0.00  0.00    +0.000 HD
ENDBRANCH   4   9
BRANCH   1  11
ATOM     11  C   UNL     1     -10.463   5.662 132.343  0.00  0.00    +0.000 C 
BRANCH  11  12
ATOM     12  O   UNL     1      -9.748   6.381 133.354  0.00  0.00    +0.000 OA
ATOM     13  H   UNL     1      -9.429   7.207 132.957  0.00  0.00    +0.000 HD
ENDBRANCH  11  12
BRANCH  11  14
ATOM     14  C   UNL     1      -9.547   4.619 131.668  0.00  0.00    +0.000 C 
BRANCH  14  15
ATOM     15  N   UNL     1     -10.194   3.305 131.540  0.00  0.00    +0.000 NA
ATOM     16  H   UNL     1     -11.207   3.427 131.617  0.00  0.00    +0.000 HD
BRANCH  15  18
ATOM     17  C   UNL     1      -9.439   1.004 131.837  0.00  0.00    +0.000 C 
ATOM     18  C   UNL     1      -9.713   2.338 132.533  0.00  0.00    +0.000 C 
ATOM     19  C   UNL     1      -8.428   2.824 133.210  0.00  0.00    +0.000 C 
ENDBRANCH  15  18
ENDBRANCH  14  15
ENDBRANCH  11  14
ENDBRANCH   1  11
TORSDOF 7
ENDMDL
MODEL 2
REMARK VINA RESULT:      -5.9      1.470      1.945
REMARK  Name = Isoprenaline
REMARK  9 active torsions:
REMARK  status: ('A' for Active; 'I' for Inactive)
REMARK    1  A    between atoms: C_1  and  C_2
REMARK    2  A    between atoms: C_2  and  C_3
REMARK    3  A    between atoms: C_2  and  N_4
REMARK    4  A    between atoms: N_4  and  C_5
REMARK    5  A    between atoms: C_5  and  C_6
REMARK    6  A    between atoms: C_6  and  O_7
REMARK    7  A    between atoms: C_6  and  C_8
REMARK    8  A    between atoms: C_10  and  O_11
REMARK    9  A    between atoms: C_12  and  O_13
REMARK                            x       y       z     vdW  Elec       q    Type
REMARK                         _______ _______ _______ _____ _____    ______ ____
ROOT
ATOM      1  C   UNL     1     -11.091   6.682 130.414  0.00  0.00    +0.000 A 
ATOM      2  C   UNL     1     -10.591   7.226 129.213  0.00  0.00    +0.000 A 
ATOM      3  C   UNL     1     -11.259   8.292 128.609  0.00  0.00    +0.000 A 
ATOM      4  C   UNL     1     -12.404   8.825 129.188  0.00  0.00    +0.000 A 
ATOM      5  C   UNL     1     -12.891   8.328 130.386  0.00  0.00    +0.000 A 
ATOM      6  C   UNL     1     -12.229   7.265 130.999  0.00  0.00    +0.000 A 
ENDROOT
BRANCH   3   7
ATOM      7  O   UNL     1     -10.822   8.850 127.437  0.00  0.00    +0.000 OA
ATOM      8  H   UNL     1     -10.135   9.505 127.646  0.00  0.00    +0.000 HD
ENDBRANCH   3   7
BRANCH   4   9
ATOM      9  O   UNL     1     -13.075   9.854 128.589  0.00  0.00    +0.000 OA
ATOM     10  H   UNL     1     -12.783  10.653 129.068  0.00  0.00    +0.000 HD
ENDBRANCH   4   9
BRANCH   1  11
ATOM     11  C   UNL     1     -10.371   5.528 131.092  0.00  0.00    +0.000 C 
BRANCH  11  12
ATOM     12  O   UNL     1     -11.149   4.330 131.005  0.00  0.00    +0.000 OA
ATOM     13  H   UNL     1     -10.953   3.913 130.151  0.00  0.00    +0.000 HD
ENDBRANCH  11  12
BRANCH  11  14
ATOM     14  C   UNL     1     -10.078   5.880 132.566  0.00  0.00    +0.000 C 
BRANCH  14  15
ATOM     15  N   UNL     1      -9.936   4.684 133.410  0.00  0.00    +0.000 NA
ATOM     16  H   UNL     1     -10.288   4.898 134.346  0.00  0.00    +0.000 HD
BRANCH  15  18
ATOM     17  C   UNL     1      -7.962   4.563 134.838  0.00  0.00    +0.000 C 
ATOM     18  C   UNL     1      -8.554   4.199 133.475  0.00  0.00    +0.000 C 
ATOM     19  C   UNL     1      -8.483   2.681 133.286  0.00  0.00    +0.000 C 
ENDBRANCH  15  18
ENDBRANCH  14  15
ENDBRANCH  11  14
ENDBRANCH   1  11
TORSDOF 7
ENDMDL
MODEL 3
REMARK VINA RESULT:      -5.9      2.890      5.382
REMARK  Name = Isoprenaline
REMARK  9 active torsions:
REMARK  status: ('A' for Active; 'I' for Inactive)
REMARK    1  A    between atoms: C_1  and  C_2
REMARK    2  A    between atoms: C_2  and  C_3
REMARK    3  A    between atoms: C_2  and  N_4
REMARK    4  A    between atoms: N_4  and  C_5
REMARK    5  A    between atoms: C_5  and  C_6
REMARK    6  A    between atoms: C_6  and  O_7
REMARK    7  A    between atoms: C_6  and  C_8
REMARK    8  A    between atoms: C_10  and  O_11
REMARK    9  A    between atoms: C_12  and  O_13
REMARK                            x       y       z     vdW  Elec       q    Type
REMARK                         _______ _______ _______ _____ _____    ______ ____
ROOT
ATOM      1  C   UNL     1      -9.884   6.466 131.497  0.00  0.00    +0.000 A 
ATOM      2  C   UNL     1      -8.828   7.006 130.734  0.00  0.00    +0.000 A 
ATOM      3  C   UNL     1      -7.511   6.849 131.172  0.00  0.00    +0.000 A 
ATOM      4  C   UNL     1      -7.238   6.156 132.345  0.00  0.00    +0.000 A 
ATOM      5  C   UNL     1      -8.259   5.588 133.090  0.00  0.00    +0.000 A 
ATOM      6  C   UNL     1      -9.576   5.738 132.659  0.00  0.00    +0.000 A 
ENDROOT
BRANCH   3   7
ATOM      7  O   UNL     1      -6.450   7.362 130.476  0.00  0.00    +0.000 OA
ATOM      8  H   UNL     1      -5.907   6.624 130.155  0.00  0.00    +0.000 HD
ENDBRANCH   3   7
BRANCH   4   9
ATOM      9  O   UNL     1      -5.953   6.018 132.791  0.00  0.00    +0.000 OA
ATOM     10  H   UNL     1      -5.675   6.924 133.030  0.00  0.00    +0.000 HD
ENDBRANCH   4   9
BRANCH   1  11
ATOM     11  C   UNL     1     -11.322   6.619 131.029  0.00  0.00    +0.000 C 
BRANCH  11  12
ATOM     12  O   UNL     1     -12.230   6.301 132.090  0.00  0.00    +0.000 OA
ATOM     13  H   UNL     1     -13.118   6.229 131.705  0.00  0.00    +0.000 HD
ENDBRANCH  11  12
BRANCH  11  14
ATOM     14  C   UNL     1     -11.579   5.715 129.805  0.00  0.00    +0.000 C 
BRANCH  14  15
ATOM     15  N   UNL     1     -12.044   6.474 128.636  0.00  0.00    +0.000 NA
ATOM     16  H   UNL     1     -11.553   6.135 127.805  0.00  0.00    +0.000 HD
BRANCH  15  18
ATOM     17  C   UNL     1     -10.763   8.388 127.831  0.00  0.00    +0.000 C 
ATOM     18  C   UNL     1     -11.858   7.921 128.791  0.00  0.00    +0.000 C 
ATOM     19  C   UNL     1     -13.150   8.687 128.490  0.00  0.00    +0.000 C 
ENDBRANCH  15  18
ENDBRANCH  14  15
ENDBRANCH  11  14
ENDBRANCH   1  11
TORSDOF 7
ENDMDL
MODEL 4
REMARK VINA RESULT:      -5.8      9.186     10.247
REMARK  Name = Isoprenaline
REMARK  9 active torsions:
REMARK  status: ('A' for Active; 'I' for Inactive)
REMARK    1  A    between atoms: C_1  and  C_2
REMARK    2  A    between atoms: C_2  and  C_3
REMARK    3  A    between atoms: C_2  and  N_4
REMARK    4  A    between atoms: N_4  and  C_5
REMARK    5  A    between atoms: C_5  and  C_6
REMARK    6  A    between atoms: C_6  and  O_7
REMARK    7  A    between atoms: C_6  and  C_8
REMARK    8  A    between atoms: C_10  and  O_11
REMARK    9  A    between atoms: C_12  and  O_13
REMARK                            x       y       z     vdW  Elec       q    Type
REMARK                         _______ _______ _______ _____ _____    ______ ____
ROOT
ATOM      1  C   UNL     1      -8.341   2.752 122.632  0.00  0.00    +0.000 A 
ATOM      2  C   UNL     1      -8.792   3.249 121.392  0.00  0.00    +0.000 A 
ATOM      3  C   UNL     1      -7.885   3.857 120.522  0.00  0.00    +0.000 A 
ATOM      4  C   UNL     1      -6.543   3.965 120.867  0.00  0.00    +0.000 A 
ATOM      5  C   UNL     1      -6.074   3.452 122.066  0.00  0.00    +0.000 A 
ATOM      6  C   UNL     1      -6.972   2.841 122.939  0.00  0.00    +0.000 A 
ENDROOT
BRANCH   3   7
ATOM      7  O   UNL     1      -8.272   4.365 119.311  0.00  0.00    +0.000 OA
ATOM      8  H   UNL     1      -9.176   4.709 119.396  0.00  0.00    +0.000 HD
ENDBRANCH   3   7
BRANCH   4   9
ATOM      9  O   UNL     1      -5.654   4.579 120.030  0.00  0.00    +0.000 OA
ATOM     10  H   UNL     1      -5.885   5.528 120.077  0.00  0.00    +0.000 HD
ENDBRANCH   4   9
BRANCH   1  11
ATOM     11  C   UNL     1      -9.313   2.078 123.587  0.00  0.00    +0.000 C 
BRANCH  11  12
ATOM     12  O   UNL     1      -9.439   2.838 124.793  0.00  0.00    +0.000 OA
ATOM     13  H   UNL     1     -10.373   3.081 124.892  0.00  0.00    +0.000 HD
ENDBRANCH  11  12
BRANCH  11  14
ATOM     14  C   UNL     1      -8.839   0.642 123.897  0.00  0.00    +0.000 C 
BRANCH  14  15
ATOM     15  N   UNL     1      -9.615  -0.373 123.170  0.00  0.00    +0.000 NA
ATOM     16  H   UNL     1     -10.389  -0.684 123.763  0.00  0.00    +0.000 HD
BRANCH  15  18
ATOM     17  C   UNL     1      -7.336  -1.244 123.113  0.00  0.00    +0.000 C 
ATOM     18  C   UNL     1      -8.797  -1.515 122.747  0.00  0.00    +0.000 C 
ATOM     19  C   UNL     1      -9.252  -2.811 123.424  0.00  0.00    +0.000 C 
ENDBRANCH  15  18
ENDBRANCH  14  15
ENDBRANCH  11  14
ENDBRANCH   1  11
TORSDOF 7
ENDMDL
MODEL 5
REMARK VINA RESULT:      -5.7      3.033      5.845
REMARK  Name = Isoprenaline
REMARK  9 active torsions:
REMARK  status: ('A' for Active; 'I' for Inactive)
REMARK    1  A    between atoms: C_1  and  C_2
REMARK    2  A    between atoms: C_2  and  C_3
REMARK    3  A    between atoms: C_2  and  N_4
REMARK    4  A    between atoms: N_4  and  C_5
REMARK    5  A    between atoms: C_5  and  C_6
REMARK    6  A    between atoms: C_6  and  O_7
REMARK    7  A    between atoms: C_6  and  C_8
REMARK    8  A    between atoms: C_10  and  O_11
REMARK    9  A    between atoms: C_12  and  O_13
REMARK                            x       y       z     vdW  Elec       q    Type
REMARK                         _______ _______ _______ _____ _____    ______ ____
ROOT
ATOM      1  C   UNL     1      -9.898   6.550 130.219  0.00  0.00    +0.000 A 
ATOM      2  C   UNL     1      -8.529   6.507 130.555  0.00  0.00    +0.000 A 
ATOM      3  C   UNL     1      -8.153   6.266 131.878  0.00  0.00    +0.000 A 
ATOM      4  C   UNL     1      -9.116   6.058 132.858  0.00  0.00    +0.000 A 
ATOM      5  C   UNL     1     -10.465   6.062 132.540  0.00  0.00    +0.000 A 
ATOM      6  C   UNL     1     -10.851   6.299 131.222  0.00  0.00    +0.000 A 
ENDROOT
BRANCH   3   7
ATOM      7  O   UNL     1      -6.839   6.224 132.261  0.00  0.00    +0.000 OA
ATOM      8  H   UNL     1      -6.575   7.111 132.553  0.00  0.00    +0.000 HD
ENDBRANCH   3   7
BRANCH   4   9
ATOM      9  O   UNL     1      -8.755   5.844 134.158  0.00  0.00    +0.000 OA
ATOM     10  H   UNL     1      -8.839   6.718 134.586  0.00  0.00    +0.000 HD
ENDBRANCH   4   9
BRANCH   1  11
ATOM     11  C   UNL     1     -10.326   6.801 128.782  0.00  0.00    +0.000 C 
BRANCH  11  12
ATOM     12  O   UNL     1      -9.468   6.102 127.874  0.00  0.00    +0.000 OA
ATOM     13  H   UNL     1      -8.863   6.752 127.482  0.00  0.00    +0.000 HD
ENDBRANCH  11  12
BRANCH  11  14
ATOM     14  C   UNL     1     -10.314   8.316 128.483  0.00  0.00    +0.000 C 
BRANCH  14  15
ATOM     15  N   UNL     1     -11.549   8.766 127.825  0.00  0.00    +0.000 NA
ATOM     16  H   UNL     1     -11.469   9.766 127.623  0.00  0.00    +0.000 HD
BRANCH  15  18
ATOM     17  C   UNL     1     -13.372   9.825 129.053  0.00  0.00    +0.000 C 
ATOM     18  C   UNL     1     -12.748   8.495 128.625  0.00  0.00    +0.000 C 
ATOM     19  C   UNL     1     -13.780   7.688 127.832  0.00  0.00    +0.000 C 
ENDBRANCH  15  18
ENDBRANCH  14  15
ENDBRANCH  11  14
ENDBRANCH   1  11
TORSDOF 7
ENDMDL
MODEL 6
REMARK VINA RESULT:      -5.3     10.281     11.421
REMARK  Name = Isoprenaline
REMARK  9 active torsions:
REMARK  status: ('A' for Active; 'I' for Inactive)
REMARK    1  A    between atoms: C_1  and  C_2
REMARK    2  A    between atoms: C_2  and  C_3
REMARK    3  A    between atoms: C_2  and  N_4
REMARK    4  A    between atoms: N_4  and  C_5
REMARK    5  A    between atoms: C_5  and  C_6
REMARK    6  A    between atoms: C_6  and  O_7
REMARK    7  A    between atoms: C_6  and  C_8
REMARK    8  A    between atoms: C_10  and  O_11
REMARK    9  A    between atoms: C_12  and  O_13
REMARK                            x       y       z     vdW  Elec       q    Type
REMARK                         _______ _______ _______ _____ _____    ______ ____
ROOT
ATOM      1  C   UNL     1      -8.037  -2.632 126.783  0.00  0.00    +0.000 A 
ATOM      2  C   UNL     1      -6.746  -2.073 126.871  0.00  0.00    +0.000 A 
ATOM      3  C   UNL     1      -6.016  -2.210 128.054  0.00  0.00    +0.000 A 
ATOM      4  C   UNL     1      -6.550  -2.901 129.135  0.00  0.00    +0.000 A 
ATOM      5  C   UNL     1      -7.803  -3.487 129.055  0.00  0.00    +0.000 A 
ATOM      6  C   UNL     1      -8.539  -3.358 127.877  0.00  0.00    +0.000 A 
ENDROOT
BRANCH   3   7
ATOM      7  O   UNL     1      -4.762  -1.679 128.197  0.00  0.00    +0.000 OA
ATOM      8  H   UNL     1      -4.790  -0.748 127.920  0.00  0.00    +0.000 HD
ENDBRANCH   3   7
BRANCH   4   9
ATOM      9  O   UNL     1      -5.850  -3.019 130.303  0.00  0.00    +0.000 OA
ATOM     10  H   UNL     1      -5.371  -2.172 130.391  0.00  0.00    +0.000 HD
ENDBRANCH   4   9
BRANCH   1  11
ATOM     11  C   UNL     1      -8.842  -2.501 125.499  0.00  0.00    +0.000 C 
BRANCH  11  12
ATOM     12  O   UNL     1     -10.157  -3.040 125.675  0.00  0.00    +0.000 OA
ATOM     13  H   UNL     1     -10.617  -2.977 124.823  0.00  0.00    +0.000 HD
ENDBRANCH  11  12
BRANCH  11  14
ATOM     14  C   UNL     1      -8.112  -3.216 124.342  0.00  0.00    +0.000 C 
BRANCH  14  15
ATOM     15  N   UNL     1      -8.161  -2.449 123.090  0.00  0.00    +0.000 NA
ATOM     16  H   UNL     1      -8.467  -3.069 122.335  0.00  0.00    +0.000 HD
BRANCH  15  18
ATOM     17  C   UNL     1      -6.859  -0.397 123.308  0.00  0.00    +0.000 C 
ATOM     18  C   UNL     1      -6.876  -1.825 122.758  0.00  0.00    +0.000 C 
ATOM     19  C   UNL     1      -5.703  -2.607 123.354  0.00  0.00    +0.000 C 
ENDBRANCH  15  18
ENDBRANCH  14  15
ENDBRANCH  11  14
ENDBRANCH   1  11
TORSDOF 7
ENDMDL
MODEL 7
REMARK VINA RESULT:      -5.3      8.313      9.842
REMARK  Name = Isoprenaline
REMARK  9 active torsions:
REMARK  status: ('A' for Active; 'I' for Inactive)
REMARK    1  A    between atoms: C_1  and  C_2
REMARK    2  A    between atoms: C_2  and  C_3
REMARK    3  A    between atoms: C_2  and  N_4
REMARK    4  A    between atoms: N_4  and  C_5
REMARK    5  A    between atoms: C_5  and  C_6
REMARK    6  A    between atoms: C_6  and  O_7
REMARK    7  A    between atoms: C_6  and  C_8
REMARK    8  A    between atoms: C_10  and  O_11
REMARK    9  A    between atoms: C_12  and  O_13
REMARK                            x       y       z     vdW  Elec       q    Type
REMARK                         _______ _______ _______ _____ _____    ______ ____
ROOT
ATOM      1  C   UNL     1      -7.147   0.177 124.323  0.00  0.00    +0.000 A 
ATOM      2  C   UNL     1      -8.512   0.320 123.998  0.00  0.00    +0.000 A 
ATOM      3  C   UNL     1      -9.165   1.521 124.281  0.00  0.00    +0.000 A 
ATOM      4  C   UNL     1      -8.477   2.575 124.870  0.00  0.00    +0.000 A 
ATOM      5  C   UNL     1      -7.128   2.466 125.165  0.00  0.00    +0.000 A 
ATOM      6  C   UNL     1      -6.466   1.272 124.883  0.00  0.00    +0.000 A 
ENDROOT
BRANCH   3   7
ATOM      7  O   UNL     1     -10.491   1.709 123.996  0.00  0.00    +0.000 OA
ATOM      8  H   UNL     1     -10.957   0.868 124.132  0.00  0.00    +0.000 HD
ENDBRANCH   3   7
BRANCH   4   9
ATOM      9  O   UNL     1      -9.117   3.744 125.171  0.00  0.00    +0.000 OA
ATOM     10  H   UNL     1     -10.065   3.549 125.042  0.00  0.00    +0.000 HD
ENDBRANCH   4   9
BRANCH   1  11
ATOM     11  C   UNL     1      -6.417  -1.119 124.012  0.00  0.00    +0.000 C 
BRANCH  11  12
ATOM     12  O   UNL     1      -6.712  -1.553 122.679  0.00  0.00    +0.000 OA
ATOM     13  H   UNL     1      -7.664  -1.436 122.535  0.00  0.00    +0.000 HD
ENDBRANCH  11  12
BRANCH  11  14
ATOM     14  C   UNL     1      -6.809  -2.206 125.036  0.00  0.00    +0.000 C 
BRANCH  14  15
ATOM     15  N   UNL     1      -7.292  -3.435 124.391  0.00  0.00    +0.000 NA
ATOM     16  H   UNL     1      -7.101  -3.378 123.387  0.00  0.00    +0.000 HD
BRANCH  15  18
ATOM     17  C   UNL     1      -9.162  -2.866 125.851  0.00  0.00    +0.000 C 
ATOM     18  C   UNL     1      -8.718  -3.678 124.633  0.00  0.00    +0.000 C 
ATOM     19  C   UNL     1      -9.568  -3.275 123.425  0.00  0.00    +0.000 C 
ENDBRANCH  15  18
ENDBRANCH  14  15
ENDBRANCH  11  14
ENDBRANCH   1  11
TORSDOF 7
ENDMDL
MODEL 8
REMARK VINA RESULT:      -5.3      7.913      8.999
REMARK  Name = Isoprenaline
REMARK  9 active torsions:
REMARK  status: ('A' for Active; 'I' for Inactive)
REMARK    1  A    between atoms: C_1  and  C_2
REMARK    2  A    between atoms: C_2  and  C_3
REMARK    3  A    between atoms: C_2  and  N_4
REMARK    4  A    between atoms: N_4  and  C_5
REMARK    5  A    between atoms: C_5  and  C_6
REMARK    6  A    between atoms: C_6  and  O_7
REMARK    7  A    between atoms: C_6  and  C_8
REMARK    8  A    between atoms: C_10  and  O_11
REMARK    9  A    between atoms: C_12  and  O_13
REMARK                            x       y       z     vdW  Elec       q    Type
REMARK                         _______ _______ _______ _____ _____    ______ ____
ROOT
ATOM      1  C   UNL     1      -8.392   1.901 124.957  0.00  0.00    +0.000 A 
ATOM      2  C   UNL     1      -8.966   2.403 123.771  0.00  0.00    +0.000 A 
ATOM      3  C   UNL     1      -8.197   3.194 122.915  0.00  0.00    +0.000 A 
ATOM      4  C   UNL     1      -6.872   3.479 123.219  0.00  0.00    +0.000 A 
ATOM      5  C   UNL     1      -6.280   2.966 124.362  0.00  0.00    +0.000 A 
ATOM      6  C   UNL     1      -7.038   2.173 125.222  0.00  0.00    +0.000 A 
ENDROOT
BRANCH   3   7
ATOM      7  O   UNL     1      -8.709   3.715 121.756  0.00  0.00    +0.000 OA
ATOM      8  H   UNL     1      -9.354   4.403 121.987  0.00  0.00    +0.000 HD
ENDBRANCH   3   7
BRANCH   4   9
ATOM      9  O   UNL     1      -6.122   4.271 122.397  0.00  0.00    +0.000 OA
ATOM     10  H   UNL     1      -6.773   4.720 121.823  0.00  0.00    +0.000 HD
ENDBRANCH   4   9
BRANCH   1  11
ATOM     11  C   UNL     1      -9.210   1.029 125.895  0.00  0.00    +0.000 C 
BRANCH  11  12
ATOM     12  O   UNL     1      -9.128   1.522 127.237  0.00  0.00    +0.000 OA
ATOM     13  H   UNL     1      -8.203   1.758 127.408  0.00  0.00    +0.000 HD
ENDBRANCH  11  12
BRANCH  11  14
ATOM     14  C   UNL     1      -8.719  -0.433 125.823  0.00  0.00    +0.000 C 
BRANCH  14  15
ATOM     15  N   UNL     1      -9.434  -1.214 124.804  0.00  0.00    +0.000 NA
ATOM     16  H   UNL     1     -10.218  -1.697 125.250  0.00  0.00    +0.000 HD
BRANCH  15  18
ATOM     17  C   UNL     1      -9.431  -3.244 123.450  0.00  0.00    +0.000 C 
ATOM     18  C   UNL     1      -8.564  -2.171 124.112  0.00  0.00    +0.000 C 
ATOM     19  C   UNL     1      -7.714  -1.482 123.041  0.00  0.00    +0.000 C 
ENDBRANCH  15  18
ENDBRANCH  14  15
ENDBRANCH  11  14
ENDBRANCH   1  11
TORSDOF 7
ENDMDL
MODEL 9
REMARK VINA RESULT:      -5.2      1.794      2.165
REMARK  Name = Isoprenaline
REMARK  9 active torsions:
REMARK  status: ('A' for Active; 'I' for Inactive)
REMARK    1  A    between atoms: C_1  and  C_2
REMARK    2  A    between atoms: C_2  and  C_3
REMARK    3  A    between atoms: C_2  and  N_4
REMARK    4  A    between atoms: N_4  and  C_5
REMARK    5  A    between atoms: C_5  and  C_6
REMARK    6  A    between atoms: C_6  and  O_7
REMARK    7  A    between atoms: C_6  and  C_8
REMARK    8  A    between atoms: C_10  and  O_11
REMARK    9  A    between atoms: C_12  and  O_13
REMARK                            x       y       z     vdW  Elec       q    Type
REMARK                         _______ _______ _______ _____ _____    ______ ____
ROOT
ATOM      1  C   UNL     1      -9.421   6.894 130.725  0.00  0.00    +0.000 A 
ATOM      2  C   UNL     1      -9.610   7.700 129.584  0.00  0.00    +0.000 A 
ATOM      3  C   UNL     1     -10.905   8.008 129.165  0.00  0.00    +0.000 A 
ATOM      4  C   UNL     1     -12.005   7.536 129.871  0.00  0.00    +0.000 A 
ATOM      5  C   UNL     1     -11.840   6.772 131.015  0.00  0.00    +0.000 A 
ATOM      6  C   UNL     1     -10.550   6.461 131.443  0.00  0.00    +0.000 A 
ENDROOT
BRANCH   3   7
ATOM      7  O   UNL     1     -11.144   8.778 128.057  0.00  0.00    +0.000 OA
ATOM      8  H   UNL     1     -11.591   9.593 128.340  0.00  0.00    +0.000 HD
ENDBRANCH   3   7
BRANCH   4   9
ATOM      9  O   UNL     1     -13.275   7.816 129.452  0.00  0.00    +0.000 OA
ATOM     10  H   UNL     1     -13.849   7.256 130.011  0.00  0.00    +0.000 HD
ENDBRANCH   4   9
BRANCH   1  11
ATOM     11  C   UNL     1      -8.018   6.557 131.202  0.00  0.00    +0.000 C 
BRANCH  11  12
ATOM     12  O   UNL     1      -7.059   7.432 130.598  0.00  0.00    +0.000 OA
ATOM     13  H   UNL     1      -7.221   8.326 130.939  0.00  0.00    +0.000 HD
ENDBRANCH  11  12
BRANCH  11  14
ATOM     14  C   UNL     1      -7.689   5.084 130.878  0.00  0.00    +0.000 C 
BRANCH  14  15
ATOM     15  N   UNL     1      -7.431   4.288 132.087  0.00  0.00    +0.000 NA
ATOM     16  H   UNL     1      -6.460   3.967 132.069  0.00  0.00    +0.000 HD
BRANCH  15  18
ATOM     17  C   UNL     1      -9.212   3.355 133.469  0.00  0.00    +0.000 C 
ATOM     18  C   UNL     1      -8.349   3.152 132.222  0.00  0.00    +0.000 C 
ATOM     19  C   UNL     1      -9.260   3.019 130.998  0.00  0.00    +0.000 C 
ENDBRANCH  15  18
ENDBRANCH  14  15
ENDBRANCH  11  14
ENDBRANCH   1  11
TORSDOF 7
ENDMDL
