MODEL 1
REMARK VINA RESULT:      -7.7      0.000      0.000
REMARK  Name = Isopropamide
REMARK  13 active torsions:
REMARK  status: ('A' for Active; 'I' for Inactive)
REMARK    1  A    between atoms: C_1  and  C_2
REMARK    2  A    between atoms: C_2  and  C_3
REMARK    3  A    between atoms: C_2  and  N_4
REMARK    4  A    between atoms: N_4  and  C_5
REMARK    5  A    between atoms: N_4  and  C_6
REMARK    6  A    between atoms: N_4  and  C_24
REMARK    7  A    between atoms: C_6  and  C_7
REMARK    8  A    between atoms: C_7  and  C_8
REMARK    9  A    between atoms: C_8  and  C_9
REMARK   10  A    between atoms: C_8  and  C_12
REMARK   11  A    between atoms: C_8  and  C_18
REMARK   12  A    between atoms: C_24  and  C_25
REMARK   13  A    between atoms: C_24  and  C_26
REMARK                            x       y       z     vdW  Elec       q    Type
REMARK                         _______ _______ _______ _____ _____    ______ ____
ROOT
ATOM      1  C   UNL     1      -8.190   1.981 123.326  0.00  0.00    +0.000 C 
ENDROOT
BRANCH   1   2
ATOM      2  C   UNL     1      -7.791   2.653 124.651  0.00  0.00    +0.000 A 
ATOM      3  C   UNL     1      -8.277   3.911 125.007  0.00  0.00    +0.000 A 
ATOM      4  C   UNL     1      -7.785   4.587 126.111  0.00  0.00    +0.000 A 
ATOM      5  C   UNL     1      -6.724   4.059 126.834  0.00  0.00    +0.000 A 
ATOM      6  C   UNL     1      -6.187   2.829 126.489  0.00  0.00    +0.000 A 
ATOM      7  C   UNL     1      -6.756   2.106 125.451  0.00  0.00    +0.000 A 
ENDBRANCH   1   2
BRANCH   1   8
ATOM      8  C   UNL     1      -7.729   2.859 122.112  0.00  0.00    +0.000 A 
ATOM      9  C   UNL     1      -8.658   3.474 121.245  0.00  0.00    +0.000 A 
ATOM     10  C   UNL     1      -8.262   4.077 120.056  0.00  0.00    +0.000 A 
ATOM     11  C   UNL     1      -6.916   4.212 119.770  0.00  0.00    +0.000 A 
ATOM     12  C   UNL     1      -5.972   3.749 120.676  0.00  0.00    +0.000 A 
ATOM     13  C   UNL     1      -6.374   3.090 121.837  0.00  0.00    +0.000 A 
ENDBRANCH   1   8
BRANCH   1  14
ATOM     14  C   UNL     1      -9.707   1.525 123.173  0.00  0.00    +0.000 C 
ATOM     15  N   UNL     1     -10.588   1.593 124.195  0.00  0.00    +0.000 N 
ATOM     16  O   UNL     1     -10.139   0.971 122.142  0.00  0.00    +0.000 OA
ATOM     17  H   UNL     1     -10.307   1.488 125.161  0.00  0.00    +0.000 HD
ATOM     18  H   UNL     1     -11.557   1.376 123.989  0.00  0.00    +0.000 HD
ENDBRANCH   1  14
BRANCH   1  19
ATOM     19  C   UNL     1      -7.411   0.670 123.182  0.00  0.00    +0.000 C 
BRANCH  19  20
ATOM     20  C   UNL     1      -8.234  -0.583 123.420  0.00  0.00    +0.000 C 
BRANCH  20  21
ATOM     21  N   UNL     1      -7.647  -1.540 124.520  0.00  0.00    +0.000 N 
ATOM     22  C   UNL     1      -8.303  -1.229 125.868  0.00  0.00    +0.000 C 
BRANCH  21  24
ATOM     23  C   UNL     1      -5.427  -1.308 125.961  0.00  0.00    +0.000 C 
ATOM     24  C   UNL     1      -6.048  -1.366 124.555  0.00  0.00    +0.000 C 
ATOM     25  C   UNL     1      -5.296  -2.535 123.928  0.00  0.00    +0.000 C 
ENDBRANCH  21  24
BRANCH  21  26
ATOM     26  C   UNL     1      -8.069  -3.024 124.038  0.00  0.00    +0.000 C 
ATOM     27  C   UNL     1      -8.315  -4.007 125.181  0.00  0.00    +0.000 C 
ATOM     28  C   UNL     1      -9.373  -3.015 123.216  0.00  0.00    +0.000 C 
ENDBRANCH  21  26
ENDBRANCH  20  21
ENDBRANCH  19  20
ENDBRANCH   1  19
TORSDOF 8
ENDMDL
MODEL 2
REMARK VINA RESULT:      -7.7      1.337      2.680
REMARK  Name = Isopropamide
REMARK  13 active torsions:
REMARK  status: ('A' for Active; 'I' for Inactive)
REMARK    1  A    between atoms: C_1  and  C_2
REMARK    2  A    between atoms: C_2  and  C_3
REMARK    3  A    between atoms: C_2  and  N_4
REMARK    4  A    between atoms: N_4  and  C_5
REMARK    5  A    between atoms: N_4  and  C_6
REMARK    6  A    between atoms: N_4  and  C_24
REMARK    7  A    between atoms: C_6  and  C_7
REMARK    8  A    between atoms: C_7  and  C_8
REMARK    9  A    between atoms: C_8  and  C_9
REMARK   10  A    between atoms: C_8  and  C_12
REMARK   11  A    between atoms: C_8  and  C_18
REMARK   12  A    between atoms: C_24  and  C_25
REMARK   13  A    between atoms: C_24  and  C_26
REMARK                            x       y       z     vdW  Elec       q    Type
REMARK                         _______ _______ _______ _____ _____    ______ ____
ROOT
ATOM      1  C   UNL     1      -7.438   2.263 123.633  0.00  0.00    +0.000 C 
ENDROOT
BRANCH   1   2
ATOM      2  C   UNL     1      -6.412   2.985 124.524  0.00  0.00    +0.000 A 
ATOM      3  C   UNL     1      -5.598   2.285 125.414  0.00  0.00    +0.000 A 
ATOM      4  C   UNL     1      -4.803   2.946 126.335  0.00  0.00    +0.000 A 
ATOM      5  C   UNL     1      -4.876   4.327 126.451  0.00  0.00    +0.000 A 
ATOM      6  C   UNL     1      -5.702   5.057 125.611  0.00  0.00    +0.000 A 
ATOM      7  C   UNL     1      -6.412   4.400 124.617  0.00  0.00    +0.000 A 
ENDBRANCH   1   2
BRANCH   1   8
ATOM      8  C   UNL     1      -7.445   2.889 122.196  0.00  0.00    +0.000 A 
ATOM      9  C   UNL     1      -6.254   3.078 121.463  0.00  0.00    +0.000 A 
ATOM     10  C   UNL     1      -6.229   3.816 120.283  0.00  0.00    +0.000 A 
ATOM     11  C   UNL     1      -7.415   4.260 119.728  0.00  0.00    +0.000 A 
ATOM     12  C   UNL     1      -8.619   3.961 120.349  0.00  0.00    +0.000 A 
ATOM     13  C   UNL     1      -8.634   3.275 121.562  0.00  0.00    +0.000 A 
ENDBRANCH   1   8
BRANCH   1  14
ATOM     14  C   UNL     1      -8.914   2.106 124.207  0.00  0.00    +0.000 C 
ATOM     15  N   UNL     1      -9.865   1.391 123.567  0.00  0.00    +0.000 N 
ATOM     16  O   UNL     1      -9.311   2.728 125.213  0.00  0.00    +0.000 OA
ATOM     17  H   UNL     1      -9.890   1.301 122.560  0.00  0.00    +0.000 HD
ATOM     18  H   UNL     1     -10.749   1.259 124.047  0.00  0.00    +0.000 HD
ENDBRANCH   1  14
BRANCH   1  19
ATOM     19  C   UNL     1      -6.984   0.814 123.430  0.00  0.00    +0.000 C 
BRANCH  19  20
ATOM     20  C   UNL     1      -7.329  -0.123 124.573  0.00  0.00    +0.000 C 
BRANCH  20  21
ATOM     21  N   UNL     1      -7.439  -1.634 124.156  0.00  0.00    +0.000 N 
ATOM     22  C   UNL     1      -7.021  -1.791 122.692  0.00  0.00    +0.000 C 
BRANCH  21  24
ATOM     23  C   UNL     1      -9.444  -3.244 123.485  0.00  0.00    +0.000 C 
ATOM     24  C   UNL     1      -8.945  -2.135 124.426  0.00  0.00    +0.000 C 
ATOM     25  C   UNL     1      -9.134  -2.777 125.796  0.00  0.00    +0.000 C 
ENDBRANCH  21  24
BRANCH  21  26
ATOM     26  C   UNL     1      -6.383  -2.399 125.110  0.00  0.00    +0.000 C 
ATOM     27  C   UNL     1      -5.294  -3.159 124.355  0.00  0.00    +0.000 C 
ATOM     28  C   UNL     1      -5.633  -1.425 126.040  0.00  0.00    +0.000 C 
ENDBRANCH  21  26
ENDBRANCH  20  21
ENDBRANCH  19  20
ENDBRANCH   1  19
TORSDOF 8
ENDMDL
MODEL 3
REMARK VINA RESULT:      -7.7      2.050      6.769
REMARK  Name = Isopropamide
REMARK  13 active torsions:
REMARK  status: ('A' for Active; 'I' for Inactive)
REMARK    1  A    between atoms: C_1  and  C_2
REMARK    2  A    between atoms: C_2  and  C_3
REMARK    3  A    between atoms: C_2  and  N_4
REMARK    4  A    between atoms: N_4  and  C_5
REMARK    5  A    between atoms: N_4  and  C_6
REMARK    6  A    between atoms: N_4  and  C_24
REMARK    7  A    between atoms: C_6  and  C_7
REMARK    8  A    between atoms: C_7  and  C_8
REMARK    9  A    between atoms: C_8  and  C_9
REMARK   10  A    between atoms: C_8  and  C_12
REMARK   11  A    between atoms: C_8  and  C_18
REMARK   12  A    between atoms: C_24  and  C_25
REMARK   13  A    between atoms: C_24  and  C_26
REMARK                            x       y       z     vdW  Elec       q    Type
REMARK                         _______ _______ _______ _____ _____    ______ ____
ROOT
ATOM      1  C   UNL     1      -7.756  -0.751 125.591  0.00  0.00    +0.000 C 
ENDROOT
BRANCH   1   2
ATOM      2  C   UNL     1      -6.716  -1.419 124.674  0.00  0.00    +0.000 A 
ATOM      3  C   UNL     1      -6.819  -1.354 123.285  0.00  0.00    +0.000 A 
ATOM      4  C   UNL     1      -5.986  -2.097 122.466  0.00  0.00    +0.000 A 
ATOM      5  C   UNL     1      -5.089  -2.998 123.021  0.00  0.00    +0.000 A 
ATOM      6  C   UNL     1      -4.982  -3.121 124.398  0.00  0.00    +0.000 A 
ATOM      7  C   UNL     1      -5.740  -2.295 125.214  0.00  0.00    +0.000 A 
ENDBRANCH   1   2
BRANCH   1   8
ATOM      8  C   UNL     1      -8.094  -1.688 126.802  0.00  0.00    +0.000 A 
ATOM      9  C   UNL     1      -7.707  -1.365 128.120  0.00  0.00    +0.000 A 
ATOM     10  C   UNL     1      -7.820  -2.281 129.161  0.00  0.00    +0.000 A 
ATOM     11  C   UNL     1      -8.457  -3.490 128.945  0.00  0.00    +0.000 A 
ATOM     12  C   UNL     1      -8.982  -3.776 127.692  0.00  0.00    +0.000 A 
ATOM     13  C   UNL     1      -8.811  -2.881 126.637  0.00  0.00    +0.000 A 
ENDBRANCH   1   8
BRANCH   1  14
ATOM     14  C   UNL     1      -9.077  -0.190 124.902  0.00  0.00    +0.000 C 
ATOM     15  N   UNL     1      -9.764   0.857 125.407  0.00  0.00    +0.000 N 
ATOM     16  O   UNL     1      -9.616  -0.755 123.930  0.00  0.00    +0.000 OA
ATOM     17  H   UNL     1      -9.798   1.058 126.397  0.00  0.00    +0.000 HD
ATOM     18  H   UNL     1     -10.538   1.215 124.855  0.00  0.00    +0.000 HD
ENDBRANCH   1  14
BRANCH   1  19
ATOM     19  C   UNL     1      -7.130   0.498 126.221  0.00  0.00    +0.000 C 
BRANCH  19  20
ATOM     20  C   UNL     1      -6.179   1.255 125.313  0.00  0.00    +0.000 C 
BRANCH  20  21
ATOM     21  N   UNL     1      -6.336   2.817 125.375  0.00  0.00    +0.000 N 
ATOM     22  C   UNL     1      -7.341   3.185 126.470  0.00  0.00    +0.000 C 
BRANCH  21  24
ATOM     23  C   UNL     1      -5.715   4.165 123.171  0.00  0.00    +0.000 C 
ATOM     24  C   UNL     1      -6.780   3.350 123.923  0.00  0.00    +0.000 C 
ATOM     25  C   UNL     1      -7.078   2.230 122.932  0.00  0.00    +0.000 C 
ENDBRANCH  21  24
BRANCH  21  26
ATOM     26  C   UNL     1      -4.867   3.359 125.779  0.00  0.00    +0.000 C 
ATOM     27  C   UNL     1      -4.881   4.547 126.739  0.00  0.00    +0.000 C 
ATOM     28  C   UNL     1      -4.024   2.276 126.479  0.00  0.00    +0.000 C 
ENDBRANCH  21  26
ENDBRANCH  20  21
ENDBRANCH  19  20
ENDBRANCH   1  19
TORSDOF 8
ENDMDL
MODEL 4
REMARK VINA RESULT:      -7.6      1.666      2.848
REMARK  Name = Isopropamide
REMARK  13 active torsions:
REMARK  status: ('A' for Active; 'I' for Inactive)
REMARK    1  A    between atoms: C_1  and  C_2
REMARK    2  A    between atoms: C_2  and  C_3
REMARK    3  A    between atoms: C_2  and  N_4
REMARK    4  A    between atoms: N_4  and  C_5
REMARK    5  A    between atoms: N_4  and  C_6
REMARK    6  A    between atoms: N_4  and  C_24
REMARK    7  A    between atoms: C_6  and  C_7
REMARK    8  A    between atoms: C_7  and  C_8
REMARK    9  A    between atoms: C_8  and  C_9
REMARK   10  A    between atoms: C_8  and  C_12
REMARK   11  A    between atoms: C_8  and  C_18
REMARK   12  A    between atoms: C_24  and  C_25
REMARK   13  A    between atoms: C_24  and  C_26
REMARK                            x       y       z     vdW  Elec       q    Type
REMARK                         _______ _______ _______ _____ _____    ______ ____
ROOT
ATOM      1  C   UNL     1      -7.221   2.286 124.509  0.00  0.00    +0.000 C 
ENDROOT
BRANCH   1   2
ATOM      2  C   UNL     1      -6.362   2.195 125.783  0.00  0.00    +0.000 A 
ATOM      3  C   UNL     1      -6.877   2.529 127.035  0.00  0.00    +0.000 A 
ATOM      4  C   UNL     1      -6.059   2.614 128.150  0.00  0.00    +0.000 A 
ATOM      5  C   UNL     1      -4.687   2.458 128.019  0.00  0.00    +0.000 A 
ATOM      6  C   UNL     1      -4.131   2.163 126.783  0.00  0.00    +0.000 A 
ATOM      7  C   UNL     1      -4.965   1.970 125.692  0.00  0.00    +0.000 A 
ENDBRANCH   1   2
BRANCH   1   8
ATOM      8  C   UNL     1      -6.451   3.066 123.389  0.00  0.00    +0.000 A 
ATOM      9  C   UNL     1      -6.498   2.663 122.038  0.00  0.00    +0.000 A 
ATOM     10  C   UNL     1      -5.659   3.221 121.077  0.00  0.00    +0.000 A 
ATOM     11  C   UNL     1      -4.856   4.296 121.410  0.00  0.00    +0.000 A 
ATOM     12  C   UNL     1      -4.898   4.813 122.697  0.00  0.00    +0.000 A 
ATOM     13  C   UNL     1      -5.693   4.211 123.671  0.00  0.00    +0.000 A 
ENDBRANCH   1   8
BRANCH   1  14
ATOM     14  C   UNL     1      -8.710   2.824 124.676  0.00  0.00    +0.000 C 
ATOM     15  N   UNL     1      -9.777   2.158 124.181  0.00  0.00    +0.000 N 
ATOM     16  O   UNL     1      -8.968   3.941 125.164  0.00  0.00    +0.000 OA
ATOM     17  H   UNL     1      -9.723   1.588 123.347  0.00  0.00    +0.000 HD
ATOM     18  H   UNL     1     -10.697   2.516 124.414  0.00  0.00    +0.000 HD
ENDBRANCH   1  14
BRANCH   1  19
ATOM     19  C   UNL     1      -7.418   0.875 123.944  0.00  0.00    +0.000 C 
BRANCH  19  20
ATOM     20  C   UNL     1      -7.478  -0.222 124.989  0.00  0.00    +0.000 C 
BRANCH  20  21
ATOM     21  N   UNL     1      -7.518  -1.677 124.395  0.00  0.00    +0.000 N 
ATOM     22  C   UNL     1      -7.123  -1.634 122.917  0.00  0.00    +0.000 C 
BRANCH  21  24
ATOM     23  C   UNL     1      -9.459  -3.284 123.551  0.00  0.00    +0.000 C 
ATOM     24  C   UNL     1      -8.990  -2.287 124.624  0.00  0.00    +0.000 C 
ATOM     25  C   UNL     1      -9.112  -3.115 125.898  0.00  0.00    +0.000 C 
ENDBRANCH  21  24
BRANCH  21  26
ATOM     26  C   UNL     1      -6.404  -2.492 125.235  0.00  0.00    +0.000 C 
ATOM     27  C   UNL     1      -5.314  -3.129 124.374  0.00  0.00    +0.000 C 
ATOM     28  C   UNL     1      -5.660  -1.589 126.238  0.00  0.00    +0.000 C 
ENDBRANCH  21  26
ENDBRANCH  20  21
ENDBRANCH  19  20
ENDBRANCH   1  19
TORSDOF 8
ENDMDL
MODEL 5
REMARK VINA RESULT:      -7.5      2.169      6.800
REMARK  Name = Isopropamide
REMARK  13 active torsions:
REMARK  status: ('A' for Active; 'I' for Inactive)
REMARK    1  A    between atoms: C_1  and  C_2
REMARK    2  A    between atoms: C_2  and  C_3
REMARK    3  A    between atoms: C_2  and  N_4
REMARK    4  A    between atoms: N_4  and  C_5
REMARK    5  A    between atoms: N_4  and  C_6
REMARK    6  A    between atoms: N_4  and  C_24
REMARK    7  A    between atoms: C_6  and  C_7
REMARK    8  A    between atoms: C_7  and  C_8
REMARK    9  A    between atoms: C_8  and  C_9
REMARK   10  A    between atoms: C_8  and  C_12
REMARK   11  A    between atoms: C_8  and  C_18
REMARK   12  A    between atoms: C_24  and  C_25
REMARK   13  A    between atoms: C_24  and  C_26
REMARK                            x       y       z     vdW  Elec       q    Type
REMARK                         _______ _______ _______ _____ _____    ______ ____
ROOT
ATOM      1  C   UNL     1      -7.700  -0.790 125.734  0.00  0.00    +0.000 C 
ENDROOT
BRANCH   1   2
ATOM      2  C   UNL     1      -6.700  -1.470 124.784  0.00  0.00    +0.000 A 
ATOM      3  C   UNL     1      -6.826  -1.370 123.399  0.00  0.00    +0.000 A 
ATOM      4  C   UNL     1      -6.033  -2.121 122.548  0.00  0.00    +0.000 A 
ATOM      5  C   UNL     1      -5.154  -3.062 123.066  0.00  0.00    +0.000 A 
ATOM      6  C   UNL     1      -5.027  -3.219 124.438  0.00  0.00    +0.000 A 
ATOM      7  C   UNL     1      -5.743  -2.388 125.286  0.00  0.00    +0.000 A 
ENDBRANCH   1   2
BRANCH   1   8
ATOM      8  C   UNL     1      -8.055  -1.746 126.925  0.00  0.00    +0.000 A 
ATOM      9  C   UNL     1      -7.699  -1.439 128.255  0.00  0.00    +0.000 A 
ATOM     10  C   UNL     1      -7.826  -2.371 129.281  0.00  0.00    +0.000 A 
ATOM     11  C   UNL     1      -8.446  -3.582 129.035  0.00  0.00    +0.000 A 
ATOM     12  C   UNL     1      -8.942  -3.855 127.767  0.00  0.00    +0.000 A 
ATOM     13  C   UNL     1      -8.757  -2.944 126.729  0.00  0.00    +0.000 A 
ENDBRANCH   1   8
BRANCH   1  14
ATOM     14  C   UNL     1      -9.010  -0.162 125.081  0.00  0.00    +0.000 C 
ATOM     15  N   UNL     1      -9.572   0.975 125.545  0.00  0.00    +0.000 N 
ATOM     16  O   UNL     1      -9.656  -0.743 124.187  0.00  0.00    +0.000 OA
ATOM     17  H   UNL     1      -9.526   1.247 126.518  0.00  0.00    +0.000 HD
ATOM     18  H   UNL     1     -10.346   1.361 125.013  0.00  0.00    +0.000 HD
ENDBRANCH   1  14
BRANCH   1  19
ATOM     19  C   UNL     1      -7.020   0.418 126.388  0.00  0.00    +0.000 C 
BRANCH  19  20
ATOM     20  C   UNL     1      -6.053   1.163 125.487  0.00  0.00    +0.000 C 
BRANCH  20  21
ATOM     21  N   UNL     1      -5.998   2.712 125.743  0.00  0.00    +0.000 N 
ATOM     22  C   UNL     1      -4.548   3.136 125.993  0.00  0.00    +0.000 C 
BRANCH  21  24
ATOM     23  C   UNL     1      -6.252   3.513 128.264  0.00  0.00    +0.000 C 
ATOM     24  C   UNL     1      -6.967   3.066 126.978  0.00  0.00    +0.000 C 
ATOM     25  C   UNL     1      -7.891   4.248 126.705  0.00  0.00    +0.000 C 
ENDBRANCH  21  24
BRANCH  21  26
ATOM     26  C   UNL     1      -6.530   3.373 124.367  0.00  0.00    +0.000 C 
ATOM     27  C   UNL     1      -5.532   4.319 123.701  0.00  0.00    +0.000 C 
ATOM     28  C   UNL     1      -6.857   2.307 123.302  0.00  0.00    +0.000 C 
ENDBRANCH  21  26
ENDBRANCH  20  21
ENDBRANCH  19  20
ENDBRANCH   1  19
TORSDOF 8
ENDMDL
MODEL 6
REMARK VINA RESULT:      -7.3      2.171      7.091
REMARK  Name = Isopropamide
REMARK  13 active torsions:
REMARK  status: ('A' for Active; 'I' for Inactive)
REMARK    1  A    between atoms: C_1  and  C_2
REMARK    2  A    between atoms: C_2  and  C_3
REMARK    3  A    between atoms: C_2  and  N_4
REMARK    4  A    between atoms: N_4  and  C_5
REMARK    5  A    between atoms: N_4  and  C_6
REMARK    6  A    between atoms: N_4  and  C_24
REMARK    7  A    between atoms: C_6  and  C_7
REMARK    8  A    between atoms: C_7  and  C_8
REMARK    9  A    between atoms: C_8  and  C_9
REMARK   10  A    between atoms: C_8  and  C_12
REMARK   11  A    between atoms: C_8  and  C_18
REMARK   12  A    between atoms: C_24  and  C_25
REMARK   13  A    between atoms: C_24  and  C_26
REMARK                            x       y       z     vdW  Elec       q    Type
REMARK                         _______ _______ _______ _____ _____    ______ ____
ROOT
ATOM      1  C   UNL     1      -7.394  -2.267 125.267  0.00  0.00    +0.000 C 
ENDROOT
BRANCH   1   2
ATOM      2  C   UNL     1      -6.329  -3.040 124.470  0.00  0.00    +0.000 A 
ATOM      3  C   UNL     1      -6.260  -4.432 124.503  0.00  0.00    +0.000 A 
ATOM      4  C   UNL     1      -5.201  -5.115 123.929  0.00  0.00    +0.000 A 
ATOM      5  C   UNL     1      -4.134  -4.413 123.386  0.00  0.00    +0.000 A 
ATOM      6  C   UNL     1      -4.147  -3.027 123.367  0.00  0.00    +0.000 A 
ATOM      7  C   UNL     1      -5.259  -2.351 123.844  0.00  0.00    +0.000 A 
ENDBRANCH   1   2
BRANCH   1   8
ATOM      8  C   UNL     1      -7.246  -2.561 126.799  0.00  0.00    +0.000 A 
ATOM      9  C   UNL     1      -8.238  -3.258 127.521  0.00  0.00    +0.000 A 
ATOM     10  C   UNL     1      -8.211  -3.342 128.910  0.00  0.00    +0.000 A 
ATOM     11  C   UNL     1      -7.117  -2.859 129.605  0.00  0.00    +0.000 A 
ATOM     12  C   UNL     1      -6.054  -2.300 128.910  0.00  0.00    +0.000 A 
ATOM     13  C   UNL     1      -6.113  -2.163 127.524  0.00  0.00    +0.000 A 
ENDBRANCH   1   8
BRANCH   1  14
ATOM     14  C   UNL     1      -8.906  -2.414 124.789  0.00  0.00    +0.000 C 
ATOM     15  N   UNL     1      -9.250  -3.130 123.697  0.00  0.00    +0.000 N 
ATOM     16  O   UNL     1      -9.840  -1.783 125.322  0.00  0.00    +0.000 OA
ATOM     17  H   UNL     1      -8.640  -3.228 122.897  0.00  0.00    +0.000 HD
ATOM     18  H   UNL     1     -10.241  -3.255 123.517  0.00  0.00    +0.000 HD
ENDBRANCH   1  14
BRANCH   1  19
ATOM     19  C   UNL     1      -7.125  -0.765 125.126  0.00  0.00    +0.000 C 
BRANCH  19  20
ATOM     20  C   UNL     1      -7.595  -0.159 123.817  0.00  0.00    +0.000 C 
BRANCH  20  21
ATOM     21  N   UNL     1      -8.132   1.313 123.945  0.00  0.00    +0.000 N 
ATOM     22  C   UNL     1      -8.171   1.714 125.422  0.00  0.00    +0.000 C 
BRANCH  21  24
ATOM     23  C   UNL     1      -9.949   0.191 122.363  0.00  0.00    +0.000 C 
ATOM     24  C   UNL     1      -9.578   1.397 123.243  0.00  0.00    +0.000 C 
ATOM     25  C   UNL     1     -10.734   1.429 124.236  0.00  0.00    +0.000 C 
ENDBRANCH  21  24
BRANCH  21  26
ATOM     26  C   UNL     1      -7.042   2.214 123.163  0.00  0.00    +0.000 C 
ATOM     27  C   UNL     1      -7.645   3.179 122.143  0.00  0.00    +0.000 C 
ATOM     28  C   UNL     1      -6.222   3.095 124.125  0.00  0.00    +0.000 C 
ENDBRANCH  21  26
ENDBRANCH  20  21
ENDBRANCH  19  20
ENDBRANCH   1  19
TORSDOF 8
ENDMDL
MODEL 7
REMARK VINA RESULT:      -7.2      2.165      6.863
REMARK  Name = Isopropamide
REMARK  13 active torsions:
REMARK  status: ('A' for Active; 'I' for Inactive)
REMARK    1  A    between atoms: C_1  and  C_2
REMARK    2  A    between atoms: C_2  and  C_3
REMARK    3  A    between atoms: C_2  and  N_4
REMARK    4  A    between atoms: N_4  and  C_5
REMARK    5  A    between atoms: N_4  and  C_6
REMARK    6  A    between atoms: N_4  and  C_24
REMARK    7  A    between atoms: C_6  and  C_7
REMARK    8  A    between atoms: C_7  and  C_8
REMARK    9  A    between atoms: C_8  and  C_9
REMARK   10  A    between atoms: C_8  and  C_12
REMARK   11  A    between atoms: C_8  and  C_18
REMARK   12  A    between atoms: C_24  and  C_25
REMARK   13  A    between atoms: C_24  and  C_26
REMARK                            x       y       z     vdW  Elec       q    Type
REMARK                         _______ _______ _______ _____ _____    ______ ____
ROOT
ATOM      1  C   UNL     1      -7.444  -2.264 124.826  0.00  0.00    +0.000 C 
ENDROOT
BRANCH   1   2
ATOM      2  C   UNL     1      -6.272  -3.040 124.199  0.00  0.00    +0.000 A 
ATOM      3  C   UNL     1      -6.162  -4.424 124.327  0.00  0.00    +0.000 A 
ATOM      4  C   UNL     1      -5.023  -5.096 123.916  0.00  0.00    +0.000 A 
ATOM      5  C   UNL     1      -3.926  -4.385 123.450  0.00  0.00    +0.000 A 
ATOM      6  C   UNL     1      -3.982  -3.004 123.343  0.00  0.00    +0.000 A 
ATOM      7  C   UNL     1      -5.162  -2.346 123.652  0.00  0.00    +0.000 A 
ENDBRANCH   1   2
BRANCH   1   8
ATOM      8  C   UNL     1      -7.613  -2.659 126.333  0.00  0.00    +0.000 A 
ATOM      9  C   UNL     1      -8.604  -3.571 126.755  0.00  0.00    +0.000 A 
ATOM     10  C   UNL     1      -8.893  -3.767 128.102  0.00  0.00    +0.000 A 
ATOM     11  C   UNL     1      -8.103  -3.169 129.067  0.00  0.00    +0.000 A 
ATOM     12  C   UNL     1      -7.026  -2.383 128.683  0.00  0.00    +0.000 A 
ATOM     13  C   UNL     1      -6.778  -2.140 127.333  0.00  0.00    +0.000 A 
ENDBRANCH   1   8
BRANCH   1  14
ATOM     14  C   UNL     1      -8.835  -2.304 124.054  0.00  0.00    +0.000 C 
ATOM     15  N   UNL     1      -8.959  -1.903 122.769  0.00  0.00    +0.000 N 
ATOM     16  O   UNL     1      -9.907  -2.593 124.620  0.00  0.00    +0.000 OA
ATOM     17  H   UNL     1      -8.380  -1.177 122.369  0.00  0.00    +0.000 HD
ATOM     18  H   UNL     1      -9.857  -2.052 122.321  0.00  0.00    +0.000 HD
ENDBRANCH   1  14
BRANCH   1  19
ATOM     19  C   UNL     1      -7.095  -0.772 124.846  0.00  0.00    +0.000 C 
BRANCH  19  20
ATOM     20  C   UNL     1      -8.228   0.136 125.288  0.00  0.00    +0.000 C 
BRANCH  20  21
ATOM     21  N   UNL     1      -7.894   1.669 125.206  0.00  0.00    +0.000 N 
ATOM     22  C   UNL     1      -6.561   1.862 124.478  0.00  0.00    +0.000 C 
BRANCH  21  24
ATOM     23  C   UNL     1      -8.572   1.408 127.762  0.00  0.00    +0.000 C 
ATOM     24  C   UNL     1      -7.878   2.274 126.697  0.00  0.00    +0.000 C 
ATOM     25  C   UNL     1      -6.475   2.422 127.277  0.00  0.00    +0.000 C 
ENDBRANCH  21  24
BRANCH  21  26
ATOM     26  C   UNL     1      -9.093   2.301 124.326  0.00  0.00    +0.000 C 
ATOM     27  C   UNL     1      -8.686   2.695 122.907  0.00  0.00    +0.000 C 
ATOM     28  C   UNL     1     -10.268   1.318 124.157  0.00  0.00    +0.000 C 
ENDBRANCH  21  26
ENDBRANCH  20  21
ENDBRANCH  19  20
ENDBRANCH   1  19
TORSDOF 8
ENDMDL
MODEL 8
REMARK VINA RESULT:      -7.0      1.943      2.752
REMARK  Name = Isopropamide
REMARK  13 active torsions:
REMARK  status: ('A' for Active; 'I' for Inactive)
REMARK    1  A    between atoms: C_1  and  C_2
REMARK    2  A    between atoms: C_2  and  C_3
REMARK    3  A    between atoms: C_2  and  N_4
REMARK    4  A    between atoms: N_4  and  C_5
REMARK    5  A    between atoms: N_4  and  C_6
REMARK    6  A    between atoms: N_4  and  C_24
REMARK    7  A    between atoms: C_6  and  C_7
REMARK    8  A    between atoms: C_7  and  C_8
REMARK    9  A    between atoms: C_8  and  C_9
REMARK   10  A    between atoms: C_8  and  C_12
REMARK   11  A    between atoms: C_8  and  C_18
REMARK   12  A    between atoms: C_24  and  C_25
REMARK   13  A    between atoms: C_24  and  C_26
REMARK                            x       y       z     vdW  Elec       q    Type
REMARK                         _______ _______ _______ _____ _____    ______ ____
ROOT
ATOM      1  C   UNL     1      -6.542   2.815 124.831  0.00  0.00    +0.000 C 
ENDROOT
BRANCH   1   2
ATOM      2  C   UNL     1      -5.505   3.236 125.887  0.00  0.00    +0.000 A 
ATOM      3  C   UNL     1      -5.507   4.515 126.442  0.00  0.00    +0.000 A 
ATOM      4  C   UNL     1      -4.474   4.947 127.258  0.00  0.00    +0.000 A 
ATOM      5  C   UNL     1      -3.365   4.138 127.463  0.00  0.00    +0.000 A 
ATOM      6  C   UNL     1      -3.308   2.874 126.898  0.00  0.00    +0.000 A 
ATOM      7  C   UNL     1      -4.392   2.404 126.173  0.00  0.00    +0.000 A 
ENDBRANCH   1   2
BRANCH   1   8
ATOM      8  C   UNL     1      -6.102   3.310 123.410  0.00  0.00    +0.000 A 
ATOM      9  C   UNL     1      -6.519   2.653 122.233  0.00  0.00    +0.000 A 
ATOM     10  C   UNL     1      -5.972   2.957 120.991  0.00  0.00    +0.000 A 
ATOM     11  C   UNL     1      -5.100   4.025 120.869  0.00  0.00    +0.000 A 
ATOM     12  C   UNL     1      -4.785   4.785 121.985  0.00  0.00    +0.000 A 
ATOM     13  C   UNL     1      -5.288   4.438 123.238  0.00  0.00    +0.000 A 
ENDBRANCH   1   8
BRANCH   1  14
ATOM     14  C   UNL     1      -8.064   3.172 125.127  0.00  0.00    +0.000 C 
ATOM     15  N   UNL     1      -9.059   2.856 124.269  0.00  0.00    +0.000 N 
ATOM     16  O   UNL     1      -8.412   3.865 126.103  0.00  0.00    +0.000 OA
ATOM     17  H   UNL     1      -8.919   2.809 123.269  0.00  0.00    +0.000 HD
ATOM     18  H   UNL     1     -10.011   3.030 124.576  0.00  0.00    +0.000 HD
ENDBRANCH   1  14
BRANCH   1  19
ATOM     19  C   UNL     1      -6.553   1.286 124.730  0.00  0.00    +0.000 C 
BRANCH  19  20
ATOM     20  C   UNL     1      -7.260   0.582 125.873  0.00  0.00    +0.000 C 
BRANCH  20  21
ATOM     21  N   UNL     1      -7.451  -0.963 125.659  0.00  0.00    +0.000 N 
ATOM     22  C   UNL     1      -8.945  -1.294 125.634  0.00  0.00    +0.000 C 
BRANCH  21  24
ATOM     23  C   UNL     1      -5.759  -0.868 127.705  0.00  0.00    +0.000 C 
ATOM     24  C   UNL     1      -6.663  -1.746 126.823  0.00  0.00    +0.000 C 
ATOM     25  C   UNL     1      -7.584  -2.386 127.855  0.00  0.00    +0.000 C 
ENDBRANCH  21  24
BRANCH  21  26
ATOM     26  C   UNL     1      -6.803  -1.257 124.207  0.00  0.00    +0.000 C 
ATOM     27  C   UNL     1      -5.647  -2.255 124.229  0.00  0.00    +0.000 C 
ATOM     28  C   UNL     1      -7.833  -1.843 123.222  0.00  0.00    +0.000 C 
ENDBRANCH  21  26
ENDBRANCH  20  21
ENDBRANCH  19  20
ENDBRANCH   1  19
TORSDOF 8
ENDMDL
MODEL 9
REMARK VINA RESULT:      -6.9      2.308      3.365
REMARK  Name = Isopropamide
REMARK  13 active torsions:
REMARK  status: ('A' for Active; 'I' for Inactive)
REMARK    1  A    between atoms: C_1  and  C_2
REMARK    2  A    between atoms: C_2  and  C_3
REMARK    3  A    between atoms: C_2  and  N_4
REMARK    4  A    between atoms: N_4  and  C_5
REMARK    5  A    between atoms: N_4  and  C_6
REMARK    6  A    between atoms: N_4  and  C_24
REMARK    7  A    between atoms: C_6  and  C_7
REMARK    8  A    between atoms: C_7  and  C_8
REMARK    9  A    between atoms: C_8  and  C_9
REMARK   10  A    between atoms: C_8  and  C_12
REMARK   11  A    between atoms: C_8  and  C_18
REMARK   12  A    between atoms: C_24  and  C_25
REMARK   13  A    between atoms: C_24  and  C_26
REMARK                            x       y       z     vdW  Elec       q    Type
REMARK                         _______ _______ _______ _____ _____    ______ ____
ROOT
ATOM      1  C   UNL     1      -5.924   3.006 125.588  0.00  0.00    +0.000 C 
ENDROOT
BRANCH   1   2
ATOM      2  C   UNL     1      -4.697   3.677 126.229  0.00  0.00    +0.000 A 
ATOM      3  C   UNL     1      -3.497   2.989 126.404  0.00  0.00    +0.000 A 
ATOM      4  C   UNL     1      -2.454   3.534 127.134  0.00  0.00    +0.000 A 
ATOM      5  C   UNL     1      -2.622   4.747 127.787  0.00  0.00    +0.000 A 
ATOM      6  C   UNL     1      -3.814   5.445 127.669  0.00  0.00    +0.000 A 
ATOM      7  C   UNL     1      -4.814   4.948 126.848  0.00  0.00    +0.000 A 
ENDBRANCH   1   2
BRANCH   1   8
ATOM      8  C   UNL     1      -6.033   3.403 124.076  0.00  0.00    +0.000 A 
ATOM      9  C   UNL     1      -7.083   2.933 123.258  0.00  0.00    +0.000 A 
ATOM     10  C   UNL     1      -7.073   3.111 121.878  0.00  0.00    +0.000 A 
ATOM     11  C   UNL     1      -6.090   3.889 121.294  0.00  0.00    +0.000 A 
ATOM     12  C   UNL     1      -5.125   4.490 122.091  0.00  0.00    +0.000 A 
ATOM     13  C   UNL     1      -5.104   4.258 123.465  0.00  0.00    +0.000 A 
ENDBRANCH   1   8
BRANCH   1  14
ATOM     14  C   UNL     1      -7.318   3.178 126.337  0.00  0.00    +0.000 C 
ATOM     15  N   UNL     1      -7.566   2.608 127.537  0.00  0.00    +0.000 N 
ATOM     16  O   UNL     1      -8.296   3.744 125.811  0.00  0.00    +0.000 OA
ATOM     17  H   UNL     1      -7.144   1.735 127.822  0.00  0.00    +0.000 HD
ATOM     18  H   UNL     1      -8.442   2.847 127.992  0.00  0.00    +0.000 HD
ENDBRANCH   1  14
BRANCH   1  19
ATOM     19  C   UNL     1      -5.712   1.489 125.583  0.00  0.00    +0.000 C 
BRANCH  19  20
ATOM     20  C   UNL     1      -6.860   0.692 124.992  0.00  0.00    +0.000 C 
BRANCH  20  21
ATOM     21  N   UNL     1      -7.001  -0.762 125.572  0.00  0.00    +0.000 N 
ATOM     22  C   UNL     1      -5.997  -0.956 126.711  0.00  0.00    +0.000 C 
BRANCH  21  24
ATOM     23  C   UNL     1      -6.778  -1.209 122.962  0.00  0.00    +0.000 C 
ATOM     24  C   UNL     1      -6.790  -1.817 124.375  0.00  0.00    +0.000 C 
ATOM     25  C   UNL     1      -5.442  -2.527 124.423  0.00  0.00    +0.000 C 
ENDBRANCH  21  24
BRANCH  21  26
ATOM     26  C   UNL     1      -8.507  -0.825 126.156  0.00  0.00    +0.000 C 
ATOM     27  C   UNL     1      -9.458   0.202 125.543  0.00  0.00    +0.000 C 
ATOM     28  C   UNL     1      -9.167  -2.195 125.907  0.00  0.00    +0.000 C 
ENDBRANCH  21  26
ENDBRANCH  20  21
ENDBRANCH  19  20
ENDBRANCH   1  19
TORSDOF 8
ENDMDL
