MODEL 1
REMARK VINA RESULT:      -6.0      0.000      0.000
REMARK  Name = Isosorbide dinitrate
REMARK  4 active torsions:
REMARK  status: ('A' for Active; 'I' for Inactive)
REMARK    1  A    between atoms: C_5  and  O_6
REMARK    2  A    between atoms: O_6  and  N_7
REMARK    3  A    between atoms: C_14  and  O_15
REMARK    4  A    between atoms: O_15  and  N_16
REMARK                            x       y       z     vdW  Elec       q    Type
REMARK                         _______ _______ _______ _____ _____    ______ ____
ROOT
ATOM      1  C   UNL     1     -12.170   6.564 128.996  0.00  0.00    +0.000 C 
ATOM      2  O   UNL     1     -10.864   5.975 129.066  0.00  0.00    +0.000 OA
ATOM      3  C   UNL     1     -10.134   6.698 130.075  0.00  0.00    +0.000 C 
ATOM      4  C   UNL     1     -11.167   7.101 131.140  0.00  0.00    +0.000 C 
ATOM      5  C   UNL     1     -12.375   7.387 130.265  0.00  0.00    +0.000 C 
ATOM      6  O   UNL     1     -12.409   8.765 129.846  0.00  0.00    +0.000 OA
ATOM      7  C   UNL     1     -13.040   8.727 128.554  0.00  0.00    +0.000 C 
ATOM      8  C   UNL     1     -12.330   7.578 127.849  0.00  0.00    +0.000 C 
ENDROOT
BRANCH   4   9
ATOM      9  O   UNL     1     -11.139   6.072 132.132  0.00  0.00    +0.000 OA
BRANCH   9  10
ATOM     10  N   UNL     1      -9.912   5.592 132.640  0.00  0.00    +0.000 N 
ATOM     11  O   UNL     1      -9.221   6.345 133.320  0.00  0.00    +0.000 OA
ATOM     12  O   UNL     1      -9.729   4.407 132.386  0.00  0.00    +0.000 OA
ENDBRANCH   9  10
ENDBRANCH   4   9
BRANCH   8  13
ATOM     13  O   UNL     1     -11.043   8.007 127.395  0.00  0.00    +0.000 OA
BRANCH  13  14
ATOM     14  N   UNL     1     -10.700   7.502 126.121  0.00  0.00    +0.000 N 
ATOM     15  O   UNL     1     -11.041   8.167 125.141  0.00  0.00    +0.000 OA
ATOM     16  O   UNL     1     -10.071   6.448 126.178  0.00  0.00    +0.000 OA
ENDBRANCH  13  14
ENDBRANCH   8  13
TORSDOF 4
ENDMDL
MODEL 2
REMARK VINA RESULT:      -5.9      2.790      4.650
REMARK  Name = Isosorbide dinitrate
REMARK  4 active torsions:
REMARK  status: ('A' for Active; 'I' for Inactive)
REMARK    1  A    between atoms: C_5  and  O_6
REMARK    2  A    between atoms: O_6  and  N_7
REMARK    3  A    between atoms: C_14  and  O_15
REMARK    4  A    between atoms: O_15  and  N_16
REMARK                            x       y       z     vdW  Elec       q    Type
REMARK                         _______ _______ _______ _____ _____    ______ ____
ROOT
ATOM      1  C   UNL     1      -9.911   6.829 130.325  0.00  0.00    +0.000 C 
ATOM      2  O   UNL     1      -9.565   7.840 129.368  0.00  0.00    +0.000 OA
ATOM      3  C   UNL     1     -10.708   8.008 128.508  0.00  0.00    +0.000 C 
ATOM      4  C   UNL     1     -11.943   7.771 129.391  0.00  0.00    +0.000 C 
ATOM      5  C   UNL     1     -11.429   6.673 130.304  0.00  0.00    +0.000 C 
ATOM      6  O   UNL     1     -11.688   5.365 129.755  0.00  0.00    +0.000 OA
ATOM      7  C   UNL     1     -10.596   4.559 130.231  0.00  0.00    +0.000 C 
ATOM      8  C   UNL     1      -9.375   5.431 129.970  0.00  0.00    +0.000 C 
ENDROOT
BRANCH   4   9
ATOM      9  O   UNL     1     -12.351   9.060 129.859  0.00  0.00    +0.000 OA
BRANCH   9  10
ATOM     10  N   UNL     1     -13.276   9.835 129.128  0.00  0.00    +0.000 N 
ATOM     11  O   UNL     1     -13.861   9.316 128.182  0.00  0.00    +0.000 OA
ATOM     12  O   UNL     1     -13.435  10.952 129.605  0.00  0.00    +0.000 OA
ENDBRANCH   9  10
ENDBRANCH   4   9
BRANCH   8  13
ATOM     13  O   UNL     1      -9.029   5.381 128.581  0.00  0.00    +0.000 OA
BRANCH  13  14
ATOM     14  N   UNL     1      -8.003   4.454 128.292  0.00  0.00    +0.000 N 
ATOM     15  O   UNL     1      -6.864   4.741 128.662  0.00  0.00    +0.000 OA
ATOM     16  O   UNL     1      -8.415   3.452 127.711  0.00  0.00    +0.000 OA
ENDBRANCH  13  14
ENDBRANCH   8  13
TORSDOF 4
ENDMDL
MODEL 3
REMARK VINA RESULT:      -5.9      2.416      3.714
REMARK  Name = Isosorbide dinitrate
REMARK  4 active torsions:
REMARK  status: ('A' for Active; 'I' for Inactive)
REMARK    1  A    between atoms: C_5  and  O_6
REMARK    2  A    between atoms: O_6  and  N_7
REMARK    3  A    between atoms: C_14  and  O_15
REMARK    4  A    between atoms: O_15  and  N_16
REMARK                            x       y       z     vdW  Elec       q    Type
REMARK                         _______ _______ _______ _____ _____    ______ ____
ROOT
ATOM      1  C   UNL     1     -12.296   6.343 129.327  0.00  0.00    +0.000 C 
ATOM      2  O   UNL     1     -11.457   6.690 128.216  0.00  0.00    +0.000 OA
ATOM      3  C   UNL     1     -10.109   6.761 128.717  0.00  0.00    +0.000 C 
ATOM      4  C   UNL     1     -10.009   5.694 129.819  0.00  0.00    +0.000 C 
ATOM      5  C   UNL     1     -11.396   5.790 130.429  0.00  0.00    +0.000 C 
ATOM      6  O   UNL     1     -11.437   6.756 131.498  0.00  0.00    +0.000 OA
ATOM      7  C   UNL     1     -12.777   7.277 131.454  0.00  0.00    +0.000 C 
ATOM      8  C   UNL     1     -12.999   7.549 129.972  0.00  0.00    +0.000 C 
ENDROOT
BRANCH   4   9
ATOM      9  O   UNL     1      -9.506   4.514 129.186  0.00  0.00    +0.000 OA
BRANCH   9  10
ATOM     10  N   UNL     1      -8.251   4.518 128.542  0.00  0.00    +0.000 N 
ATOM     11  O   UNL     1      -7.273   4.931 129.160  0.00  0.00    +0.000 OA
ATOM     12  O   UNL     1      -8.292   4.014 127.426  0.00  0.00    +0.000 OA
ENDBRANCH   9  10
ENDBRANCH   4   9
BRANCH   8  13
ATOM     13  O   UNL     1     -12.335   8.760 129.595  0.00  0.00    +0.000 OA
BRANCH  13  14
ATOM     14  N   UNL     1     -13.202   9.871 129.504  0.00  0.00    +0.000 N 
ATOM     15  O   UNL     1     -13.252  10.628 130.475  0.00  0.00    +0.000 OA
ATOM     16  O   UNL     1     -13.785   9.935 128.424  0.00  0.00    +0.000 OA
ENDBRANCH  13  14
ENDBRANCH   8  13
TORSDOF 4
ENDMDL
MODEL 4
REMARK VINA RESULT:      -5.8      1.834      5.873
REMARK  Name = Isosorbide dinitrate
REMARK  4 active torsions:
REMARK  status: ('A' for Active; 'I' for Inactive)
REMARK    1  A    between atoms: C_5  and  O_6
REMARK    2  A    between atoms: O_6  and  N_7
REMARK    3  A    between atoms: C_14  and  O_15
REMARK    4  A    between atoms: O_15  and  N_16
REMARK                            x       y       z     vdW  Elec       q    Type
REMARK                         _______ _______ _______ _____ _____    ______ ____
ROOT
ATOM      1  C   UNL     1      -9.248   4.941 130.120  0.00  0.00    +0.000 C 
ATOM      2  O   UNL     1     -10.539   4.321 130.032  0.00  0.00    +0.000 OA
ATOM      3  C   UNL     1     -11.515   5.374 130.145  0.00  0.00    +0.000 C 
ATOM      4  C   UNL     1     -10.890   6.607 129.472  0.00  0.00    +0.000 C 
ATOM      5  C   UNL     1      -9.434   6.435 129.869  0.00  0.00    +0.000 C 
ATOM      6  O   UNL     1      -9.147   7.088 131.121  0.00  0.00    +0.000 OA
ATOM      7  C   UNL     1      -8.110   6.284 131.710  0.00  0.00    +0.000 C 
ATOM      8  C   UNL     1      -8.618   4.861 131.522  0.00  0.00    +0.000 C 
ENDROOT
BRANCH   4   9
ATOM      9  O   UNL     1     -11.345   6.594 128.116  0.00  0.00    +0.000 OA
BRANCH   9  10
ATOM     10  N   UNL     1     -10.564   7.162 127.087  0.00  0.00    +0.000 N 
ATOM     11  O   UNL     1      -9.858   6.423 126.407  0.00  0.00    +0.000 OA
ATOM     12  O   UNL     1     -10.761   8.364 126.955  0.00  0.00    +0.000 OA
ENDBRANCH   9  10
ENDBRANCH   4   9
BRANCH   8  13
ATOM     13  O   UNL     1      -9.628   4.572 132.494  0.00  0.00    +0.000 OA
BRANCH  13  14
ATOM     14  N   UNL     1      -9.264   3.546 133.394  0.00  0.00    +0.000 N 
ATOM     15  O   UNL     1      -9.418   2.384 133.015  0.00  0.00    +0.000 OA
ATOM     16  O   UNL     1      -8.811   3.978 134.452  0.00  0.00    +0.000 OA
ENDBRANCH  13  14
ENDBRANCH   8  13
TORSDOF 4
ENDMDL
MODEL 5
REMARK VINA RESULT:      -5.6      7.130      8.729
REMARK  Name = Isosorbide dinitrate
REMARK  4 active torsions:
REMARK  status: ('A' for Active; 'I' for Inactive)
REMARK    1  A    between atoms: C_5  and  O_6
REMARK    2  A    between atoms: O_6  and  N_7
REMARK    3  A    between atoms: C_14  and  O_15
REMARK    4  A    between atoms: O_15  and  N_16
REMARK                            x       y       z     vdW  Elec       q    Type
REMARK                         _______ _______ _______ _____ _____    ______ ____
ROOT
ATOM      1  C   UNL     1      -7.658   1.716 124.632  0.00  0.00    +0.000 C 
ATOM      2  O   UNL     1      -8.169   1.411 125.938  0.00  0.00    +0.000 OA
ATOM      3  C   UNL     1      -9.492   0.872 125.752  0.00  0.00    +0.000 C 
ATOM      4  C   UNL     1      -9.450   0.092 124.428  0.00  0.00    +0.000 C 
ATOM      5  C   UNL     1      -8.516   0.970 123.614  0.00  0.00    +0.000 C 
ATOM      6  O   UNL     1      -9.242   1.981 122.887  0.00  0.00    +0.000 OA
ATOM      7  C   UNL     1      -8.329   3.092 122.820  0.00  0.00    +0.000 C 
ATOM      8  C   UNL     1      -7.799   3.198 124.243  0.00  0.00    +0.000 C 
ENDROOT
BRANCH   4   9
ATOM      9  O   UNL     1      -9.156  -1.264 124.774  0.00  0.00    +0.000 OA
BRANCH   9  10
ATOM     10  N   UNL     1      -8.889  -2.223 123.773  0.00  0.00    +0.000 N 
ATOM     11  O   UNL     1      -7.721  -2.512 123.532  0.00  0.00    +0.000 OA
ATOM     12  O   UNL     1      -9.910  -2.718 123.311  0.00  0.00    +0.000 OA
ENDBRANCH   9  10
ENDBRANCH   4   9
BRANCH   8  13
ATOM     13  O   UNL     1      -8.773   3.831 125.080  0.00  0.00    +0.000 OA
BRANCH  13  14
ATOM     14  N   UNL     1      -8.294   4.999 125.714  0.00  0.00    +0.000 N 
ATOM     15  O   UNL     1      -9.135   5.803 126.122  0.00  0.00    +0.000 OA
ATOM     16  O   UNL     1      -7.068   5.034 125.788  0.00  0.00    +0.000 OA
ENDBRANCH  13  14
ENDBRANCH   8  13
TORSDOF 4
ENDMDL
MODEL 6
REMARK VINA RESULT:      -5.4      1.828      2.589
REMARK  Name = Isosorbide dinitrate
REMARK  4 active torsions:
REMARK  status: ('A' for Active; 'I' for Inactive)
REMARK    1  A    between atoms: C_5  and  O_6
REMARK    2  A    between atoms: O_6  and  N_7
REMARK    3  A    between atoms: C_14  and  O_15
REMARK    4  A    between atoms: O_15  and  N_16
REMARK                            x       y       z     vdW  Elec       q    Type
REMARK                         _______ _______ _______ _____ _____    ______ ____
ROOT
ATOM      1  C   UNL     1     -11.133   6.741 130.711  0.00  0.00    +0.000 C 
ATOM      2  O   UNL     1     -11.457   5.350 130.845  0.00  0.00    +0.000 OA
ATOM      3  C   UNL     1     -10.317   4.609 130.372  0.00  0.00    +0.000 C 
ATOM      4  C   UNL     1      -9.082   5.443 130.747  0.00  0.00    +0.000 C 
ATOM      5  C   UNL     1      -9.620   6.848 130.541  0.00  0.00    +0.000 C 
ATOM      6  O   UNL     1      -9.402   7.305 129.191  0.00  0.00    +0.000 OA
ATOM      7  C   UNL     1     -10.513   8.180 128.930  0.00  0.00    +0.000 C 
ATOM      8  C   UNL     1     -11.711   7.392 129.442  0.00  0.00    +0.000 C 
ENDROOT
BRANCH   4   9
ATOM      9  O   UNL     1      -8.636   4.948 132.012  0.00  0.00    +0.000 OA
BRANCH   9  10
ATOM     10  N   UNL     1      -7.932   5.782 132.908  0.00  0.00    +0.000 N 
ATOM     11  O   UNL     1      -6.782   6.109 132.627  0.00  0.00    +0.000 OA
ATOM     12  O   UNL     1      -8.621   6.147 133.852  0.00  0.00    +0.000 OA
ENDBRANCH   9  10
ENDBRANCH   4   9
BRANCH   8  13
ATOM     13  O   UNL     1     -12.067   6.379 128.494  0.00  0.00    +0.000 OA
BRANCH  13  14
ATOM     14  N   UNL     1     -12.795   6.876 127.390  0.00  0.00    +0.000 N 
ATOM     15  O   UNL     1     -12.273   6.768 126.278  0.00  0.00    +0.000 OA
ATOM     16  O   UNL     1     -13.887   7.340 127.707  0.00  0.00    +0.000 OA
ENDBRANCH  13  14
ENDBRANCH   8  13
TORSDOF 4
ENDMDL
MODEL 7
REMARK VINA RESULT:      -5.4      1.922      2.743
REMARK  Name = Isosorbide dinitrate
REMARK  4 active torsions:
REMARK  status: ('A' for Active; 'I' for Inactive)
REMARK    1  A    between atoms: C_5  and  O_6
REMARK    2  A    between atoms: O_6  and  N_7
REMARK    3  A    between atoms: C_14  and  O_15
REMARK    4  A    between atoms: O_15  and  N_16
REMARK                            x       y       z     vdW  Elec       q    Type
REMARK                         _______ _______ _______ _____ _____    ______ ____
ROOT
ATOM      1  C   UNL     1     -10.994   4.884 130.419  0.00  0.00    +0.000 C 
ATOM      2  O   UNL     1     -10.048   4.140 129.638  0.00  0.00    +0.000 OA
ATOM      3  C   UNL     1      -8.743   4.652 129.966  0.00  0.00    +0.000 C 
ATOM      4  C   UNL     1      -8.803   5.052 131.449  0.00  0.00    +0.000 C 
ATOM      5  C   UNL     1     -10.226   5.576 131.541  0.00  0.00    +0.000 C 
ATOM      6  O   UNL     1     -10.288   6.988 131.255  0.00  0.00    +0.000 OA
ATOM      7  C   UNL     1     -11.582   7.170 130.655  0.00  0.00    +0.000 C 
ATOM      8  C   UNL     1     -11.666   6.033 129.646  0.00  0.00    +0.000 C 
ENDROOT
BRANCH   4   9
ATOM      9  O   UNL     1      -8.331   3.921 132.186  0.00  0.00    +0.000 OA
BRANCH   9  10
ATOM     10  N   UNL     1      -9.176   3.244 133.091  0.00  0.00    +0.000 N 
ATOM     11  O   UNL     1      -9.764   2.236 132.707  0.00  0.00    +0.000 OA
ATOM     12  O   UNL     1      -9.150   3.731 134.215  0.00  0.00    +0.000 OA
ENDBRANCH   9  10
ENDBRANCH   4   9
BRANCH   8  13
ATOM     13  O   UNL     1     -10.894   6.355 128.484  0.00  0.00    +0.000 OA
BRANCH  13  14
ATOM     14  N   UNL     1     -11.568   7.207 127.581  0.00  0.00    +0.000 N 
ATOM     15  O   UNL     1     -11.077   8.320 127.383  0.00  0.00    +0.000 OA
ATOM     16  O   UNL     1     -12.569   6.688 127.092  0.00  0.00    +0.000 OA
ENDBRANCH  13  14
ENDBRANCH   8  13
TORSDOF 4
ENDMDL
MODEL 8
REMARK VINA RESULT:      -5.2      7.093      8.853
REMARK  Name = Isosorbide dinitrate
REMARK  4 active torsions:
REMARK  status: ('A' for Active; 'I' for Inactive)
REMARK    1  A    between atoms: C_5  and  O_6
REMARK    2  A    between atoms: O_6  and  N_7
REMARK    3  A    between atoms: C_14  and  O_15
REMARK    4  A    between atoms: O_15  and  N_16
REMARK                            x       y       z     vdW  Elec       q    Type
REMARK                         _______ _______ _______ _____ _____    ______ ____
ROOT
ATOM      1  C   UNL     1      -9.466   0.647 124.962  0.00  0.00    +0.000 C 
ATOM      2  O   UNL     1      -9.451   1.135 126.311  0.00  0.00    +0.000 OA
ATOM      3  C   UNL     1      -8.306   2.001 126.428  0.00  0.00    +0.000 C 
ATOM      4  C   UNL     1      -8.146   2.682 125.060  0.00  0.00    +0.000 C 
ATOM      5  C   UNL     1      -8.556   1.551 124.134  0.00  0.00    +0.000 C 
ATOM      6  O   UNL     1      -7.425   0.740 123.758  0.00  0.00    +0.000 OA
ATOM      7  C   UNL     1      -7.978  -0.576 123.578  0.00  0.00    +0.000 C 
ATOM      8  C   UNL     1      -8.860  -0.758 124.806  0.00  0.00    +0.000 C 
ENDROOT
BRANCH   4   9
ATOM      9  O   UNL     1      -8.851   3.923 125.147  0.00  0.00    +0.000 OA
BRANCH   9  10
ATOM     10  N   UNL     1      -8.258   5.049 125.758  0.00  0.00    +0.000 N 
ATOM     11  O   UNL     1      -7.041   5.190 125.676  0.00  0.00    +0.000 OA
ATOM     12  O   UNL     1      -9.084   5.811 126.245  0.00  0.00    +0.000 OA
ENDBRANCH   9  10
ENDBRANCH   4   9
BRANCH   8  13
ATOM     13  O   UNL     1      -8.051  -1.069 125.945  0.00  0.00    +0.000 OA
BRANCH  13  14
ATOM     14  N   UNL     1      -8.535  -2.163 126.696  0.00  0.00    +0.000 N 
ATOM     15  O   UNL     1      -8.052  -2.335 127.816  0.00  0.00    +0.000 OA
ATOM     16  O   UNL     1      -9.412  -2.794 126.110  0.00  0.00    +0.000 OA
ENDBRANCH  13  14
ENDBRANCH   8  13
TORSDOF 4
ENDMDL
MODEL 9
REMARK VINA RESULT:      -5.1      2.703      6.169
REMARK  Name = Isosorbide dinitrate
REMARK  4 active torsions:
REMARK  status: ('A' for Active; 'I' for Inactive)
REMARK    1  A    between atoms: C_5  and  O_6
REMARK    2  A    between atoms: O_6  and  N_7
REMARK    3  A    between atoms: C_14  and  O_15
REMARK    4  A    between atoms: O_15  and  N_16
REMARK                            x       y       z     vdW  Elec       q    Type
REMARK                         _______ _______ _______ _____ _____    ______ ____
ROOT
ATOM      1  C   UNL     1      -8.815   3.794 129.997  0.00  0.00    +0.000 C 
ATOM      2  O   UNL     1     -10.173   3.332 129.957  0.00  0.00    +0.000 OA
ATOM      3  C   UNL     1     -10.995   4.413 130.436  0.00  0.00    +0.000 C 
ATOM      4  C   UNL     1     -10.308   5.707 129.971  0.00  0.00    +0.000 C 
ATOM      5  C   UNL     1      -8.848   5.316 130.110  0.00  0.00    +0.000 C 
ATOM      6  O   UNL     1      -8.340   5.628 131.423  0.00  0.00    +0.000 OA
ATOM      7  C   UNL     1      -7.346   4.618 131.667  0.00  0.00    +0.000 C 
ATOM      8  C   UNL     1      -8.040   3.331 131.243  0.00  0.00    +0.000 C 
ENDROOT
BRANCH   4   9
ATOM      9  O   UNL     1     -10.916   6.055 128.724  0.00  0.00    +0.000 OA
BRANCH   9  10
ATOM     10  N   UNL     1     -10.257   6.905 127.811  0.00  0.00    +0.000 N 
ATOM     11  O   UNL     1     -10.135   8.094 128.096  0.00  0.00    +0.000 OA
ATOM     12  O   UNL     1      -9.806   6.301 126.845  0.00  0.00    +0.000 OA
ENDBRANCH   9  10
ENDBRANCH   4   9
BRANCH   8  13
ATOM     13  O   UNL     1      -8.958   2.915 132.260  0.00  0.00    +0.000 OA
BRANCH  13  14
ATOM     14  N   UNL     1      -8.956   1.519 132.481  0.00  0.00    +0.000 N 
ATOM     15  O   UNL     1      -9.921   0.881 132.057  0.00  0.00    +0.000 OA
ATOM     16  O   UNL     1      -7.947   1.129 133.065  0.00  0.00    +0.000 OA
ENDBRANCH  13  14
ENDBRANCH   8  13
TORSDOF 4
ENDMDL
