MODEL 1
REMARK VINA RESULT:      -5.9      0.000      0.000
REMARK  Name = Isosorbide mononitrate
REMARK  3 active torsions:
REMARK  status: ('A' for Active; 'I' for Inactive)
REMARK    1  A    between atoms: C_5  and  O_6
REMARK    2  A    between atoms: O_6  and  N_7
REMARK    3  A    between atoms: C_14  and  O_15
REMARK                            x       y       z     vdW  Elec       q    Type
REMARK                         _______ _______ _______ _____ _____    ______ ____
ROOT
ATOM      1  C   UNL     1     -12.652   7.176 130.526  0.00  0.00    +0.000 C 
ATOM      2  O   UNL     1     -12.808   8.578 130.332  0.00  0.00    +0.000 OA
ATOM      3  C   UNL     1     -12.158   8.908 129.095  0.00  0.00    +0.000 C 
ATOM      4  C   UNL     1     -12.074   7.634 128.238  0.00  0.00    +0.000 C 
ATOM      5  C   UNL     1     -12.686   6.556 129.150  0.00  0.00    +0.000 C 
ATOM      6  O   UNL     1     -11.917   5.347 129.227  0.00  0.00    +0.000 OA
ATOM      7  C   UNL     1     -11.029   5.447 130.358  0.00  0.00    +0.000 C 
ATOM      8  C   UNL     1     -11.264   6.793 131.028  0.00  0.00    +0.000 C 
ENDROOT
BRANCH   8   9
ATOM      9  O   UNL     1     -11.173   6.726 132.442  0.00  0.00    +0.000 OA
ATOM     10  H   UNL     1     -10.283   7.008 132.709  0.00  0.00    +0.000 HD
ENDBRANCH   8   9
BRANCH   4  11
ATOM     11  O   UNL     1     -10.728   7.252 127.943  0.00  0.00    +0.000 OA
BRANCH  11  12
ATOM     12  N   UNL     1     -10.434   7.128 126.573  0.00  0.00    +0.000 N 
ATOM     13  O   UNL     1     -10.936   7.960 125.815  0.00  0.00    +0.000 OA
ATOM     14  O   UNL     1      -9.665   6.202 126.338  0.00  0.00    +0.000 OA
ENDBRANCH  11  12
ENDBRANCH   4  11
TORSDOF 3
ENDMDL
MODEL 2
REMARK VINA RESULT:      -5.6      2.101      3.945
REMARK  Name = Isosorbide mononitrate
REMARK  3 active torsions:
REMARK  status: ('A' for Active; 'I' for Inactive)
REMARK    1  A    between atoms: C_5  and  O_6
REMARK    2  A    between atoms: O_6  and  N_7
REMARK    3  A    between atoms: C_14  and  O_15
REMARK                            x       y       z     vdW  Elec       q    Type
REMARK                         _______ _______ _______ _____ _____    ______ ____
ROOT
ATOM      1  C   UNL     1     -12.717   7.924 127.977  0.00  0.00    +0.000 C 
ATOM      2  O   UNL     1     -13.575   7.257 128.898  0.00  0.00    +0.000 OA
ATOM      3  C   UNL     1     -12.751   6.788 129.977  0.00  0.00    +0.000 C 
ATOM      4  C   UNL     1     -11.468   7.634 130.011  0.00  0.00    +0.000 C 
ATOM      5  C   UNL     1     -11.638   8.577 128.806  0.00  0.00    +0.000 C 
ATOM      6  O   UNL     1     -10.477   8.671 127.968  0.00  0.00    +0.000 OA
ATOM      7  C   UNL     1     -10.605   7.699 126.909  0.00  0.00    +0.000 C 
ATOM      8  C   UNL     1     -11.924   6.964 127.098  0.00  0.00    +0.000 C 
ENDROOT
BRANCH   8   9
ATOM      9  O   UNL     1     -12.565   6.664 125.868  0.00  0.00    +0.000 OA
ATOM     10  H   UNL     1     -12.127   7.165 125.160  0.00  0.00    +0.000 HD
ENDBRANCH   8   9
BRANCH   4  11
ATOM     11  O   UNL     1     -10.285   6.858 129.803  0.00  0.00    +0.000 OA
BRANCH  11  12
ATOM     12  N   UNL     1      -9.292   7.016 130.786  0.00  0.00    +0.000 N 
ATOM     13  O   UNL     1      -9.568   6.640 131.927  0.00  0.00    +0.000 OA
ATOM     14  O   UNL     1      -8.253   7.485 130.336  0.00  0.00    +0.000 OA
ENDBRANCH  11  12
ENDBRANCH   4  11
TORSDOF 3
ENDMDL
MODEL 3
REMARK VINA RESULT:      -5.2      2.123      3.674
REMARK  Name = Isosorbide mononitrate
REMARK  3 active torsions:
REMARK  status: ('A' for Active; 'I' for Inactive)
REMARK    1  A    between atoms: C_5  and  O_6
REMARK    2  A    between atoms: O_6  and  N_7
REMARK    3  A    between atoms: C_14  and  O_15
REMARK                            x       y       z     vdW  Elec       q    Type
REMARK                         _______ _______ _______ _____ _____    ______ ____
ROOT
ATOM      1  C   UNL     1     -12.750   7.808 128.178  0.00  0.00    +0.000 C 
ATOM      2  O   UNL     1     -11.893   7.745 127.043  0.00  0.00    +0.000 OA
ATOM      3  C   UNL     1     -10.570   7.463 127.527  0.00  0.00    +0.000 C 
ATOM      4  C   UNL     1     -10.693   6.802 128.911  0.00  0.00    +0.000 C 
ATOM      5  C   UNL     1     -12.210   6.804 129.168  0.00  0.00    +0.000 C 
ATOM      6  O   UNL     1     -12.583   7.272 130.471  0.00  0.00    +0.000 OA
ATOM      7  C   UNL     1     -12.847   8.687 130.385  0.00  0.00    +0.000 C 
ATOM      8  C   UNL     1     -12.632   9.122 128.943  0.00  0.00    +0.000 C 
ENDROOT
BRANCH   8   9
ATOM      9  O   UNL     1     -13.564  10.106 128.522  0.00  0.00    +0.000 OA
ATOM     10  H   UNL     1     -13.098  10.953 128.424  0.00  0.00    +0.000 HD
ENDBRANCH   8   9
BRANCH   4  11
ATOM     11  O   UNL     1     -10.067   7.564 129.947  0.00  0.00    +0.000 OA
BRANCH  11  12
ATOM     12  N   UNL     1      -9.115   6.861 130.706  0.00  0.00    +0.000 N 
ATOM     13  O   UNL     1      -8.053   6.575 130.147  0.00  0.00    +0.000 OA
ATOM     14  O   UNL     1      -9.480   6.667 131.859  0.00  0.00    +0.000 OA
ENDBRANCH  11  12
ENDBRANCH   4  11
TORSDOF 3
ENDMDL
MODEL 4
REMARK VINA RESULT:      -5.1      2.352      3.814
REMARK  Name = Isosorbide mononitrate
REMARK  3 active torsions:
REMARK  status: ('A' for Active; 'I' for Inactive)
REMARK    1  A    between atoms: C_5  and  O_6
REMARK    2  A    between atoms: O_6  and  N_7
REMARK    3  A    between atoms: C_14  and  O_15
REMARK                            x       y       z     vdW  Elec       q    Type
REMARK                         _______ _______ _______ _____ _____    ______ ____
ROOT
ATOM      1  C   UNL     1     -11.073   8.450 128.045  0.00  0.00    +0.000 C 
ATOM      2  O   UNL     1      -9.858   8.751 128.724  0.00  0.00    +0.000 OA
ATOM      3  C   UNL     1      -9.575   7.644 129.594  0.00  0.00    +0.000 C 
ATOM      4  C   UNL     1     -10.314   6.406 129.058  0.00  0.00    +0.000 C 
ATOM      5  C   UNL     1     -11.080   6.954 127.842  0.00  0.00    +0.000 C 
ATOM      6  O   UNL     1     -12.457   6.554 127.789  0.00  0.00    +0.000 OA
ATOM      7  C   UNL     1     -13.249   7.573 128.433  0.00  0.00    +0.000 C 
ATOM      8  C   UNL     1     -12.310   8.672 128.908  0.00  0.00    +0.000 C 
ENDROOT
BRANCH   8   9
ATOM      9  O   UNL     1     -12.869   9.969 128.770  0.00  0.00    +0.000 OA
ATOM     10  H   UNL     1     -13.806   9.932 129.027  0.00  0.00    +0.000 HD
ENDBRANCH   8   9
BRANCH   4  11
ATOM     11  O   UNL     1     -11.269   5.885 129.986  0.00  0.00    +0.000 OA
BRANCH  11  12
ATOM     12  N   UNL     1     -10.900   4.675 130.600  0.00  0.00    +0.000 N 
ATOM     13  O   UNL     1     -10.133   4.747 131.564  0.00  0.00    +0.000 OA
ATOM     14  O   UNL     1     -11.444   3.702 130.092  0.00  0.00    +0.000 OA
ENDBRANCH  11  12
ENDBRANCH   4  11
TORSDOF 3
ENDMDL
MODEL 5
REMARK VINA RESULT:      -5.0      2.285      3.623
REMARK  Name = Isosorbide mononitrate
REMARK  3 active torsions:
REMARK  status: ('A' for Active; 'I' for Inactive)
REMARK    1  A    between atoms: C_5  and  O_6
REMARK    2  A    between atoms: O_6  and  N_7
REMARK    3  A    between atoms: C_14  and  O_15
REMARK                            x       y       z     vdW  Elec       q    Type
REMARK                         _______ _______ _______ _____ _____    ______ ____
ROOT
ATOM      1  C   UNL     1     -11.987   7.604 129.308  0.00  0.00    +0.000 C 
ATOM      2  O   UNL     1     -12.350   6.583 130.232  0.00  0.00    +0.000 OA
ATOM      3  C   UNL     1     -11.270   5.638 130.264  0.00  0.00    +0.000 C 
ATOM      4  C   UNL     1      -9.993   6.346 129.780  0.00  0.00    +0.000 C 
ATOM      5  C   UNL     1     -10.489   7.757 129.420  0.00  0.00    +0.000 C 
ATOM      6  O   UNL     1     -10.029   8.234 128.147  0.00  0.00    +0.000 OA
ATOM      7  C   UNL     1     -11.022   7.902 127.155  0.00  0.00    +0.000 C 
ATOM      8  C   UNL     1     -12.168   7.184 127.853  0.00  0.00    +0.000 C 
ENDROOT
BRANCH   8   9
ATOM      9  O   UNL     1     -13.437   7.528 127.319  0.00  0.00    +0.000 OA
ATOM     10  H   UNL     1     -13.821   8.235 127.865  0.00  0.00    +0.000 HD
ENDBRANCH   8   9
BRANCH   4  11
ATOM     11  O   UNL     1      -9.444   5.755 128.599  0.00  0.00    +0.000 OA
BRANCH  11  12
ATOM     12  N   UNL     1      -8.483   4.755 128.828  0.00  0.00    +0.000 N 
ATOM     13  O   UNL     1      -8.806   3.595 128.563  0.00  0.00    +0.000 OA
ATOM     14  O   UNL     1      -7.419   5.208 129.234  0.00  0.00    +0.000 OA
ENDBRANCH  11  12
ENDBRANCH   4  11
TORSDOF 3
ENDMDL
MODEL 6
REMARK VINA RESULT:      -4.7      9.174     10.482
REMARK  Name = Isosorbide mononitrate
REMARK  3 active torsions:
REMARK  status: ('A' for Active; 'I' for Inactive)
REMARK    1  A    between atoms: C_5  and  O_6
REMARK    2  A    between atoms: O_6  and  N_7
REMARK    3  A    between atoms: C_14  and  O_15
REMARK                            x       y       z     vdW  Elec       q    Type
REMARK                         _______ _______ _______ _____ _____    ______ ____
ROOT
ATOM      1  C   UNL     1      -7.908  -3.147 125.220  0.00  0.00    +0.000 C 
ATOM      2  O   UNL     1      -8.604  -3.960 124.280  0.00  0.00    +0.000 OA
ATOM      3  C   UNL     1      -9.341  -3.075 123.422  0.00  0.00    +0.000 C 
ATOM      4  C   UNL     1      -8.676  -1.689 123.470  0.00  0.00    +0.000 C 
ATOM      5  C   UNL     1      -7.537  -1.881 124.486  0.00  0.00    +0.000 C 
ATOM      6  O   UNL     1      -7.452  -0.845 125.475  0.00  0.00    +0.000 OA
ATOM      7  C   UNL     1      -8.216  -1.255 126.627  0.00  0.00    +0.000 C 
ATOM      8  C   UNL     1      -8.803  -2.630 126.341  0.00  0.00    +0.000 C 
ENDROOT
BRANCH   8   9
ATOM      9  O   UNL     1      -8.818  -3.469 127.485  0.00  0.00    +0.000 OA
ATOM     10  H   UNL     1      -8.708  -2.916 128.276  0.00  0.00    +0.000 HD
ENDBRANCH   8   9
BRANCH   4  11
ATOM     11  O   UNL     1      -9.548  -0.672 123.969  0.00  0.00    +0.000 OA
BRANCH  11  12
ATOM     12  N   UNL     1      -9.758   0.410 123.096  0.00  0.00    +0.000 N 
ATOM     13  O   UNL     1      -8.874   1.269 123.045  0.00  0.00    +0.000 OA
ATOM     14  O   UNL     1     -10.805   0.313 122.467  0.00  0.00    +0.000 OA
ENDBRANCH  11  12
ENDBRANCH   4  11
TORSDOF 3
ENDMDL
MODEL 7
REMARK VINA RESULT:      -4.6     10.542     12.080
REMARK  Name = Isosorbide mononitrate
REMARK  3 active torsions:
REMARK  status: ('A' for Active; 'I' for Inactive)
REMARK    1  A    between atoms: C_5  and  O_6
REMARK    2  A    between atoms: O_6  and  N_7
REMARK    3  A    between atoms: C_14  and  O_15
REMARK                            x       y       z     vdW  Elec       q    Type
REMARK                         _______ _______ _______ _____ _____    ______ ____
ROOT
ATOM      1  C   UNL     1      -8.188  -1.608 125.271  0.00  0.00    +0.000 C 
ATOM      2  O   UNL     1      -7.408  -1.525 126.459  0.00  0.00    +0.000 OA
ATOM      3  C   UNL     1      -6.192  -2.250 126.217  0.00  0.00    +0.000 C 
ATOM      4  C   UNL     1      -5.965  -2.321 124.698  0.00  0.00    +0.000 C 
ATOM      5  C   UNL     1      -7.206  -1.616 124.124  0.00  0.00    +0.000 C 
ATOM      6  O   UNL     1      -7.838  -2.325 123.049  0.00  0.00    +0.000 OA
ATOM      7  C   UNL     1      -8.875  -3.159 123.605  0.00  0.00    +0.000 C 
ATOM      8  C   UNL     1      -8.894  -2.950 125.112  0.00  0.00    +0.000 C 
ENDROOT
BRANCH   8   9
ATOM      9  O   UNL     1     -10.206  -2.966 125.652  0.00  0.00    +0.000 OA
ATOM     10  H   UNL     1     -10.831  -3.183 124.940  0.00  0.00    +0.000 HD
ENDBRANCH   8   9
BRANCH   4  11
ATOM     11  O   UNL     1      -5.947  -3.662 124.201  0.00  0.00    +0.000 OA
BRANCH  11  12
ATOM     12  N   UNL     1      -4.725  -4.070 123.640  0.00  0.00    +0.000 N 
ATOM     13  O   UNL     1      -4.531  -5.283 123.539  0.00  0.00    +0.000 OA
ATOM     14  O   UNL     1      -4.028  -3.125 123.287  0.00  0.00    +0.000 OA
ENDBRANCH  11  12
ENDBRANCH   4  11
TORSDOF 3
ENDMDL
MODEL 8
REMARK VINA RESULT:      -4.5      2.381      4.488
REMARK  Name = Isosorbide mononitrate
REMARK  3 active torsions:
REMARK  status: ('A' for Active; 'I' for Inactive)
REMARK    1  A    between atoms: C_5  and  O_6
REMARK    2  A    between atoms: O_6  and  N_7
REMARK    3  A    between atoms: C_14  and  O_15
REMARK                            x       y       z     vdW  Elec       q    Type
REMARK                         _______ _______ _______ _____ _____    ______ ____
ROOT
ATOM      1  C   UNL     1     -11.229   6.749 128.571  0.00  0.00    +0.000 C 
ATOM      2  O   UNL     1      -9.938   6.241 128.254  0.00  0.00    +0.000 OA
ATOM      3  C   UNL     1      -9.385   5.704 129.467  0.00  0.00    +0.000 C 
ATOM      4  C   UNL     1     -10.544   5.377 130.423  0.00  0.00    +0.000 C 
ATOM      5  C   UNL     1     -11.786   5.842 129.642  0.00  0.00    +0.000 C 
ATOM      6  O   UNL     1     -12.701   6.633 130.413  0.00  0.00    +0.000 OA
ATOM      7  C   UNL     1     -12.369   8.023 130.225  0.00  0.00    +0.000 C 
ATOM      8  C   UNL     1     -11.182   8.101 129.275  0.00  0.00    +0.000 C 
ENDROOT
BRANCH   8   9
ATOM      9  O   UNL     1     -11.262   9.204 128.386  0.00  0.00    +0.000 OA
ATOM     10  H   UNL     1     -11.634   8.896 127.543  0.00  0.00    +0.000 HD
ENDBRANCH   8   9
BRANCH   4  11
ATOM     11  O   UNL     1     -10.484   6.120 131.643  0.00  0.00    +0.000 OA
BRANCH  11  12
ATOM     12  N   UNL     1      -9.684   5.547 132.647  0.00  0.00    +0.000 N 
ATOM     13  O   UNL     1      -9.629   4.316 132.685  0.00  0.00    +0.000 OA
ATOM     14  O   UNL     1      -9.113   6.388 133.332  0.00  0.00    +0.000 OA
ENDBRANCH  11  12
ENDBRANCH   4  11
TORSDOF 3
ENDMDL
MODEL 9
REMARK VINA RESULT:      -4.5      8.712     10.303
REMARK  Name = Isosorbide mononitrate
REMARK  3 active torsions:
REMARK  status: ('A' for Active; 'I' for Inactive)
REMARK    1  A    between atoms: C_5  and  O_6
REMARK    2  A    between atoms: O_6  and  N_7
REMARK    3  A    between atoms: C_14  and  O_15
REMARK                            x       y       z     vdW  Elec       q    Type
REMARK                         _______ _______ _______ _____ _____    ______ ____
ROOT
ATOM      1  C   UNL     1      -7.527  -2.120 125.494  0.00  0.00    +0.000 C 
ATOM      2  O   UNL     1      -6.603  -1.068 125.751  0.00  0.00    +0.000 OA
ATOM      3  C   UNL     1      -7.076   0.091 125.046  0.00  0.00    +0.000 C 
ATOM      4  C   UNL     1      -8.584  -0.076 124.799  0.00  0.00    +0.000 C 
ATOM      5  C   UNL     1      -8.884  -1.468 125.382  0.00  0.00    +0.000 C 
ATOM      6  O   UNL     1      -9.672  -2.306 124.524  0.00  0.00    +0.000 OA
ATOM      7  C   UNL     1      -8.776  -3.106 123.727  0.00  0.00    +0.000 C 
ATOM      8  C   UNL     1      -7.349  -2.750 124.117  0.00  0.00    +0.000 C 
ENDROOT
BRANCH   8   9
ATOM      9  O   UNL     1      -6.483  -3.875 124.119  0.00  0.00    +0.000 OA
ATOM     10  H   UNL     1      -5.568  -3.562 124.027  0.00  0.00    +0.000 HD
ENDBRANCH   8   9
BRANCH   4  11
ATOM     11  O   UNL     1      -8.920  -0.096 123.409  0.00  0.00    +0.000 OA
BRANCH  11  12
ATOM     12  N   UNL     1      -9.938   0.797 123.032  0.00  0.00    +0.000 N 
ATOM     13  O   UNL     1     -10.960   0.309 122.543  0.00  0.00    +0.000 OA
ATOM     14  O   UNL     1      -9.663   1.963 123.292  0.00  0.00    +0.000 OA
ENDBRANCH  11  12
ENDBRANCH   4  11
TORSDOF 3
ENDMDL
