MODEL 1
REMARK VINA RESULT:      -4.8      0.000      0.000
REMARK  Name = Isosorbide
REMARK  2 active torsions:
REMARK  status: ('A' for Active; 'I' for Inactive)
REMARK    1  A    between atoms: C_2  and  O_3
REMARK    2  A    between atoms: C_8  and  O_10
REMARK                            x       y       z     vdW  Elec       q    Type
REMARK                         _______ _______ _______ _____ _____    ______ ____
ROOT
ATOM      1  C   UNL     1     -11.693   6.770 130.980  0.00  0.00    +0.000 C 
ATOM      2  C   UNL     1     -11.198   5.886 129.834  0.00  0.00    +0.000 C 
ATOM      3  O   UNL     1     -12.128   6.000 128.743  0.00  0.00    +0.000 OA
ATOM      4  C   UNL     1     -12.908   7.172 128.969  0.00  0.00    +0.000 C 
ATOM      5  C   UNL     1     -12.268   8.468 128.473  0.00  0.00    +0.000 C 
ATOM      6  C   UNL     1     -12.769   9.487 129.487  0.00  0.00    +0.000 C 
ATOM      7  O   UNL     1     -13.079   8.781 130.706  0.00  0.00    +0.000 OA
ATOM      8  C   UNL     1     -12.998   7.367 130.463  0.00  0.00    +0.000 C 
ENDROOT
BRANCH   1   9
ATOM      9  O   UNL     1     -11.894   6.007 132.167  0.00  0.00    +0.000 OA
ATOM     10  H   UNL     1     -12.231   6.616 132.847  0.00  0.00    +0.000 HD
ENDBRANCH   1   9
BRANCH   5  11
ATOM     11  O   UNL     1     -10.837   8.446 128.472  0.00  0.00    +0.000 OA
ATOM     12  H   UNL     1     -10.511   9.067 129.149  0.00  0.00    +0.000 HD
ENDBRANCH   5  11
TORSDOF 2
ENDMDL
MODEL 2
REMARK VINA RESULT:      -4.7      1.341      3.438
REMARK  Name = Isosorbide
REMARK  2 active torsions:
REMARK  status: ('A' for Active; 'I' for Inactive)
REMARK    1  A    between atoms: C_2  and  O_3
REMARK    2  A    between atoms: C_8  and  O_10
REMARK                            x       y       z     vdW  Elec       q    Type
REMARK                         _______ _______ _______ _____ _____    ______ ____
ROOT
ATOM      1  C   UNL     1     -11.725   8.088 129.457  0.00  0.00    +0.000 C 
ATOM      2  C   UNL     1     -12.939   7.169 129.307  0.00  0.00    +0.000 C 
ATOM      3  O   UNL     1     -12.467   5.818 129.166  0.00  0.00    +0.000 OA
ATOM      4  C   UNL     1     -11.117   5.788 129.622  0.00  0.00    +0.000 C 
ATOM      5  C   UNL     1     -10.958   5.616 131.132  0.00  0.00    +0.000 C 
ATOM      6  C   UNL     1      -9.694   6.415 131.419  0.00  0.00    +0.000 C 
ATOM      7  O   UNL     1      -9.551   7.405 130.380  0.00  0.00    +0.000 OA
ATOM      8  C   UNL     1     -10.525   7.151 129.354  0.00  0.00    +0.000 C 
ENDROOT
BRANCH   1   9
ATOM      9  O   UNL     1     -11.707   9.085 128.439  0.00  0.00    +0.000 OA
ATOM     10  H   UNL     1     -11.699   8.621 127.583  0.00  0.00    +0.000 HD
ENDBRANCH   1   9
BRANCH   5  11
ATOM     11  O   UNL     1     -12.049   6.141 131.895  0.00  0.00    +0.000 OA
ATOM     12  H   UNL     1     -12.375   5.448 132.498  0.00  0.00    +0.000 HD
ENDBRANCH   5  11
TORSDOF 2
ENDMDL
MODEL 3
REMARK VINA RESULT:      -4.7      1.657      3.473
REMARK  Name = Isosorbide
REMARK  2 active torsions:
REMARK  status: ('A' for Active; 'I' for Inactive)
REMARK    1  A    between atoms: C_2  and  O_3
REMARK    2  A    between atoms: C_8  and  O_10
REMARK                            x       y       z     vdW  Elec       q    Type
REMARK                         _______ _______ _______ _____ _____    ______ ____
ROOT
ATOM      1  C   UNL     1     -11.485   6.858 127.312  0.00  0.00    +0.000 C 
ATOM      2  C   UNL     1     -10.920   8.279 127.361  0.00  0.00    +0.000 C 
ATOM      3  O   UNL     1     -11.372   8.901 128.576  0.00  0.00    +0.000 OA
ATOM      4  C   UNL     1     -11.813   7.864 129.448  0.00  0.00    +0.000 C 
ATOM      5  C   UNL     1     -10.704   7.210 130.273  0.00  0.00    +0.000 C 
ATOM      6  C   UNL     1     -11.193   5.774 130.395  0.00  0.00    +0.000 C 
ATOM      7  O   UNL     1     -12.070   5.509 129.281  0.00  0.00    +0.000 OA
ATOM      8  C   UNL     1     -12.323   6.738 128.581  0.00  0.00    +0.000 C 
ENDROOT
BRANCH   1   9
ATOM      9  O   UNL     1     -12.269   6.658 126.139  0.00  0.00    +0.000 OA
ATOM     10  H   UNL     1     -12.938   5.983 126.352  0.00  0.00    +0.000 HD
ENDBRANCH   1   9
BRANCH   5  11
ATOM     11  O   UNL     1      -9.419   7.235 129.641  0.00  0.00    +0.000 OA
ATOM     12  H   UNL     1      -9.342   6.462 129.052  0.00  0.00    +0.000 HD
ENDBRANCH   5  11
TORSDOF 2
ENDMDL
MODEL 4
REMARK VINA RESULT:      -4.5      1.653      3.080
REMARK  Name = Isosorbide
REMARK  2 active torsions:
REMARK  status: ('A' for Active; 'I' for Inactive)
REMARK    1  A    between atoms: C_2  and  O_3
REMARK    2  A    between atoms: C_8  and  O_10
REMARK                            x       y       z     vdW  Elec       q    Type
REMARK                         _______ _______ _______ _____ _____    ______ ____
ROOT
ATOM      1  C   UNL     1     -10.188   7.357 129.324  0.00  0.00    +0.000 C 
ATOM      2  C   UNL     1     -11.277   7.484 130.392  0.00  0.00    +0.000 C 
ATOM      3  O   UNL     1     -12.269   8.409 129.916  0.00  0.00    +0.000 OA
ATOM      4  C   UNL     1     -12.092   8.537 128.507  0.00  0.00    +0.000 C 
ATOM      5  C   UNL     1     -12.791   7.462 127.676  0.00  0.00    +0.000 C 
ATOM      6  C   UNL     1     -11.848   7.298 126.493  0.00  0.00    +0.000 C 
ATOM      7  O   UNL     1     -10.533   7.714 126.917  0.00  0.00    +0.000 OA
ATOM      8  C   UNL     1     -10.627   8.313 128.219  0.00  0.00    +0.000 C 
ENDROOT
BRANCH   1   9
ATOM      9  O   UNL     1      -8.910   7.707 129.850  0.00  0.00    +0.000 OA
ATOM     10  H   UNL     1      -9.015   8.552 130.321  0.00  0.00    +0.000 HD
ENDBRANCH   1   9
BRANCH   5  11
ATOM     11  O   UNL     1     -12.942   6.210 128.355  0.00  0.00    +0.000 OA
ATOM     12  H   UNL     1     -13.114   6.382 129.299  0.00  0.00    +0.000 HD
ENDBRANCH   5  11
TORSDOF 2
ENDMDL
MODEL 5
REMARK VINA RESULT:      -4.5      1.767      2.464
REMARK  Name = Isosorbide
REMARK  2 active torsions:
REMARK  status: ('A' for Active; 'I' for Inactive)
REMARK    1  A    between atoms: C_2  and  O_3
REMARK    2  A    between atoms: C_8  and  O_10
REMARK                            x       y       z     vdW  Elec       q    Type
REMARK                         _______ _______ _______ _____ _____    ______ ____
ROOT
ATOM      1  C   UNL     1     -10.371   6.898 128.399  0.00  0.00    +0.000 C 
ATOM      2  C   UNL     1     -10.914   7.196 127.000  0.00  0.00    +0.000 C 
ATOM      3  O   UNL     1     -12.324   6.912 126.994  0.00  0.00    +0.000 OA
ATOM      4  C   UNL     1     -12.755   6.864 128.352  0.00  0.00    +0.000 C 
ATOM      5  C   UNL     1     -13.097   8.223 128.961  0.00  0.00    +0.000 C 
ATOM      6  C   UNL     1     -12.694   8.038 130.417  0.00  0.00    +0.000 C 
ATOM      7  O   UNL     1     -11.690   7.003 130.470  0.00  0.00    +0.000 OA
ATOM      8  C   UNL     1     -11.581   6.389 129.176  0.00  0.00    +0.000 C 
ENDROOT
BRANCH   1   9
ATOM      9  O   UNL     1      -9.328   5.928 128.348  0.00  0.00    +0.000 OA
ATOM     10  H   UNL     1      -8.491   6.413 128.237  0.00  0.00    +0.000 HD
ENDBRANCH   1   9
BRANCH   5  11
ATOM     11  O   UNL     1     -12.369   9.315 128.390  0.00  0.00    +0.000 OA
ATOM     12  H   UNL     1     -12.564  10.124 128.898  0.00  0.00    +0.000 HD
ENDBRANCH   5  11
TORSDOF 2
ENDMDL
MODEL 6
REMARK VINA RESULT:      -4.4      1.541      2.819
REMARK  Name = Isosorbide
REMARK  2 active torsions:
REMARK  status: ('A' for Active; 'I' for Inactive)
REMARK    1  A    between atoms: C_2  and  O_3
REMARK    2  A    between atoms: C_8  and  O_10
REMARK                            x       y       z     vdW  Elec       q    Type
REMARK                         _______ _______ _______ _____ _____    ______ ____
ROOT
ATOM      1  C   UNL     1     -11.157   4.979 130.387  0.00  0.00    +0.000 C 
ATOM      2  C   UNL     1     -10.567   5.637 131.636  0.00  0.00    +0.000 C 
ATOM      3  O   UNL     1     -10.315   7.021 131.340  0.00  0.00    +0.000 OA
ATOM      4  C   UNL     1     -11.070   7.352 130.177  0.00  0.00    +0.000 C 
ATOM      5  C   UNL     1     -12.522   7.742 130.448  0.00  0.00    +0.000 C 
ATOM      6  C   UNL     1     -13.236   7.227 129.206  0.00  0.00    +0.000 C 
ATOM      7  O   UNL     1     -12.444   6.155 128.655  0.00  0.00    +0.000 OA
ATOM      8  C   UNL     1     -11.187   6.095 129.348  0.00  0.00    +0.000 C 
ENDROOT
BRANCH   1   9
ATOM      9  O   UNL     1     -10.358   3.879 129.960  0.00  0.00    +0.000 OA
ATOM     10  H   UNL     1     -10.070   4.070 129.050  0.00  0.00    +0.000 HD
ENDBRANCH   1   9
BRANCH   5  11
ATOM     11  O   UNL     1     -13.079   7.131 131.617  0.00  0.00    +0.000 OA
ATOM     12  H   UNL     1     -14.051   7.140 131.546  0.00  0.00    +0.000 HD
ENDBRANCH   5  11
TORSDOF 2
ENDMDL
MODEL 7
REMARK VINA RESULT:      -4.3      2.006      3.188
REMARK  Name = Isosorbide
REMARK  2 active torsions:
REMARK  status: ('A' for Active; 'I' for Inactive)
REMARK    1  A    between atoms: C_2  and  O_3
REMARK    2  A    between atoms: C_8  and  O_10
REMARK                            x       y       z     vdW  Elec       q    Type
REMARK                         _______ _______ _______ _____ _____    ______ ____
ROOT
ATOM      1  C   UNL     1     -10.163   6.432 128.735  0.00  0.00    +0.000 C 
ATOM      2  C   UNL     1      -9.651   7.645 129.515  0.00  0.00    +0.000 C 
ATOM      3  O   UNL     1      -9.893   8.822 128.727  0.00  0.00    +0.000 OA
ATOM      4  C   UNL     1     -10.861   8.482 127.737  0.00  0.00    +0.000 C 
ATOM      5  C   UNL     1     -12.312   8.578 128.206  0.00  0.00    +0.000 C 
ATOM      6  C   UNL     1     -12.984   7.465 127.414  0.00  0.00    +0.000 C 
ATOM      7  O   UNL     1     -11.974   6.492 127.075  0.00  0.00    +0.000 OA
ATOM      8  C   UNL     1     -10.683   7.015 127.425  0.00  0.00    +0.000 C 
ENDROOT
BRANCH   1   9
ATOM      9  O   UNL     1      -9.121   5.485 128.517  0.00  0.00    +0.000 OA
ATOM     10  H   UNL     1      -8.403   5.701 129.138  0.00  0.00    +0.000 HD
ENDBRANCH   1   9
BRANCH   5  11
ATOM     11  O   UNL     1     -12.486   8.350 129.608  0.00  0.00    +0.000 OA
ATOM     12  H   UNL     1     -11.818   8.865 130.097  0.00  0.00    +0.000 HD
ENDBRANCH   5  11
TORSDOF 2
ENDMDL
MODEL 8
REMARK VINA RESULT:      -4.3      1.638      2.519
REMARK  Name = Isosorbide
REMARK  2 active torsions:
REMARK  status: ('A' for Active; 'I' for Inactive)
REMARK    1  A    between atoms: C_2  and  O_3
REMARK    2  A    between atoms: C_8  and  O_10
REMARK                            x       y       z     vdW  Elec       q    Type
REMARK                         _______ _______ _______ _____ _____    ______ ____
ROOT
ATOM      1  C   UNL     1      -9.945   5.736 129.843  0.00  0.00    +0.000 C 
ATOM      2  C   UNL     1     -11.280   5.150 130.307  0.00  0.00    +0.000 C 
ATOM      3  O   UNL     1     -12.132   6.235 130.712  0.00  0.00    +0.000 OA
ATOM      4  C   UNL     1     -11.592   7.432 130.157  0.00  0.00    +0.000 C 
ATOM      5  C   UNL     1     -12.022   7.718 128.718  0.00  0.00    +0.000 C 
ATOM      6  C   UNL     1     -10.795   8.412 128.144  0.00  0.00    +0.000 C 
ATOM      7  O   UNL     1      -9.649   7.991 128.912  0.00  0.00    +0.000 OA
ATOM      8  C   UNL     1     -10.098   7.240 130.051  0.00  0.00    +0.000 C 
ENDROOT
BRANCH   1   9
ATOM      9  O   UNL     1      -8.861   5.204 130.600  0.00  0.00    +0.000 OA
ATOM     10  H   UNL     1      -9.229   4.881 131.441  0.00  0.00    +0.000 HD
ENDBRANCH   1   9
BRANCH   5  11
ATOM     11  O   UNL     1     -12.317   6.542 127.956  0.00  0.00    +0.000 OA
ATOM     12  H   UNL     1     -13.094   6.718 127.394  0.00  0.00    +0.000 HD
ENDBRANCH   5  11
TORSDOF 2
ENDMDL
MODEL 9
REMARK VINA RESULT:      -4.2     11.431     12.789
REMARK  Name = Isosorbide
REMARK  2 active torsions:
REMARK  status: ('A' for Active; 'I' for Inactive)
REMARK    1  A    between atoms: C_2  and  O_3
REMARK    2  A    between atoms: C_8  and  O_10
REMARK                            x       y       z     vdW  Elec       q    Type
REMARK                         _______ _______ _______ _____ _____    ______ ____
ROOT
ATOM      1  C   UNL     1      -8.946  -2.933 123.207  0.00  0.00    +0.000 C 
ATOM      2  C   UNL     1      -9.029  -1.436 122.905  0.00  0.00    +0.000 C 
ATOM      3  O   UNL     1      -8.252  -0.734 123.889  0.00  0.00    +0.000 OA
ATOM      4  C   UNL     1      -7.385  -1.683 124.505  0.00  0.00    +0.000 C 
ATOM      5  C   UNL     1      -6.080  -1.938 123.752  0.00  0.00    +0.000 C 
ATOM      6  C   UNL     1      -5.811  -3.406 124.053  0.00  0.00    +0.000 C 
ATOM      7  O   UNL     1      -7.074  -4.033 124.358  0.00  0.00    +0.000 OA
ATOM      8  C   UNL     1      -8.087  -3.020 124.464  0.00  0.00    +0.000 C 
ENDROOT
BRANCH   1   9
ATOM      9  O   UNL     1     -10.243  -3.488 123.412  0.00  0.00    +0.000 OA
ATOM     10  H   UNL     1     -10.442  -4.046 122.640  0.00  0.00    +0.000 HD
ENDBRANCH   1   9
BRANCH   5  11
ATOM     11  O   UNL     1      -6.178  -1.742 122.337  0.00  0.00    +0.000 OA
ATOM     12  H   UNL     1      -7.118  -1.643 122.097  0.00  0.00    +0.000 HD
ENDBRANCH   5  11
TORSDOF 2
ENDMDL
