MODEL 1
REMARK VINA RESULT:      -7.8      0.000      0.000
REMARK  Name = Isotretinoin
REMARK  11 active torsions:
REMARK  status: ('A' for Active; 'I' for Inactive)
REMARK    1  A    between atoms: C_1  and  C_2
REMARK    2  A    between atoms: C_2  and  C_3
REMARK    3  A    between atoms: C_4  and  C_5
REMARK    4  A    between atoms: C_6  and  C_7
REMARK    5  A    between atoms: C_11  and  C_12
REMARK    6  A    between atoms: C_11  and  C_13
REMARK    7  A    between atoms: C_14  and  C_15
REMARK    8  A    between atoms: C_16  and  C_17
REMARK    9  A    between atoms: C_17  and  C_18
REMARK   10  A    between atoms: C_19  and  C_20
REMARK   11  A    between atoms: C_20  and  O_21
REMARK                            x       y       z     vdW  Elec       q    Type
REMARK                         _______ _______ _______ _____ _____    ______ ____
ROOT
ATOM      1  C   UNL     1      -8.197   4.691 131.087  0.00  0.00    +0.000 C 
ATOM      2  C   UNL     1      -7.473   6.010 131.123  0.00  0.00    +0.000 C 
ATOM      3  C   UNL     1      -8.140   7.127 130.779  0.00  0.00    +0.000 C 
ENDROOT
BRANCH   2   4
ATOM      4  C   UNL     1      -6.079   6.076 131.531  0.00  0.00    +0.000 C 
ATOM      5  C   UNL     1      -5.051   5.523 130.866  0.00  0.00    +0.000 C 
BRANCH   5   6
ATOM      6  C   UNL     1      -3.663   5.510 131.308  0.00  0.00    +0.000 C 
ATOM      7  C   UNL     1      -3.171   4.495 132.059  0.00  0.00    +0.000 C 
ATOM      8  C   UNL     1      -3.925   3.239 132.431  0.00  0.00    +0.000 C 
ATOM      9  C   UNL     1      -1.762   4.497 132.602  0.00  0.00    +0.000 C 
ATOM     10  C   UNL     1      -1.040   5.830 132.468  0.00  0.00    +0.000 C 
ATOM     11  C   UNL     1      -1.270   6.405 131.082  0.00  0.00    +0.000 C 
ATOM     12  C   UNL     1      -2.774   6.677 130.807  0.00  0.00    +0.000 C 
ATOM     13  C   UNL     1      -2.894   6.910 129.281  0.00  0.00    +0.000 C 
ATOM     14  C   UNL     1      -3.188   7.977 131.526  0.00  0.00    +0.000 C 
ENDBRANCH   5   6
ENDBRANCH   2   4
BRANCH   3  15
ATOM     15  C   UNL     1      -9.523   7.080 130.342  0.00  0.00    +0.000 C 
ATOM     16  C   UNL     1      -9.984   7.888 129.394  0.00  0.00    +0.000 C 
BRANCH  16  17
ATOM     17  C   UNL     1     -11.310   7.964 128.827  0.00  0.00    +0.000 C 
ATOM     18  C   UNL     1     -12.475   8.302 129.756  0.00  0.00    +0.000 C 
ATOM     19  C   UNL     1     -11.567   7.749 127.518  0.00  0.00    +0.000 C 
BRANCH  19  20
ATOM     20  C   UNL     1     -10.770   7.408 126.311  0.00  0.00    +0.000 C 
ATOM     21  O   UNL     1     -10.048   6.413 126.332  0.00  0.00    +0.000 OA
BRANCH  20  22
ATOM     22  O   UNL     1     -10.817   8.155 125.204  0.00  0.00    +0.000 OA
ATOM     23  H   UNL     1     -11.451   7.976 124.505  0.00  0.00    +0.000 HD
ENDBRANCH  20  22
ENDBRANCH  19  20
ENDBRANCH  16  17
ENDBRANCH   3  15
TORSDOF 6
ENDMDL
MODEL 2
REMARK VINA RESULT:      -7.3      2.040      2.496
REMARK  Name = Isotretinoin
REMARK  11 active torsions:
REMARK  status: ('A' for Active; 'I' for Inactive)
REMARK    1  A    between atoms: C_1  and  C_2
REMARK    2  A    between atoms: C_2  and  C_3
REMARK    3  A    between atoms: C_4  and  C_5
REMARK    4  A    between atoms: C_6  and  C_7
REMARK    5  A    between atoms: C_11  and  C_12
REMARK    6  A    between atoms: C_11  and  C_13
REMARK    7  A    between atoms: C_14  and  C_15
REMARK    8  A    between atoms: C_16  and  C_17
REMARK    9  A    between atoms: C_17  and  C_18
REMARK   10  A    between atoms: C_19  and  C_20
REMARK   11  A    between atoms: C_20  and  O_21
REMARK                            x       y       z     vdW  Elec       q    Type
REMARK                         _______ _______ _______ _____ _____    ______ ____
ROOT
ATOM      1  C   UNL     1      -8.313   5.401 132.502  0.00  0.00    +0.000 C 
ATOM      2  C   UNL     1      -7.424   6.310 131.696  0.00  0.00    +0.000 C 
ATOM      3  C   UNL     1      -7.980   7.091 130.751  0.00  0.00    +0.000 C 
ENDROOT
BRANCH   2   4
ATOM      4  C   UNL     1      -5.992   6.348 131.939  0.00  0.00    +0.000 C 
ATOM      5  C   UNL     1      -5.075   5.624 131.277  0.00  0.00    +0.000 C 
BRANCH   5   6
ATOM      6  C   UNL     1      -3.648   5.591 131.568  0.00  0.00    +0.000 C 
ATOM      7  C   UNL     1      -3.088   4.557 132.242  0.00  0.00    +0.000 C 
ATOM      8  C   UNL     1      -3.811   3.299 132.667  0.00  0.00    +0.000 C 
ATOM      9  C   UNL     1      -1.630   4.537 132.633  0.00  0.00    +0.000 C 
ATOM     10  C   UNL     1      -0.913   5.867 132.449  0.00  0.00    +0.000 C 
ATOM     11  C   UNL     1      -1.283   6.472 131.107  0.00  0.00    +0.000 C 
ATOM     12  C   UNL     1      -2.805   6.761 131.000  0.00  0.00    +0.000 C 
ATOM     13  C   UNL     1      -3.084   7.027 129.500  0.00  0.00    +0.000 C 
ATOM     14  C   UNL     1      -3.128   8.050 131.785  0.00  0.00    +0.000 C 
ENDBRANCH   5   6
ENDBRANCH   2   4
BRANCH   3  15
ATOM     15  C   UNL     1      -9.404   7.048 130.473  0.00  0.00    +0.000 C 
ATOM     16  C   UNL     1      -9.929   7.661 129.418  0.00  0.00    +0.000 C 
BRANCH  16  17
ATOM     17  C   UNL     1     -11.305   7.706 128.982  0.00  0.00    +0.000 C 
ATOM     18  C   UNL     1     -11.586   7.977 127.505  0.00  0.00    +0.000 C 
ATOM     19  C   UNL     1     -12.351   7.522 129.818  0.00  0.00    +0.000 C 
BRANCH  19  20
ATOM     20  C   UNL     1     -12.530   7.246 131.267  0.00  0.00    +0.000 C 
ATOM     21  O   UNL     1     -13.011   8.117 131.987  0.00  0.00    +0.000 OA
BRANCH  20  22
ATOM     22  O   UNL     1     -12.180   6.074 131.806  0.00  0.00    +0.000 OA
ATOM     23  H   UNL     1     -11.961   5.315 131.259  0.00  0.00    +0.000 HD
ENDBRANCH  20  22
ENDBRANCH  19  20
ENDBRANCH  16  17
ENDBRANCH   3  15
TORSDOF 6
ENDMDL
MODEL 3
REMARK VINA RESULT:      -7.2      2.268      3.435
REMARK  Name = Isotretinoin
REMARK  11 active torsions:
REMARK  status: ('A' for Active; 'I' for Inactive)
REMARK    1  A    between atoms: C_1  and  C_2
REMARK    2  A    between atoms: C_2  and  C_3
REMARK    3  A    between atoms: C_4  and  C_5
REMARK    4  A    between atoms: C_6  and  C_7
REMARK    5  A    between atoms: C_11  and  C_12
REMARK    6  A    between atoms: C_11  and  C_13
REMARK    7  A    between atoms: C_14  and  C_15
REMARK    8  A    between atoms: C_16  and  C_17
REMARK    9  A    between atoms: C_17  and  C_18
REMARK   10  A    between atoms: C_19  and  C_20
REMARK   11  A    between atoms: C_20  and  O_21
REMARK                            x       y       z     vdW  Elec       q    Type
REMARK                         _______ _______ _______ _____ _____    ______ ____
ROOT
ATOM      1  C   UNL     1      -9.858   4.835 130.569  0.00  0.00    +0.000 C 
ATOM      2  C   UNL     1      -8.888   5.987 130.579  0.00  0.00    +0.000 C 
ATOM      3  C   UNL     1      -9.336   7.215 130.261  0.00  0.00    +0.000 C 
ENDROOT
BRANCH   2   4
ATOM      4  C   UNL     1      -7.495   5.775 130.934  0.00  0.00    +0.000 C 
ATOM      5  C   UNL     1      -6.687   6.699 131.479  0.00  0.00    +0.000 C 
BRANCH   5   6
ATOM      6  C   UNL     1      -5.268   6.525 131.761  0.00  0.00    +0.000 C 
ATOM      7  C   UNL     1      -4.322   7.208 131.072  0.00  0.00    +0.000 C 
ATOM      8  C   UNL     1      -4.596   8.279 130.042  0.00  0.00    +0.000 C 
ATOM      9  C   UNL     1      -2.844   6.984 131.284  0.00  0.00    +0.000 C 
ATOM     10  C   UNL     1      -2.508   5.761 132.124  0.00  0.00    +0.000 C 
ATOM     11  C   UNL     1      -3.419   5.702 133.337  0.00  0.00    +0.000 C 
ATOM     12  C   UNL     1      -4.915   5.578 132.937  0.00  0.00    +0.000 C 
ATOM     13  C   UNL     1      -5.726   5.886 134.219  0.00  0.00    +0.000 C 
ATOM     14  C   UNL     1      -5.204   4.121 132.522  0.00  0.00    +0.000 C 
ENDBRANCH   5   6
ENDBRANCH   2   4
BRANCH   3  15
ATOM     15  C   UNL     1     -10.716   7.443 129.876  0.00  0.00    +0.000 C 
ATOM     16  C   UNL     1     -11.047   7.818 128.645  0.00  0.00    +0.000 C 
BRANCH  16  17
ATOM     17  C   UNL     1     -12.355   8.067 128.087  0.00  0.00    +0.000 C 
ATOM     18  C   UNL     1     -12.837   7.175 126.945  0.00  0.00    +0.000 C 
ATOM     19  C   UNL     1     -13.169   9.052 128.528  0.00  0.00    +0.000 C 
BRANCH  19  20
ATOM     20  C   UNL     1     -13.106  10.109 129.571  0.00  0.00    +0.000 C 
ATOM     21  O   UNL     1     -13.084   9.780 130.755  0.00  0.00    +0.000 OA
BRANCH  20  22
ATOM     22  O   UNL     1     -13.073  11.407 129.254  0.00  0.00    +0.000 OA
ATOM     23  H   UNL     1     -13.301  11.714 128.373  0.00  0.00    +0.000 HD
ENDBRANCH  20  22
ENDBRANCH  19  20
ENDBRANCH  16  17
ENDBRANCH   3  15
TORSDOF 6
ENDMDL
MODEL 4
REMARK VINA RESULT:      -7.2      7.617      9.550
REMARK  Name = Isotretinoin
REMARK  11 active torsions:
REMARK  status: ('A' for Active; 'I' for Inactive)
REMARK    1  A    between atoms: C_1  and  C_2
REMARK    2  A    between atoms: C_2  and  C_3
REMARK    3  A    between atoms: C_4  and  C_5
REMARK    4  A    between atoms: C_6  and  C_7
REMARK    5  A    between atoms: C_11  and  C_12
REMARK    6  A    between atoms: C_11  and  C_13
REMARK    7  A    between atoms: C_14  and  C_15
REMARK    8  A    between atoms: C_16  and  C_17
REMARK    9  A    between atoms: C_17  and  C_18
REMARK   10  A    between atoms: C_19  and  C_20
REMARK   11  A    between atoms: C_20  and  O_21
REMARK                            x       y       z     vdW  Elec       q    Type
REMARK                         _______ _______ _______ _____ _____    ______ ____
ROOT
ATOM      1  C   UNL     1      -5.558   2.549 125.859  0.00  0.00    +0.000 C 
ATOM      2  C   UNL     1      -6.761   1.809 125.337  0.00  0.00    +0.000 C 
ATOM      3  C   UNL     1      -7.298   2.187 124.163  0.00  0.00    +0.000 C 
ENDROOT
BRANCH   2   4
ATOM      4  C   UNL     1      -7.327   0.700 126.087  0.00  0.00    +0.000 C 
ATOM      5  C   UNL     1      -6.771  -0.517 126.207  0.00  0.00    +0.000 C 
BRANCH   5   6
ATOM      6  C   UNL     1      -7.369  -1.660 126.884  0.00  0.00    +0.000 C 
ATOM      7  C   UNL     1      -8.216  -2.499 126.240  0.00  0.00    +0.000 C 
ATOM      8  C   UNL     1      -8.556  -2.435 124.769  0.00  0.00    +0.000 C 
ATOM      9  C   UNL     1      -8.916  -3.639 126.939  0.00  0.00    +0.000 C 
ATOM     10  C   UNL     1      -8.806  -3.608 128.457  0.00  0.00    +0.000 C 
ATOM     11  C   UNL     1      -7.378  -3.291 128.863  0.00  0.00    +0.000 C 
ATOM     12  C   UNL     1      -6.921  -1.899 128.349  0.00  0.00    +0.000 C 
ATOM     13  C   UNL     1      -5.382  -1.865 128.519  0.00  0.00    +0.000 C 
ATOM     14  C   UNL     1      -7.529  -0.806 129.252  0.00  0.00    +0.000 C 
ENDBRANCH   5   6
ENDBRANCH   2   4
BRANCH   3  15
ATOM     15  C   UNL     1      -6.765   3.310 123.412  0.00  0.00    +0.000 C 
ATOM     16  C   UNL     1      -6.204   3.150 122.219  0.00  0.00    +0.000 C 
BRANCH  16  17
ATOM     17  C   UNL     1      -5.646   4.145 121.334  0.00  0.00    +0.000 C 
ATOM     18  C   UNL     1      -4.296   4.761 121.696  0.00  0.00    +0.000 C 
ATOM     19  C   UNL     1      -6.264   4.556 120.204  0.00  0.00    +0.000 C 
BRANCH  19  20
ATOM     20  C   UNL     1      -7.533   4.239 119.500  0.00  0.00    +0.000 C 
ATOM     21  O   UNL     1      -7.547   4.219 118.271  0.00  0.00    +0.000 OA
BRANCH  20  22
ATOM     22  O   UNL     1      -8.660   3.977 120.168  0.00  0.00    +0.000 OA
ATOM     23  H   UNL     1      -8.851   4.392 121.013  0.00  0.00    +0.000 HD
ENDBRANCH  20  22
ENDBRANCH  19  20
ENDBRANCH  16  17
ENDBRANCH   3  15
TORSDOF 6
ENDMDL
MODEL 5
REMARK VINA RESULT:      -7.2      2.114      2.476
REMARK  Name = Isotretinoin
REMARK  11 active torsions:
REMARK  status: ('A' for Active; 'I' for Inactive)
REMARK    1  A    between atoms: C_1  and  C_2
REMARK    2  A    between atoms: C_2  and  C_3
REMARK    3  A    between atoms: C_4  and  C_5
REMARK    4  A    between atoms: C_6  and  C_7
REMARK    5  A    between atoms: C_11  and  C_12
REMARK    6  A    between atoms: C_11  and  C_13
REMARK    7  A    between atoms: C_14  and  C_15
REMARK    8  A    between atoms: C_16  and  C_17
REMARK    9  A    between atoms: C_17  and  C_18
REMARK   10  A    between atoms: C_19  and  C_20
REMARK   11  A    between atoms: C_20  and  O_21
REMARK                            x       y       z     vdW  Elec       q    Type
REMARK                         _______ _______ _______ _____ _____    ______ ____
ROOT
ATOM      1  C   UNL     1      -9.045   4.808 130.026  0.00  0.00    +0.000 C 
ATOM      2  C   UNL     1      -8.380   6.098 130.425  0.00  0.00    +0.000 C 
ATOM      3  C   UNL     1      -9.090   7.240 130.367  0.00  0.00    +0.000 C 
ENDROOT
BRANCH   2   4
ATOM      4  C   UNL     1      -6.997   6.108 130.872  0.00  0.00    +0.000 C 
ATOM      5  C   UNL     1      -5.950   5.664 130.158  0.00  0.00    +0.000 C 
BRANCH   5   6
ATOM      6  C   UNL     1      -4.572   5.591 130.627  0.00  0.00    +0.000 C 
ATOM      7  C   UNL     1      -4.172   4.629 131.492  0.00  0.00    +0.000 C 
ATOM      8  C   UNL     1      -5.028   3.484 131.982  0.00  0.00    +0.000 C 
ATOM      9  C   UNL     1      -2.774   4.580 132.062  0.00  0.00    +0.000 C 
ATOM     10  C   UNL     1      -1.946   5.830 131.800  0.00  0.00    +0.000 C 
ATOM     11  C   UNL     1      -2.113   6.266 130.355  0.00  0.00    +0.000 C 
ATOM     12  C   UNL     1      -3.587   6.624 130.022  0.00  0.00    +0.000 C 
ATOM     13  C   UNL     1      -3.669   6.698 128.477  0.00  0.00    +0.000 C 
ATOM     14  C   UNL     1      -3.905   8.023 130.589  0.00  0.00    +0.000 C 
ENDBRANCH   5   6
ENDBRANCH   2   4
BRANCH   3  15
ATOM     15  C   UNL     1     -10.463   7.257 129.897  0.00  0.00    +0.000 C 
ATOM     16  C   UNL     1     -10.847   8.031 128.889  0.00  0.00    +0.000 C 
BRANCH  16  17
ATOM     17  C   UNL     1     -12.152   8.159 128.283  0.00  0.00    +0.000 C 
ATOM     18  C   UNL     1     -12.528   7.189 127.165  0.00  0.00    +0.000 C 
ATOM     19  C   UNL     1     -13.051   9.096 128.658  0.00  0.00    +0.000 C 
BRANCH  19  20
ATOM     20  C   UNL     1     -13.101  10.194 129.658  0.00  0.00    +0.000 C 
ATOM     21  O   UNL     1     -13.113   9.914 130.855  0.00  0.00    +0.000 OA
BRANCH  20  22
ATOM     22  O   UNL     1     -13.133  11.478 129.289  0.00  0.00    +0.000 OA
ATOM     23  H   UNL     1     -13.865  11.835 128.778  0.00  0.00    +0.000 HD
ENDBRANCH  20  22
ENDBRANCH  19  20
ENDBRANCH  16  17
ENDBRANCH   3  15
TORSDOF 6
ENDMDL
MODEL 6
REMARK VINA RESULT:      -7.1      8.648     10.623
REMARK  Name = Isotretinoin
REMARK  11 active torsions:
REMARK  status: ('A' for Active; 'I' for Inactive)
REMARK    1  A    between atoms: C_1  and  C_2
REMARK    2  A    between atoms: C_2  and  C_3
REMARK    3  A    between atoms: C_4  and  C_5
REMARK    4  A    between atoms: C_6  and  C_7
REMARK    5  A    between atoms: C_11  and  C_12
REMARK    6  A    between atoms: C_11  and  C_13
REMARK    7  A    between atoms: C_14  and  C_15
REMARK    8  A    between atoms: C_16  and  C_17
REMARK    9  A    between atoms: C_17  and  C_18
REMARK   10  A    between atoms: C_19  and  C_20
REMARK   11  A    between atoms: C_20  and  O_21
REMARK                            x       y       z     vdW  Elec       q    Type
REMARK                         _______ _______ _______ _____ _____    ______ ____
ROOT
ATOM      1  C   UNL     1      -7.683  -1.435 128.248  0.00  0.00    +0.000 C 
ATOM      2  C   UNL     1      -8.089  -2.821 128.672  0.00  0.00    +0.000 C 
ATOM      3  C   UNL     1      -8.727  -3.610 127.789  0.00  0.00    +0.000 C 
ENDROOT
BRANCH   2   4
ATOM      4  C   UNL     1      -7.789  -3.300 130.011  0.00  0.00    +0.000 C 
ATOM      5  C   UNL     1      -6.720  -2.941 130.741  0.00  0.00    +0.000 C 
BRANCH   5   6
ATOM      6  C   UNL     1      -6.365  -3.479 132.048  0.00  0.00    +0.000 C 
ATOM      7  C   UNL     1      -5.759  -4.684 132.175  0.00  0.00    +0.000 C 
ATOM      8  C   UNL     1      -5.287  -5.549 131.029  0.00  0.00    +0.000 C 
ATOM      9  C   UNL     1      -5.459  -5.303 133.519  0.00  0.00    +0.000 C 
ATOM     10  C   UNL     1      -6.121  -4.601 134.696  0.00  0.00    +0.000 C 
ATOM     11  C   UNL     1      -5.967  -3.097 134.553  0.00  0.00    +0.000 C 
ATOM     12  C   UNL     1      -6.651  -2.562 133.265  0.00  0.00    +0.000 C 
ATOM     13  C   UNL     1      -6.120  -1.121 133.068  0.00  0.00    +0.000 C 
ATOM     14  C   UNL     1      -8.174  -2.487 133.500  0.00  0.00    +0.000 C 
ENDBRANCH   5   6
ENDBRANCH   2   4
BRANCH   3  15
ATOM     15  C   UNL     1      -9.061  -3.141 126.456  0.00  0.00    +0.000 C 
ATOM     16  C   UNL     1      -8.352  -3.498 125.391  0.00  0.00    +0.000 C 
BRANCH  16  17
ATOM     17  C   UNL     1      -8.550  -3.147 124.004  0.00  0.00    +0.000 C 
ATOM     18  C   UNL     1      -9.869  -3.536 123.341  0.00  0.00    +0.000 C 
ATOM     19  C   UNL     1      -7.622  -2.493 123.270  0.00  0.00    +0.000 C 
BRANCH  19  20
ATOM     20  C   UNL     1      -6.260  -1.948 123.501  0.00  0.00    +0.000 C 
ATOM     21  O   UNL     1      -6.138  -0.791 123.896  0.00  0.00    +0.000 OA
BRANCH  20  22
ATOM     22  O   UNL     1      -5.164  -2.684 123.291  0.00  0.00    +0.000 OA
ATOM     23  H   UNL     1      -4.327  -2.468 123.710  0.00  0.00    +0.000 HD
ENDBRANCH  20  22
ENDBRANCH  19  20
ENDBRANCH  16  17
ENDBRANCH   3  15
TORSDOF 6
ENDMDL
MODEL 7
REMARK VINA RESULT:      -7.1      9.271     12.341
REMARK  Name = Isotretinoin
REMARK  11 active torsions:
REMARK  status: ('A' for Active; 'I' for Inactive)
REMARK    1  A    between atoms: C_1  and  C_2
REMARK    2  A    between atoms: C_2  and  C_3
REMARK    3  A    between atoms: C_4  and  C_5
REMARK    4  A    between atoms: C_6  and  C_7
REMARK    5  A    between atoms: C_11  and  C_12
REMARK    6  A    between atoms: C_11  and  C_13
REMARK    7  A    between atoms: C_14  and  C_15
REMARK    8  A    between atoms: C_16  and  C_17
REMARK    9  A    between atoms: C_17  and  C_18
REMARK   10  A    between atoms: C_19  and  C_20
REMARK   11  A    between atoms: C_20  and  O_21
REMARK                            x       y       z     vdW  Elec       q    Type
REMARK                         _______ _______ _______ _____ _____    ______ ____
ROOT
ATOM      1  C   UNL     1      -3.994  -2.899 129.478  0.00  0.00    +0.000 C 
ATOM      2  C   UNL     1      -5.435  -3.109 129.099  0.00  0.00    +0.000 C 
ATOM      3  C   UNL     1      -6.212  -3.867 129.895  0.00  0.00    +0.000 C 
ENDROOT
BRANCH   2   4
ATOM      4  C   UNL     1      -5.980  -2.498 127.898  0.00  0.00    +0.000 C 
ATOM      5  C   UNL     1      -5.331  -2.379 126.728  0.00  0.00    +0.000 C 
BRANCH   5   6
ATOM      6  C   UNL     1      -5.834  -1.695 125.544  0.00  0.00    +0.000 C 
ATOM      7  C   UNL     1      -5.953  -0.345 125.507  0.00  0.00    +0.000 C 
ATOM      8  C   UNL     1      -5.498   0.602 126.593  0.00  0.00    +0.000 C 
ATOM      9  C   UNL     1      -6.551   0.384 124.327  0.00  0.00    +0.000 C 
ATOM     10  C   UNL     1      -7.243  -0.519 123.316  0.00  0.00    +0.000 C 
ATOM     11  C   UNL     1      -6.382  -1.739 123.039  0.00  0.00    +0.000 C 
ATOM     12  C   UNL     1      -6.148  -2.589 124.318  0.00  0.00    +0.000 C 
ATOM     13  C   UNL     1      -4.994  -3.564 123.976  0.00  0.00    +0.000 C 
ATOM     14  C   UNL     1      -7.414  -3.422 124.605  0.00  0.00    +0.000 C 
ENDBRANCH   5   6
ENDBRANCH   2   4
BRANCH   3  15
ATOM     15  C   UNL     1      -5.681  -4.510 131.083  0.00  0.00    +0.000 C 
ATOM     16  C   UNL     1      -6.036  -4.125 132.304  0.00  0.00    +0.000 C 
BRANCH  16  17
ATOM     17  C   UNL     1      -5.627  -4.657 133.583  0.00  0.00    +0.000 C 
ATOM     18  C   UNL     1      -6.707  -5.186 134.524  0.00  0.00    +0.000 C 
ATOM     19  C   UNL     1      -4.337  -4.707 133.983  0.00  0.00    +0.000 C 
BRANCH  19  20
ATOM     20  C   UNL     1      -3.022  -4.319 133.412  0.00  0.00    +0.000 C 
ATOM     21  O   UNL     1      -2.866  -3.175 132.991  0.00  0.00    +0.000 OA
BRANCH  20  22
ATOM     22  O   UNL     1      -2.004  -5.182 133.344  0.00  0.00    +0.000 OA
ATOM     23  H   UNL     1      -1.100  -4.907 133.519  0.00  0.00    +0.000 HD
ENDBRANCH  20  22
ENDBRANCH  19  20
ENDBRANCH  16  17
ENDBRANCH   3  15
TORSDOF 6
ENDMDL
MODEL 8
REMARK VINA RESULT:      -7.1      9.115     12.095
REMARK  Name = Isotretinoin
REMARK  11 active torsions:
REMARK  status: ('A' for Active; 'I' for Inactive)
REMARK    1  A    between atoms: C_1  and  C_2
REMARK    2  A    between atoms: C_2  and  C_3
REMARK    3  A    between atoms: C_4  and  C_5
REMARK    4  A    between atoms: C_6  and  C_7
REMARK    5  A    between atoms: C_11  and  C_12
REMARK    6  A    between atoms: C_11  and  C_13
REMARK    7  A    between atoms: C_14  and  C_15
REMARK    8  A    between atoms: C_16  and  C_17
REMARK    9  A    between atoms: C_17  and  C_18
REMARK   10  A    between atoms: C_19  and  C_20
REMARK   11  A    between atoms: C_20  and  O_21
REMARK                            x       y       z     vdW  Elec       q    Type
REMARK                         _______ _______ _______ _____ _____    ______ ____
ROOT
ATOM      1  C   UNL     1      -4.081  -2.654 129.314  0.00  0.00    +0.000 C 
ATOM      2  C   UNL     1      -5.507  -2.957 128.940  0.00  0.00    +0.000 C 
ATOM      3  C   UNL     1      -6.250  -3.712 129.771  0.00  0.00    +0.000 C 
ENDROOT
BRANCH   2   4
ATOM      4  C   UNL     1      -6.074  -2.437 127.707  0.00  0.00    +0.000 C 
ATOM      5  C   UNL     1      -5.399  -2.262 126.559  0.00  0.00    +0.000 C 
BRANCH   5   6
ATOM      6  C   UNL     1      -5.934  -1.664 125.343  0.00  0.00    +0.000 C 
ATOM      7  C   UNL     1      -6.150  -0.329 125.249  0.00  0.00    +0.000 C 
ATOM      8  C   UNL     1      -5.778   0.691 126.300  0.00  0.00    +0.000 C 
ATOM      9  C   UNL     1      -6.783   0.307 124.035  0.00  0.00    +0.000 C 
ATOM     10  C   UNL     1      -7.395  -0.683 123.054  0.00  0.00    +0.000 C 
ATOM     11  C   UNL     1      -6.444  -1.847 122.836  0.00  0.00    +0.000 C 
ATOM     12  C   UNL     1      -6.167  -2.626 124.151  0.00  0.00    +0.000 C 
ATOM     13  C   UNL     1      -4.942  -3.529 123.861  0.00  0.00    +0.000 C 
ATOM     14  C   UNL     1      -7.374  -3.536 124.459  0.00  0.00    +0.000 C 
ENDBRANCH   5   6
ENDBRANCH   2   4
BRANCH   3  15
ATOM     15  C   UNL     1      -5.695  -4.265 130.993  0.00  0.00    +0.000 C 
ATOM     16  C   UNL     1      -6.266  -4.063 132.175  0.00  0.00    +0.000 C 
BRANCH  16  17
ATOM     17  C   UNL     1      -5.868  -4.548 133.475  0.00  0.00    +0.000 C 
ATOM     18  C   UNL     1      -4.598  -5.391 133.575  0.00  0.00    +0.000 C 
ATOM     19  C   UNL     1      -6.567  -4.293 134.603  0.00  0.00    +0.000 C 
BRANCH  19  20
ATOM     20  C   UNL     1      -7.805  -3.550 134.953  0.00  0.00    +0.000 C 
ATOM     21  O   UNL     1      -7.720  -2.535 135.641  0.00  0.00    +0.000 OA
BRANCH  20  22
ATOM     22  O   UNL     1      -9.008  -3.956 134.538  0.00  0.00    +0.000 OA
ATOM     23  H   UNL     1      -9.590  -3.376 134.039  0.00  0.00    +0.000 HD
ENDBRANCH  20  22
ENDBRANCH  19  20
ENDBRANCH  16  17
ENDBRANCH   3  15
TORSDOF 6
ENDMDL
MODEL 9
REMARK VINA RESULT:      -7.0      9.055     12.287
REMARK  Name = Isotretinoin
REMARK  11 active torsions:
REMARK  status: ('A' for Active; 'I' for Inactive)
REMARK    1  A    between atoms: C_1  and  C_2
REMARK    2  A    between atoms: C_2  and  C_3
REMARK    3  A    between atoms: C_4  and  C_5
REMARK    4  A    between atoms: C_6  and  C_7
REMARK    5  A    between atoms: C_11  and  C_12
REMARK    6  A    between atoms: C_11  and  C_13
REMARK    7  A    between atoms: C_14  and  C_15
REMARK    8  A    between atoms: C_16  and  C_17
REMARK    9  A    between atoms: C_17  and  C_18
REMARK   10  A    between atoms: C_19  and  C_20
REMARK   11  A    between atoms: C_20  and  O_21
REMARK                            x       y       z     vdW  Elec       q    Type
REMARK                         _______ _______ _______ _____ _____    ______ ____
ROOT
ATOM      1  C   UNL     1      -8.903  -3.753 129.082  0.00  0.00    +0.000 C 
ATOM      2  C   UNL     1      -7.683  -3.081 128.510  0.00  0.00    +0.000 C 
ATOM      3  C   UNL     1      -6.505  -3.226 129.144  0.00  0.00    +0.000 C 
ENDROOT
BRANCH   2   4
ATOM      4  C   UNL     1      -7.776  -2.297 127.290  0.00  0.00    +0.000 C 
ATOM      5  C   UNL     1      -8.783  -2.362 126.403  0.00  0.00    +0.000 C 
BRANCH   5   6
ATOM      6  C   UNL     1      -8.847  -1.644 125.138  0.00  0.00    +0.000 C 
ATOM      7  C   UNL     1      -9.119  -0.317 125.092  0.00  0.00    +0.000 C 
ATOM      8  C   UNL     1      -9.277   0.584 126.295  0.00  0.00    +0.000 C 
ATOM      9  C   UNL     1      -9.276   0.435 123.792  0.00  0.00    +0.000 C 
ATOM     10  C   UNL     1      -9.369  -0.454 122.560  0.00  0.00    +0.000 C 
ATOM     11  C   UNL     1      -8.315  -1.545 122.630  0.00  0.00    +0.000 C 
ATOM     12  C   UNL     1      -8.511  -2.465 123.867  0.00  0.00    +0.000 C 
ATOM     13  C   UNL     1      -7.200  -3.277 124.006  0.00  0.00    +0.000 C 
ATOM     14  C   UNL     1      -9.661  -3.452 123.580  0.00  0.00    +0.000 C 
ENDBRANCH   5   6
ENDBRANCH   2   4
BRANCH   3  15
ATOM     15  C   UNL     1      -6.395  -3.981 130.378  0.00  0.00    +0.000 C 
ATOM     16  C   UNL     1      -5.827  -3.469 131.464  0.00  0.00    +0.000 C 
BRANCH  16  17
ATOM     17  C   UNL     1      -5.651  -4.063 132.768  0.00  0.00    +0.000 C 
ATOM     18  C   UNL     1      -4.399  -4.900 133.019  0.00  0.00    +0.000 C 
ATOM     19  C   UNL     1      -6.544  -3.914 133.773  0.00  0.00    +0.000 C 
BRANCH  19  20
ATOM     20  C   UNL     1      -7.842  -3.215 133.959  0.00  0.00    +0.000 C 
ATOM     21  O   UNL     1      -7.900  -2.001 133.773  0.00  0.00    +0.000 OA
BRANCH  20  22
ATOM     22  O   UNL     1      -8.947  -3.872 134.323  0.00  0.00    +0.000 OA
ATOM     23  H   UNL     1      -9.817  -3.596 134.023  0.00  0.00    +0.000 HD
ENDBRANCH  20  22
ENDBRANCH  19  20
ENDBRANCH  16  17
ENDBRANCH   3  15
TORSDOF 6
ENDMDL
