MODEL 1
REMARK VINA RESULT:      -7.2      0.000      0.000
REMARK  Name = Isoxsuprine
REMARK  11 active torsions:
REMARK  status: ('A' for Active; 'I' for Inactive)
REMARK    1  A    between atoms: C_1  and  C_2
REMARK    2  A    between atoms: C_2  and  C_3
REMARK    3  A    between atoms: C_2  and  N_11
REMARK    4  A    between atoms: C_3  and  O_4
REMARK    5  A    between atoms: O_4  and  C_5
REMARK    6  A    between atoms: N_11  and  C_12
REMARK    7  A    between atoms: C_12  and  C_13
REMARK    8  A    between atoms: C_12  and  C_14
REMARK    9  A    between atoms: C_14  and  O_15
REMARK   10  A    between atoms: C_14  and  C_16
REMARK   11  A    between atoms: C_19  and  O_20
REMARK                            x       y       z     vdW  Elec       q    Type
REMARK                         _______ _______ _______ _____ _____    ______ ____
ROOT
ATOM      1  C   UNL     1      -7.228   1.601 123.497  0.00  0.00    +0.000 C 
ATOM      2  C   UNL     1      -7.072   1.924 124.984  0.00  0.00    +0.000 C 
ENDROOT
BRANCH   1   3
ATOM      3  N   UNL     1      -7.922   0.323 123.170  0.00  0.00    +0.000 NA
ATOM      4  H   UNL     1      -8.937   0.419 123.192  0.00  0.00    +0.000 HD
BRANCH   3   6
ATOM      5  C   UNL     1      -6.762  -1.842 122.918  0.00  0.00    +0.000 C 
ATOM      6  C   UNL     1      -7.485  -0.892 123.881  0.00  0.00    +0.000 C 
BRANCH   6   7
ATOM      7  C   UNL     1      -8.653  -1.634 124.547  0.00  0.00    +0.000 C 
BRANCH   7   8
ATOM      8  O   UNL     1      -8.272  -2.837 125.188  0.00  0.00    +0.000 OA
BRANCH   8   9
ATOM      9  C   UNL     1      -8.162  -2.732 126.548  0.00  0.00    +0.000 A 
ATOM     10  C   UNL     1      -8.782  -3.767 127.226  0.00  0.00    +0.000 A 
ATOM     11  C   UNL     1      -8.816  -3.770 128.614  0.00  0.00    +0.000 A 
ATOM     12  C   UNL     1      -8.189  -2.749 129.332  0.00  0.00    +0.000 A 
ATOM     13  C   UNL     1      -7.560  -1.708 128.661  0.00  0.00    +0.000 A 
ATOM     14  C   UNL     1      -7.557  -1.688 127.267  0.00  0.00    +0.000 A 
ENDBRANCH   8   9
ENDBRANCH   7   8
ENDBRANCH   6   7
ENDBRANCH   3   6
ENDBRANCH   1   3
BRANCH   1  15
ATOM     15  C   UNL     1      -7.954   2.813 122.824  0.00  0.00    +0.000 C 
BRANCH  15  16
ATOM     16  C   UNL     1      -7.166   3.482 121.722  0.00  0.00    +0.000 A 
ATOM     17  C   UNL     1      -5.844   3.871 121.959  0.00  0.00    +0.000 A 
ATOM     18  C   UNL     1      -5.147   4.616 121.004  0.00  0.00    +0.000 A 
ATOM     19  C   UNL     1      -5.764   4.917 119.788  0.00  0.00    +0.000 A 
ATOM     20  C   UNL     1      -7.052   4.510 119.521  0.00  0.00    +0.000 A 
ATOM     21  C   UNL     1      -7.746   3.782 120.475  0.00  0.00    +0.000 A 
BRANCH  19  22
ATOM     22  O   UNL     1      -5.118   5.615 118.813  0.00  0.00    +0.000 OA
ATOM     23  H   UNL     1      -5.778   5.926 118.177  0.00  0.00    +0.000 HD
ENDBRANCH  19  22
ENDBRANCH  15  16
BRANCH  15  24
ATOM     24  O   UNL     1      -8.284   3.812 123.796  0.00  0.00    +0.000 OA
ATOM     25  H   UNL     1      -8.994   4.351 123.409  0.00  0.00    +0.000 HD
ENDBRANCH  15  24
ENDBRANCH   1  15
TORSDOF 9
ENDMDL
MODEL 2
REMARK VINA RESULT:      -7.2      1.543      8.811
REMARK  Name = Isoxsuprine
REMARK  11 active torsions:
REMARK  status: ('A' for Active; 'I' for Inactive)
REMARK    1  A    between atoms: C_1  and  C_2
REMARK    2  A    between atoms: C_2  and  C_3
REMARK    3  A    between atoms: C_2  and  N_11
REMARK    4  A    between atoms: C_3  and  O_4
REMARK    5  A    between atoms: O_4  and  C_5
REMARK    6  A    between atoms: N_11  and  C_12
REMARK    7  A    between atoms: C_12  and  C_13
REMARK    8  A    between atoms: C_12  and  C_14
REMARK    9  A    between atoms: C_14  and  O_15
REMARK   10  A    between atoms: C_14  and  C_16
REMARK   11  A    between atoms: C_19  and  O_20
REMARK                            x       y       z     vdW  Elec       q    Type
REMARK                         _______ _______ _______ _____ _____    ______ ____
ROOT
ATOM      1  C   UNL     1      -7.955  -1.534 124.205  0.00  0.00    +0.000 C 
ATOM      2  C   UNL     1      -7.106  -2.249 123.153  0.00  0.00    +0.000 C 
ENDROOT
BRANCH   1   3
ATOM      3  N   UNL     1      -8.838  -0.442 123.707  0.00  0.00    +0.000 NA
ATOM      4  H   UNL     1      -9.441  -0.751 122.945  0.00  0.00    +0.000 HD
BRANCH   3   6
ATOM      5  C   UNL     1      -7.575   1.454 124.659  0.00  0.00    +0.000 C 
ATOM      6  C   UNL     1      -8.211   0.856 123.398  0.00  0.00    +0.000 C 
BRANCH   6   7
ATOM      7  C   UNL     1      -9.206   1.863 122.804  0.00  0.00    +0.000 C 
BRANCH   7   8
ATOM      8  O   UNL     1      -8.709   3.186 122.740  0.00  0.00    +0.000 OA
BRANCH   8   9
ATOM      9  C   UNL     1      -8.237   3.544 121.507  0.00  0.00    +0.000 A 
ATOM     10  C   UNL     1      -6.857   3.632 121.456  0.00  0.00    +0.000 A 
ATOM     11  C   UNL     1      -6.226   4.049 120.291  0.00  0.00    +0.000 A 
ATOM     12  C   UNL     1      -6.982   4.342 119.153  0.00  0.00    +0.000 A 
ATOM     13  C   UNL     1      -8.367   4.253 119.193  0.00  0.00    +0.000 A 
ATOM     14  C   UNL     1      -9.000   3.868 120.373  0.00  0.00    +0.000 A 
ENDBRANCH   8   9
ENDBRANCH   7   8
ENDBRANCH   6   7
ENDBRANCH   3   6
ENDBRANCH   1   3
BRANCH   1  15
ATOM     15  C   UNL     1      -8.791  -2.623 124.956  0.00  0.00    +0.000 C 
BRANCH  15  16
ATOM     16  C   UNL     1      -8.597  -2.638 126.455  0.00  0.00    +0.000 A 
ATOM     17  C   UNL     1      -7.953  -1.564 127.077  0.00  0.00    +0.000 A 
ATOM     18  C   UNL     1      -7.639  -1.624 128.436  0.00  0.00    +0.000 A 
ATOM     19  C   UNL     1      -8.026  -2.741 129.180  0.00  0.00    +0.000 A 
ATOM     20  C   UNL     1      -8.693  -3.792 128.593  0.00  0.00    +0.000 A 
ATOM     21  C   UNL     1      -8.993  -3.736 127.240  0.00  0.00    +0.000 A 
BRANCH  19  22
ATOM     22  O   UNL     1      -7.769  -2.835 130.514  0.00  0.00    +0.000 OA
ATOM     23  H   UNL     1      -7.692  -1.938 130.870  0.00  0.00    +0.000 HD
ENDBRANCH  19  22
ENDBRANCH  15  16
BRANCH  15  24
ATOM     24  O   UNL     1      -8.484  -3.931 124.460  0.00  0.00    +0.000 OA
ATOM     25  H   UNL     1      -8.828  -3.971 123.552  0.00  0.00    +0.000 HD
ENDBRANCH  15  24
ENDBRANCH   1  15
TORSDOF 9
ENDMDL
MODEL 3
REMARK VINA RESULT:      -7.1      1.838      2.893
REMARK  Name = Isoxsuprine
REMARK  11 active torsions:
REMARK  status: ('A' for Active; 'I' for Inactive)
REMARK    1  A    between atoms: C_1  and  C_2
REMARK    2  A    between atoms: C_2  and  C_3
REMARK    3  A    between atoms: C_2  and  N_11
REMARK    4  A    between atoms: C_3  and  O_4
REMARK    5  A    between atoms: O_4  and  C_5
REMARK    6  A    between atoms: N_11  and  C_12
REMARK    7  A    between atoms: C_12  and  C_13
REMARK    8  A    between atoms: C_12  and  C_14
REMARK    9  A    between atoms: C_14  and  O_15
REMARK   10  A    between atoms: C_14  and  C_16
REMARK   11  A    between atoms: C_19  and  O_20
REMARK                            x       y       z     vdW  Elec       q    Type
REMARK                         _______ _______ _______ _____ _____    ______ ____
ROOT
ATOM      1  C   UNL     1      -6.392   3.227 123.828  0.00  0.00    +0.000 C 
ATOM      2  C   UNL     1      -7.084   4.233 124.750  0.00  0.00    +0.000 C 
ENDROOT
BRANCH   1   3
ATOM      3  N   UNL     1      -6.023   1.919 124.440  0.00  0.00    +0.000 NA
ATOM      4  H   UNL     1      -6.293   1.129 123.854  0.00  0.00    +0.000 HD
BRANCH   3   6
ATOM      5  C   UNL     1      -5.232   1.070 126.620  0.00  0.00    +0.000 C 
ATOM      6  C   UNL     1      -6.401   1.693 125.847  0.00  0.00    +0.000 C 
BRANCH   6   7
ATOM      7  C   UNL     1      -7.638   0.794 125.985  0.00  0.00    +0.000 C 
BRANCH   7   8
ATOM      8  O   UNL     1      -7.337  -0.588 126.029  0.00  0.00    +0.000 OA
BRANCH   8   9
ATOM      9  C   UNL     1      -7.968  -1.325 125.065  0.00  0.00    +0.000 A 
ATOM     10  C   UNL     1      -8.680  -2.396 125.577  0.00  0.00    +0.000 A 
ATOM     11  C   UNL     1      -9.323  -3.281 124.721  0.00  0.00    +0.000 A 
ATOM     12  C   UNL     1      -9.288  -3.069 123.340  0.00  0.00    +0.000 A 
ATOM     13  C   UNL     1      -8.581  -1.994 122.817  0.00  0.00    +0.000 A 
ATOM     14  C   UNL     1      -7.907  -1.127 123.676  0.00  0.00    +0.000 A 
ENDBRANCH   8   9
ENDBRANCH   7   8
ENDBRANCH   6   7
ENDBRANCH   3   6
ENDBRANCH   1   3
BRANCH   1  15
ATOM     15  C   UNL     1      -7.316   3.014 122.583  0.00  0.00    +0.000 C 
BRANCH  15  16
ATOM     16  C   UNL     1      -6.841   3.705 121.326  0.00  0.00    +0.000 A 
ATOM     17  C   UNL     1      -5.545   4.227 121.274  0.00  0.00    +0.000 A 
ATOM     18  C   UNL     1      -5.137   4.991 120.178  0.00  0.00    +0.000 A 
ATOM     19  C   UNL     1      -6.017   5.180 119.110  0.00  0.00    +0.000 A 
ATOM     20  C   UNL     1      -7.284   4.642 119.126  0.00  0.00    +0.000 A 
ATOM     21  C   UNL     1      -7.691   3.895 120.221  0.00  0.00    +0.000 A 
BRANCH  19  22
ATOM     22  O   UNL     1      -5.657   5.892 118.006  0.00  0.00    +0.000 OA
ATOM     23  H   UNL     1      -6.181   5.571 117.257  0.00  0.00    +0.000 HD
ENDBRANCH  19  22
ENDBRANCH  15  16
BRANCH  15  24
ATOM     24  O   UNL     1      -8.648   3.464 122.856  0.00  0.00    +0.000 OA
ATOM     25  H   UNL     1      -9.242   2.733 122.613  0.00  0.00    +0.000 HD
ENDBRANCH  15  24
ENDBRANCH   1  15
TORSDOF 9
ENDMDL
MODEL 4
REMARK VINA RESULT:      -7.0      8.624     11.046
REMARK  Name = Isoxsuprine
REMARK  11 active torsions:
REMARK  status: ('A' for Active; 'I' for Inactive)
REMARK    1  A    between atoms: C_1  and  C_2
REMARK    2  A    between atoms: C_2  and  C_3
REMARK    3  A    between atoms: C_2  and  N_11
REMARK    4  A    between atoms: C_3  and  O_4
REMARK    5  A    between atoms: O_4  and  C_5
REMARK    6  A    between atoms: N_11  and  C_12
REMARK    7  A    between atoms: C_12  and  C_13
REMARK    8  A    between atoms: C_12  and  C_14
REMARK    9  A    between atoms: C_14  and  O_15
REMARK   10  A    between atoms: C_14  and  C_16
REMARK   11  A    between atoms: C_19  and  O_20
REMARK                            x       y       z     vdW  Elec       q    Type
REMARK                         _______ _______ _______ _____ _____    ______ ____
ROOT
ATOM      1  C   UNL     1      -8.793   4.225 132.587  0.00  0.00    +0.000 C 
ATOM      2  C   UNL     1      -8.562   3.343 133.815  0.00  0.00    +0.000 C 
ENDROOT
BRANCH   1   3
ATOM      3  N   UNL     1     -10.177   4.231 132.032  0.00  0.00    +0.000 NA
ATOM      4  H   UNL     1     -10.787   3.571 132.513  0.00  0.00    +0.000 HD
BRANCH   3   6
ATOM      5  C   UNL     1      -9.009   3.669 129.931  0.00  0.00    +0.000 C 
ATOM      6  C   UNL     1     -10.325   4.127 130.569  0.00  0.00    +0.000 C 
BRANCH   6   7
ATOM      7  C   UNL     1     -10.767   5.451 129.929  0.00  0.00    +0.000 C 
BRANCH   7   8
ATOM      8  O   UNL     1     -12.126   5.467 129.533  0.00  0.00    +0.000 OA
BRANCH   8   9
ATOM      9  C   UNL     1     -12.576   6.698 129.139  0.00  0.00    +0.000 A 
ATOM     10  C   UNL     1     -12.201   7.716 129.998  0.00  0.00    +0.000 A 
ATOM     11  C   UNL     1     -12.635   9.016 129.772  0.00  0.00    +0.000 A 
ATOM     12  C   UNL     1     -13.419   9.307 128.653  0.00  0.00    +0.000 A 
ATOM     13  C   UNL     1     -13.795   8.293 127.782  0.00  0.00    +0.000 A 
ATOM     14  C   UNL     1     -13.388   6.983 128.029  0.00  0.00    +0.000 A 
ENDBRANCH   8   9
ENDBRANCH   7   8
ENDBRANCH   6   7
ENDBRANCH   3   6
ENDBRANCH   1   3
BRANCH   1  15
ATOM     15  C   UNL     1      -8.340   5.677 132.957  0.00  0.00    +0.000 C 
BRANCH  15  16
ATOM     16  C   UNL     1      -6.962   6.048 132.459  0.00  0.00    +0.000 A 
ATOM     17  C   UNL     1      -5.854   5.856 133.290  0.00  0.00    +0.000 A 
ATOM     18  C   UNL     1      -4.595   6.324 132.904  0.00  0.00    +0.000 A 
ATOM     19  C   UNL     1      -4.443   6.931 131.656  0.00  0.00    +0.000 A 
ATOM     20  C   UNL     1      -5.516   7.094 130.808  0.00  0.00    +0.000 A 
ATOM     21  C   UNL     1      -6.766   6.642 131.198  0.00  0.00    +0.000 A 
BRANCH  19  22
ATOM     22  O   UNL     1      -3.232   7.376 131.221  0.00  0.00    +0.000 OA
ATOM     23  H   UNL     1      -2.655   6.609 131.098  0.00  0.00    +0.000 HD
ENDBRANCH  19  22
ENDBRANCH  15  16
BRANCH  15  24
ATOM     24  O   UNL     1      -8.361   5.871 134.375  0.00  0.00    +0.000 OA
ATOM     25  H   UNL     1      -7.749   6.602 134.564  0.00  0.00    +0.000 HD
ENDBRANCH  15  24
ENDBRANCH   1  15
TORSDOF 9
ENDMDL
MODEL 5
REMARK VINA RESULT:      -6.8      2.312      7.863
REMARK  Name = Isoxsuprine
REMARK  11 active torsions:
REMARK  status: ('A' for Active; 'I' for Inactive)
REMARK    1  A    between atoms: C_1  and  C_2
REMARK    2  A    between atoms: C_2  and  C_3
REMARK    3  A    between atoms: C_2  and  N_11
REMARK    4  A    between atoms: C_3  and  O_4
REMARK    5  A    between atoms: O_4  and  C_5
REMARK    6  A    between atoms: N_11  and  C_12
REMARK    7  A    between atoms: C_12  and  C_13
REMARK    8  A    between atoms: C_12  and  C_14
REMARK    9  A    between atoms: C_14  and  O_15
REMARK   10  A    between atoms: C_14  and  C_16
REMARK   11  A    between atoms: C_19  and  O_20
REMARK                            x       y       z     vdW  Elec       q    Type
REMARK                         _______ _______ _______ _____ _____    ______ ____
ROOT
ATOM      1  C   UNL     1      -8.434   0.765 123.933  0.00  0.00    +0.000 C 
ATOM      2  C   UNL     1      -9.779   0.946 123.227  0.00  0.00    +0.000 C 
ENDROOT
BRANCH   1   3
ATOM      3  N   UNL     1      -8.054   1.828 124.906  0.00  0.00    +0.000 NA
ATOM      4  H   UNL     1      -8.863   2.347 125.246  0.00  0.00    +0.000 HD
BRANCH   3   6
ATOM      5  C   UNL     1      -7.334   4.189 124.848  0.00  0.00    +0.000 C 
ATOM      6  C   UNL     1      -6.957   2.738 124.529  0.00  0.00    +0.000 C 
BRANCH   6   7
ATOM      7  C   UNL     1      -6.584   2.624 123.044  0.00  0.00    +0.000 C 
BRANCH   7   8
ATOM      8  O   UNL     1      -5.666   3.609 122.610  0.00  0.00    +0.000 OA
BRANCH   8   9
ATOM      9  C   UNL     1      -5.944   4.122 121.372  0.00  0.00    +0.000 A 
ATOM     10  C   UNL     1      -7.189   3.750 120.896  0.00  0.00    +0.000 A 
ATOM     11  C   UNL     1      -7.594   4.135 119.624  0.00  0.00    +0.000 A 
ATOM     12  C   UNL     1      -6.762   4.935 118.837  0.00  0.00    +0.000 A 
ATOM     13  C   UNL     1      -5.513   5.318 119.308  0.00  0.00    +0.000 A 
ATOM     14  C   UNL     1      -5.094   4.901 120.571  0.00  0.00    +0.000 A 
ENDBRANCH   8   9
ENDBRANCH   7   8
ENDBRANCH   6   7
ENDBRANCH   3   6
ENDBRANCH   1   3
BRANCH   1  15
ATOM     15  C   UNL     1      -8.449  -0.639 124.624  0.00  0.00    +0.000 C 
BRANCH  15  16
ATOM     16  C   UNL     1      -7.279  -1.525 124.267  0.00  0.00    +0.000 A 
ATOM     17  C   UNL     1      -6.576  -2.181 125.282  0.00  0.00    +0.000 A 
ATOM     18  C   UNL     1      -5.408  -2.888 124.986  0.00  0.00    +0.000 A 
ATOM     19  C   UNL     1      -4.982  -2.982 123.660  0.00  0.00    +0.000 A 
ATOM     20  C   UNL     1      -5.682  -2.374 122.642  0.00  0.00    +0.000 A 
ATOM     21  C   UNL     1      -6.833  -1.662 122.939  0.00  0.00    +0.000 A 
BRANCH  19  22
ATOM     22  O   UNL     1      -3.867  -3.684 123.316  0.00  0.00    +0.000 OA
ATOM     23  H   UNL     1      -3.864  -3.791 122.354  0.00  0.00    +0.000 HD
ENDBRANCH  19  22
ENDBRANCH  15  16
BRANCH  15  24
ATOM     24  O   UNL     1      -9.651  -1.349 124.306  0.00  0.00    +0.000 OA
ATOM     25  H   UNL     1     -10.231  -1.274 125.083  0.00  0.00    +0.000 HD
ENDBRANCH  15  24
ENDBRANCH   1  15
TORSDOF 9
ENDMDL
MODEL 6
REMARK VINA RESULT:      -6.8      7.695     10.084
REMARK  Name = Isoxsuprine
REMARK  11 active torsions:
REMARK  status: ('A' for Active; 'I' for Inactive)
REMARK    1  A    between atoms: C_1  and  C_2
REMARK    2  A    between atoms: C_2  and  C_3
REMARK    3  A    between atoms: C_2  and  N_11
REMARK    4  A    between atoms: C_3  and  O_4
REMARK    5  A    between atoms: O_4  and  C_5
REMARK    6  A    between atoms: N_11  and  C_12
REMARK    7  A    between atoms: C_12  and  C_13
REMARK    8  A    between atoms: C_12  and  C_14
REMARK    9  A    between atoms: C_14  and  O_15
REMARK   10  A    between atoms: C_14  and  C_16
REMARK   11  A    between atoms: C_19  and  O_20
REMARK                            x       y       z     vdW  Elec       q    Type
REMARK                         _______ _______ _______ _____ _____    ______ ____
ROOT
ATOM      1  C   UNL     1      -8.937   6.392 131.454  0.00  0.00    +0.000 C 
ATOM      2  C   UNL     1      -8.639   5.894 132.869  0.00  0.00    +0.000 C 
ENDROOT
BRANCH   1   3
ATOM      3  N   UNL     1      -7.981   5.967 130.392  0.00  0.00    +0.000 NA
ATOM      4  H   UNL     1      -8.339   5.186 129.842  0.00  0.00    +0.000 HD
BRANCH   3   6
ATOM      5  C   UNL     1      -5.856   7.085 130.966  0.00  0.00    +0.000 C 
ATOM      6  C   UNL     1      -6.578   5.745 130.785  0.00  0.00    +0.000 C 
BRANCH   6   7
ATOM      7  C   UNL     1      -5.812   4.887 129.768  0.00  0.00    +0.000 C 
BRANCH   7   8
ATOM      8  O   UNL     1      -5.131   5.642 128.784  0.00  0.00    +0.000 OA
BRANCH   8   9
ATOM      9  C   UNL     1      -4.405   4.885 127.905  0.00  0.00    +0.000 A 
ATOM     10  C   UNL     1      -3.183   4.482 128.415  0.00  0.00    +0.000 A 
ATOM     11  C   UNL     1      -2.299   3.761 127.622  0.00  0.00    +0.000 A 
ATOM     12  C   UNL     1      -2.658   3.406 126.320  0.00  0.00    +0.000 A 
ATOM     13  C   UNL     1      -3.884   3.802 125.801  0.00  0.00    +0.000 A 
ATOM     14  C   UNL     1      -4.755   4.555 126.586  0.00  0.00    +0.000 A 
ENDBRANCH   8   9
ENDBRANCH   7   8
ENDBRANCH   6   7
ENDBRANCH   3   6
ENDBRANCH   1   3
BRANCH   1  15
ATOM     15  C   UNL     1     -10.395   5.951 131.095  0.00  0.00    +0.000 C 
BRANCH  15  16
ATOM     16  C   UNL     1     -11.209   7.005 130.381  0.00  0.00    +0.000 A 
ATOM     17  C   UNL     1     -10.753   7.522 129.165  0.00  0.00    +0.000 A 
ATOM     18  C   UNL     1     -11.415   8.594 128.563  0.00  0.00    +0.000 A 
ATOM     19  C   UNL     1     -12.571   9.106 129.156  0.00  0.00    +0.000 A 
ATOM     20  C   UNL     1     -13.057   8.585 130.335  0.00  0.00    +0.000 A 
ATOM     21  C   UNL     1     -12.391   7.530 130.937  0.00  0.00    +0.000 A 
BRANCH  19  22
ATOM     22  O   UNL     1     -13.270  10.131 128.594  0.00  0.00    +0.000 OA
ATOM     23  H   UNL     1     -13.378   9.939 127.651  0.00  0.00    +0.000 HD
ENDBRANCH  19  22
ENDBRANCH  15  16
BRANCH  15  24
ATOM     24  O   UNL     1     -11.113   5.564 132.272  0.00  0.00    +0.000 OA
ATOM     25  H   UNL     1     -10.516   4.992 132.784  0.00  0.00    +0.000 HD
ENDBRANCH  15  24
ENDBRANCH   1  15
TORSDOF 9
ENDMDL
MODEL 7
REMARK VINA RESULT:      -6.7      3.103      5.337
REMARK  Name = Isoxsuprine
REMARK  11 active torsions:
REMARK  status: ('A' for Active; 'I' for Inactive)
REMARK    1  A    between atoms: C_1  and  C_2
REMARK    2  A    between atoms: C_2  and  C_3
REMARK    3  A    between atoms: C_2  and  N_11
REMARK    4  A    between atoms: C_3  and  O_4
REMARK    5  A    between atoms: O_4  and  C_5
REMARK    6  A    between atoms: N_11  and  C_12
REMARK    7  A    between atoms: C_12  and  C_13
REMARK    8  A    between atoms: C_12  and  C_14
REMARK    9  A    between atoms: C_14  and  O_15
REMARK   10  A    between atoms: C_14  and  C_16
REMARK   11  A    between atoms: C_19  and  O_20
REMARK                            x       y       z     vdW  Elec       q    Type
REMARK                         _______ _______ _______ _____ _____    ______ ____
ROOT
ATOM      1  C   UNL     1      -8.789   1.956 123.619  0.00  0.00    +0.000 C 
ATOM      2  C   UNL     1      -9.111   2.464 122.213  0.00  0.00    +0.000 C 
ENDROOT
BRANCH   1   3
ATOM      3  N   UNL     1      -9.162   2.858 124.747  0.00  0.00    +0.000 NA
ATOM      4  H   UNL     1      -9.751   3.632 124.441  0.00  0.00    +0.000 HD
BRANCH   3   6
ATOM      5  C   UNL     1      -6.797   3.561 124.829  0.00  0.00    +0.000 C 
ATOM      6  C   UNL     1      -8.081   3.325 125.633  0.00  0.00    +0.000 C 
BRANCH   6   7
ATOM      7  C   UNL     1      -7.792   2.342 126.776  0.00  0.00    +0.000 C 
BRANCH   7   8
ATOM      8  O   UNL     1      -6.613   1.582 126.589  0.00  0.00    +0.000 OA
BRANCH   8   9
ATOM      9  C   UNL     1      -6.725   0.276 126.981  0.00  0.00    +0.000 A 
ATOM     10  C   UNL     1      -5.526  -0.413 126.926  0.00  0.00    +0.000 A 
ATOM     11  C   UNL     1      -5.485  -1.768 127.230  0.00  0.00    +0.000 A 
ATOM     12  C   UNL     1      -6.648  -2.431 127.632  0.00  0.00    +0.000 A 
ATOM     13  C   UNL     1      -7.854  -1.746 127.695  0.00  0.00    +0.000 A 
ATOM     14  C   UNL     1      -7.900  -0.395 127.356  0.00  0.00    +0.000 A 
ENDBRANCH   8   9
ENDBRANCH   7   8
ENDBRANCH   6   7
ENDBRANCH   3   6
ENDBRANCH   1   3
BRANCH   1  15
ATOM     15  C   UNL     1      -9.468   0.556 123.782  0.00  0.00    +0.000 C 
BRANCH  15  16
ATOM     16  C   UNL     1      -8.511  -0.613 123.741  0.00  0.00    +0.000 A 
ATOM     17  C   UNL     1      -8.971  -1.892 124.068  0.00  0.00    +0.000 A 
ATOM     18  C   UNL     1      -8.074  -2.957 124.175  0.00  0.00    +0.000 A 
ATOM     19  C   UNL     1      -6.722  -2.744 123.894  0.00  0.00    +0.000 A 
ATOM     20  C   UNL     1      -6.257  -1.500 123.534  0.00  0.00    +0.000 A 
ATOM     21  C   UNL     1      -7.147  -0.441 123.442  0.00  0.00    +0.000 A 
BRANCH  19  22
ATOM     22  O   UNL     1      -5.812  -3.755 123.955  0.00  0.00    +0.000 OA
ATOM     23  H   UNL     1      -5.065  -3.523 123.384  0.00  0.00    +0.000 HD
ENDBRANCH  19  22
ENDBRANCH  15  16
BRANCH  15  24
ATOM     24  O   UNL     1     -10.457   0.349 122.767  0.00  0.00    +0.000 OA
ATOM     25  H   UNL     1     -10.908  -0.484 122.986  0.00  0.00    +0.000 HD
ENDBRANCH  15  24
ENDBRANCH   1  15
TORSDOF 9
ENDMDL
MODEL 8
REMARK VINA RESULT:      -6.7      7.663     10.002
REMARK  Name = Isoxsuprine
REMARK  11 active torsions:
REMARK  status: ('A' for Active; 'I' for Inactive)
REMARK    1  A    between atoms: C_1  and  C_2
REMARK    2  A    between atoms: C_2  and  C_3
REMARK    3  A    between atoms: C_2  and  N_11
REMARK    4  A    between atoms: C_3  and  O_4
REMARK    5  A    between atoms: O_4  and  C_5
REMARK    6  A    between atoms: N_11  and  C_12
REMARK    7  A    between atoms: C_12  and  C_13
REMARK    8  A    between atoms: C_12  and  C_14
REMARK    9  A    between atoms: C_14  and  O_15
REMARK   10  A    between atoms: C_14  and  C_16
REMARK   11  A    between atoms: C_19  and  O_20
REMARK                            x       y       z     vdW  Elec       q    Type
REMARK                         _______ _______ _______ _____ _____    ______ ____
ROOT
ATOM      1  C   UNL     1      -8.192   5.508 131.620  0.00  0.00    +0.000 C 
ATOM      2  C   UNL     1      -7.357   5.755 132.878  0.00  0.00    +0.000 C 
ENDROOT
BRANCH   1   3
ATOM      3  N   UNL     1      -8.054   4.164 130.992  0.00  0.00    +0.000 NA
ATOM      4  H   UNL     1      -7.479   3.534 131.552  0.00  0.00    +0.000 HD
BRANCH   3   6
ATOM      5  C   UNL     1      -8.333   2.908 128.885  0.00  0.00    +0.000 C 
ATOM      6  C   UNL     1      -7.673   4.111 129.569  0.00  0.00    +0.000 C 
BRANCH   6   7
ATOM      7  C   UNL     1      -6.152   4.038 129.371  0.00  0.00    +0.000 C 
BRANCH   7   8
ATOM      8  O   UNL     1      -5.661   4.938 128.396  0.00  0.00    +0.000 OA
BRANCH   8   9
ATOM      9  C   UNL     1      -4.414   5.431 128.671  0.00  0.00    +0.000 A 
ATOM     10  C   UNL     1      -3.938   5.045 129.912  0.00  0.00    +0.000 A 
ATOM     11  C   UNL     1      -2.714   5.517 130.368  0.00  0.00    +0.000 A 
ATOM     12  C   UNL     1      -1.939   6.349 129.557  0.00  0.00    +0.000 A 
ATOM     13  C   UNL     1      -2.405   6.737 128.308  0.00  0.00    +0.000 A 
ATOM     14  C   UNL     1      -3.650   6.291 127.867  0.00  0.00    +0.000 A 
ENDBRANCH   8   9
ENDBRANCH   7   8
ENDBRANCH   6   7
ENDBRANCH   3   6
ENDBRANCH   1   3
BRANCH   1  15
ATOM     15  C   UNL     1      -9.687   5.800 131.981  0.00  0.00    +0.000 C 
BRANCH  15  16
ATOM     16  C   UNL     1     -10.388   6.741 131.030  0.00  0.00    +0.000 A 
ATOM     17  C   UNL     1     -11.755   6.991 131.190  0.00  0.00    +0.000 A 
ATOM     18  C   UNL     1     -12.449   7.742 130.239  0.00  0.00    +0.000 A 
ATOM     19  C   UNL     1     -11.754   8.291 129.160  0.00  0.00    +0.000 A 
ATOM     20  C   UNL     1     -10.402   8.088 129.005  0.00  0.00    +0.000 A 
ATOM     21  C   UNL     1      -9.717   7.330 129.942  0.00  0.00    +0.000 A 
BRANCH  19  22
ATOM     22  O   UNL     1     -12.380   9.056 128.222  0.00  0.00    +0.000 OA
ATOM     23  H   UNL     1     -12.483   8.523 127.420  0.00  0.00    +0.000 HD
ENDBRANCH  19  22
ENDBRANCH  15  16
BRANCH  15  24
ATOM     24  O   UNL     1      -9.793   6.348 133.300  0.00  0.00    +0.000 OA
ATOM     25  H   UNL     1     -10.247   5.680 133.842  0.00  0.00    +0.000 HD
ENDBRANCH  15  24
ENDBRANCH   1  15
TORSDOF 9
ENDMDL
MODEL 9
REMARK VINA RESULT:      -6.6      3.637      7.514
REMARK  Name = Isoxsuprine
REMARK  11 active torsions:
REMARK  status: ('A' for Active; 'I' for Inactive)
REMARK    1  A    between atoms: C_1  and  C_2
REMARK    2  A    between atoms: C_2  and  C_3
REMARK    3  A    between atoms: C_2  and  N_11
REMARK    4  A    between atoms: C_3  and  O_4
REMARK    5  A    between atoms: O_4  and  C_5
REMARK    6  A    between atoms: N_11  and  C_12
REMARK    7  A    between atoms: C_12  and  C_13
REMARK    8  A    between atoms: C_12  and  C_14
REMARK    9  A    between atoms: C_14  and  O_15
REMARK   10  A    between atoms: C_14  and  C_16
REMARK   11  A    between atoms: C_19  and  O_20
REMARK                            x       y       z     vdW  Elec       q    Type
REMARK                         _______ _______ _______ _____ _____    ______ ____
ROOT
ATOM      1  C   UNL     1      -7.306   0.297 126.913  0.00  0.00    +0.000 C 
ATOM      2  C   UNL     1      -7.015   0.907 128.285  0.00  0.00    +0.000 C 
ENDROOT
BRANCH   1   3
ATOM      3  N   UNL     1      -7.362   1.249 125.767  0.00  0.00    +0.000 NA
ATOM      4  H   UNL     1      -7.086   2.193 126.037  0.00  0.00    +0.000 HD
BRANCH   3   6
ATOM      5  C   UNL     1      -9.705   0.479 125.654  0.00  0.00    +0.000 C 
ATOM      6  C   UNL     1      -8.591   1.266 124.953  0.00  0.00    +0.000 C 
BRANCH   6   7
ATOM      7  C   UNL     1      -8.370   0.692 123.546  0.00  0.00    +0.000 C 
BRANCH   7   8
ATOM      8  O   UNL     1      -8.832  -0.637 123.394  0.00  0.00    +0.000 OA
BRANCH   8   9
ATOM      9  C   UNL     1      -7.855  -1.585 123.534  0.00  0.00    +0.000 A 
ATOM     10  C   UNL     1      -8.283  -2.712 124.213  0.00  0.00    +0.000 A 
ATOM     11  C   UNL     1      -7.391  -3.739 124.494  0.00  0.00    +0.000 A 
ATOM     12  C   UNL     1      -6.067  -3.655 124.056  0.00  0.00    +0.000 A 
ATOM     13  C   UNL     1      -5.629  -2.530 123.369  0.00  0.00    +0.000 A 
ATOM     14  C   UNL     1      -6.517  -1.485 123.118  0.00  0.00    +0.000 A 
ENDBRANCH   8   9
ENDBRANCH   7   8
ENDBRANCH   6   7
ENDBRANCH   3   6
ENDBRANCH   1   3
BRANCH   1  15
ATOM     15  C   UNL     1      -6.237  -0.816 126.654  0.00  0.00    +0.000 C 
BRANCH  15  16
ATOM     16  C   UNL     1      -6.182  -1.890 127.716  0.00  0.00    +0.000 A 
ATOM     17  C   UNL     1      -7.363  -2.520 128.122  0.00  0.00    +0.000 A 
ATOM     18  C   UNL     1      -7.352  -3.409 129.199  0.00  0.00    +0.000 A 
ATOM     19  C   UNL     1      -6.142  -3.708 129.828  0.00  0.00    +0.000 A 
ATOM     20  C   UNL     1      -4.963  -3.127 129.419  0.00  0.00    +0.000 A 
ATOM     21  C   UNL     1      -4.978  -2.234 128.359  0.00  0.00    +0.000 A 
BRANCH  19  22
ATOM     22  O   UNL     1      -6.074  -4.591 130.863  0.00  0.00    +0.000 OA
ATOM     23  H   UNL     1      -6.509  -5.411 130.588  0.00  0.00    +0.000 HD
ENDBRANCH  19  22
ENDBRANCH  15  16
BRANCH  15  24
ATOM     24  O   UNL     1      -4.928  -0.247 126.537  0.00  0.00    +0.000 OA
ATOM     25  H   UNL     1      -4.912   0.532 127.119  0.00  0.00    +0.000 HD
ENDBRANCH  15  24
ENDBRANCH   1  15
TORSDOF 9
ENDMDL
