MODEL 1
REMARK VINA RESULT:      -8.2      0.000      0.000
REMARK  Name = Isoxaflutole
REMARK  6 active torsions:
REMARK  status: ('A' for Active; 'I' for Inactive)
REMARK    1  A    between atoms: C_5  and  C_29
REMARK    2  A    between atoms: C_6  and  C_7
REMARK    3  A    between atoms: C_7  and  C_9
REMARK    4  A    between atoms: C_10  and  S_22
REMARK    5  A    between atoms: C_13  and  C_18
REMARK    6  A    between atoms: S_22  and  C_25
REMARK                            x       y       z     vdW  Elec       q    Type
REMARK                         _______ _______ _______ _____ _____    ______ ____
ROOT
ATOM      1  C   UNL     1      -7.379  -0.969 123.738  0.00  0.00    +0.000 A 
ATOM      2  C   UNL     1      -7.321  -1.761 124.900  0.00  0.00    +0.000 A 
ATOM      3  C   UNL     1      -6.393  -2.842 124.958  0.00  0.00    +0.000 A 
ATOM      4  C   UNL     1      -5.617  -3.214 123.838  0.00  0.00    +0.000 A 
ATOM      5  C   UNL     1      -5.658  -2.388 122.704  0.00  0.00    +0.000 A 
ATOM      6  C   UNL     1      -6.477  -1.237 122.675  0.00  0.00    +0.000 A 
ENDROOT
BRANCH   4   7
ATOM      7  C   UNL     1      -4.821  -4.510 123.831  0.00  0.00    +0.000 C 
ATOM      8  F   UNL     1      -4.188  -4.714 122.647  0.00  0.00    +0.000 F 
ATOM      9  F   UNL     1      -3.856  -4.551 124.791  0.00  0.00    +0.000 F 
ATOM     10  F   UNL     1      -5.589  -5.616 124.044  0.00  0.00    +0.000 F 
ENDBRANCH   4   7
BRANCH   2  11
ATOM     11  S   UNL     1      -8.496  -1.705 126.252  0.00  0.00    +0.000 S 
ATOM     12  O   UNL     1      -8.327  -0.372 126.832  0.00  0.00    +0.000 OA
ATOM     13  O   UNL     1      -9.760  -2.102 125.692  0.00  0.00    +0.000 OA
ATOM     14  C   UNL     1      -8.093  -2.831 127.549  0.00  0.00    +0.000 C 
ENDBRANCH   2  11
BRANCH   1  15
ATOM     15  C   UNL     1      -8.454   0.003 123.459  0.00  0.00    +0.000 C 
ATOM     16  O   UNL     1      -9.464  -0.511 123.008  0.00  0.00    +0.000 OA
BRANCH  15  21
ATOM     17  C   UNL     1      -9.208   2.086 124.663  0.00  0.00    +0.000 A 
ATOM     18  N   UNL     1      -8.966   3.380 124.828  0.00  0.00    +0.000 NA
ATOM     19  O   UNL     1      -7.966   3.666 123.939  0.00  0.00    +0.000 OA
ATOM     20  C   UNL     1      -7.643   2.564 123.186  0.00  0.00    +0.000 A 
ATOM     21  C   UNL     1      -8.373   1.468 123.668  0.00  0.00    +0.000 A 
BRANCH  20  22
ATOM     22  C   UNL     1      -6.530   2.779 122.153  0.00  0.00    +0.000 C 
ATOM     23  C   UNL     1      -6.865   3.693 121.056  0.00  0.00    +0.000 C 
ATOM     24  C   UNL     1      -5.692   4.027 121.846  0.00  0.00    +0.000 C 
ENDBRANCH  20  22
ENDBRANCH  15  21
ENDBRANCH   1  15
TORSDOF 5
ENDMDL
MODEL 2
REMARK VINA RESULT:      -7.8      2.096      3.201
REMARK  Name = Isoxaflutole
REMARK  6 active torsions:
REMARK  status: ('A' for Active; 'I' for Inactive)
REMARK    1  A    between atoms: C_5  and  C_29
REMARK    2  A    between atoms: C_6  and  C_7
REMARK    3  A    between atoms: C_7  and  C_9
REMARK    4  A    between atoms: C_10  and  S_22
REMARK    5  A    between atoms: C_13  and  C_18
REMARK    6  A    between atoms: S_22  and  C_25
REMARK                            x       y       z     vdW  Elec       q    Type
REMARK                         _______ _______ _______ _____ _____    ______ ____
ROOT
ATOM      1  C   UNL     1      -7.377   0.971 125.155  0.00  0.00    +0.000 A 
ATOM      2  C   UNL     1      -8.151   0.128 124.336  0.00  0.00    +0.000 A 
ATOM      3  C   UNL     1      -7.628  -1.142 123.955  0.00  0.00    +0.000 A 
ATOM      4  C   UNL     1      -6.308  -1.527 124.278  0.00  0.00    +0.000 A 
ATOM      5  C   UNL     1      -5.568  -0.693 125.129  0.00  0.00    +0.000 A 
ATOM      6  C   UNL     1      -6.117   0.512 125.622  0.00  0.00    +0.000 A 
ENDROOT
BRANCH   4   7
ATOM      7  C   UNL     1      -5.680  -2.767 123.661  0.00  0.00    +0.000 C 
ATOM      8  F   UNL     1      -6.425  -3.881 123.878  0.00  0.00    +0.000 F 
ATOM      9  F   UNL     1      -5.520  -2.672 122.311  0.00  0.00    +0.000 F 
ATOM     10  F   UNL     1      -4.437  -3.043 124.151  0.00  0.00    +0.000 F 
ENDBRANCH   4   7
BRANCH   2  11
ATOM     11  S   UNL     1      -9.661   0.604 123.494  0.00  0.00    +0.000 S 
ATOM     12  O   UNL     1      -9.930  -0.498 122.569  0.00  0.00    +0.000 OA
ATOM     13  O   UNL     1     -10.602   0.932 124.531  0.00  0.00    +0.000 OA
ATOM     14  C   UNL     1      -9.450   2.027 122.474  0.00  0.00    +0.000 C 
ENDBRANCH   2  11
BRANCH   1  15
ATOM     15  C   UNL     1      -7.693   2.391 125.406  0.00  0.00    +0.000 C 
ATOM     16  O   UNL     1      -8.626   2.549 126.176  0.00  0.00    +0.000 OA
BRANCH  15  21
ATOM     17  C   UNL     1      -6.815   4.747 125.585  0.00  0.00    +0.000 A 
ATOM     18  N   UNL     1      -6.087   5.673 124.974  0.00  0.00    +0.000 NA
ATOM     19  O   UNL     1      -5.769   5.126 123.761  0.00  0.00    +0.000 OA
ATOM     20  C   UNL     1      -6.357   3.895 123.605  0.00  0.00    +0.000 A 
ATOM     21  C   UNL     1      -6.998   3.554 124.805  0.00  0.00    +0.000 A 
BRANCH  20  22
ATOM     22  C   UNL     1      -6.065   3.193 122.273  0.00  0.00    +0.000 C 
ATOM     23  C   UNL     1      -6.611   3.858 121.085  0.00  0.00    +0.000 C 
ATOM     24  C   UNL     1      -5.176   3.626 121.099  0.00  0.00    +0.000 C 
ENDBRANCH  20  22
ENDBRANCH  15  21
ENDBRANCH   1  15
TORSDOF 5
ENDMDL
MODEL 3
REMARK VINA RESULT:      -7.7      4.138      6.219
REMARK  Name = Isoxaflutole
REMARK  6 active torsions:
REMARK  status: ('A' for Active; 'I' for Inactive)
REMARK    1  A    between atoms: C_5  and  C_29
REMARK    2  A    between atoms: C_6  and  C_7
REMARK    3  A    between atoms: C_7  and  C_9
REMARK    4  A    between atoms: C_10  and  S_22
REMARK    5  A    between atoms: C_13  and  C_18
REMARK    6  A    between atoms: S_22  and  C_25
REMARK                            x       y       z     vdW  Elec       q    Type
REMARK                         _______ _______ _______ _____ _____    ______ ____
ROOT
ATOM      1  C   UNL     1      -7.655   2.583 124.416  0.00  0.00    +0.000 A 
ATOM      2  C   UNL     1      -6.394   3.130 124.721  0.00  0.00    +0.000 A 
ATOM      3  C   UNL     1      -5.653   3.783 123.693  0.00  0.00    +0.000 A 
ATOM      4  C   UNL     1      -6.095   3.791 122.352  0.00  0.00    +0.000 A 
ATOM      5  C   UNL     1      -7.372   3.278 122.075  0.00  0.00    +0.000 A 
ATOM      6  C   UNL     1      -8.176   2.741 123.105  0.00  0.00    +0.000 A 
ENDROOT
BRANCH   4   7
ATOM      7  C   UNL     1      -5.187   4.269 121.229  0.00  0.00    +0.000 C 
ATOM      8  F   UNL     1      -4.565   3.238 120.601  0.00  0.00    +0.000 F 
ATOM      9  F   UNL     1      -5.850   4.962 120.262  0.00  0.00    +0.000 F 
ATOM     10  F   UNL     1      -4.196   5.104 121.655  0.00  0.00    +0.000 F 
ENDBRANCH   4   7
BRANCH   2  11
ATOM     11  S   UNL     1      -5.491   2.864 126.247  0.00  0.00    +0.000 S 
ATOM     12  O   UNL     1      -6.264   3.582 127.262  0.00  0.00    +0.000 OA
ATOM     13  O   UNL     1      -5.297   1.442 126.347  0.00  0.00    +0.000 OA
ATOM     14  C   UNL     1      -3.904   3.635 126.239  0.00  0.00    +0.000 C 
ENDBRANCH   2  11
BRANCH   1  15
ATOM     15  C   UNL     1      -8.396   1.674 125.313  0.00  0.00    +0.000 C 
ATOM     16  O   UNL     1      -8.997   2.258 126.200  0.00  0.00    +0.000 OA
BRANCH  15  21
ATOM     17  C   UNL     1      -9.490  -0.528 125.866  0.00  0.00    +0.000 A 
ATOM     18  N   UNL     1      -9.474  -1.831 125.612  0.00  0.00    +0.000 NA
ATOM     19  O   UNL     1      -8.399  -2.014 124.786  0.00  0.00    +0.000 OA
ATOM     20  C   UNL     1      -7.720  -0.837 124.590  0.00  0.00    +0.000 A 
ATOM     21  C   UNL     1      -8.434   0.196 125.212  0.00  0.00    +0.000 A 
BRANCH  20  22
ATOM     22  C   UNL     1      -6.491  -0.934 123.677  0.00  0.00    +0.000 C 
ATOM     23  C   UNL     1      -5.768  -2.209 123.737  0.00  0.00    +0.000 C 
ATOM     24  C   UNL     1      -6.249  -1.795 122.430  0.00  0.00    +0.000 C 
ENDBRANCH  20  22
ENDBRANCH  15  21
ENDBRANCH   1  15
TORSDOF 5
ENDMDL
MODEL 4
REMARK VINA RESULT:      -7.7      1.270      1.705
REMARK  Name = Isoxaflutole
REMARK  6 active torsions:
REMARK  status: ('A' for Active; 'I' for Inactive)
REMARK    1  A    between atoms: C_5  and  C_29
REMARK    2  A    between atoms: C_6  and  C_7
REMARK    3  A    between atoms: C_7  and  C_9
REMARK    4  A    between atoms: C_10  and  S_22
REMARK    5  A    between atoms: C_13  and  C_18
REMARK    6  A    between atoms: S_22  and  C_25
REMARK                            x       y       z     vdW  Elec       q    Type
REMARK                         _______ _______ _______ _____ _____    ______ ____
ROOT
ATOM      1  C   UNL     1      -7.429  -1.146 123.702  0.00  0.00    +0.000 A 
ATOM      2  C   UNL     1      -7.406  -1.975 124.839  0.00  0.00    +0.000 A 
ATOM      3  C   UNL     1      -6.454  -3.033 124.908  0.00  0.00    +0.000 A 
ATOM      4  C   UNL     1      -5.616  -3.349 123.816  0.00  0.00    +0.000 A 
ATOM      5  C   UNL     1      -5.625  -2.487 122.708  0.00  0.00    +0.000 A 
ATOM      6  C   UNL     1      -6.471  -1.356 122.675  0.00  0.00    +0.000 A 
ENDROOT
BRANCH   4   7
ATOM      7  C   UNL     1      -4.787  -4.624 123.805  0.00  0.00    +0.000 C 
ATOM      8  F   UNL     1      -4.170  -4.822 122.613  0.00  0.00    +0.000 F 
ATOM      9  F   UNL     1      -3.805  -4.632 124.750  0.00  0.00    +0.000 F 
ATOM     10  F   UNL     1      -5.523  -5.748 124.041  0.00  0.00    +0.000 F 
ENDBRANCH   4   7
BRANCH   2  11
ATOM     11  S   UNL     1      -8.646  -1.992 126.134  0.00  0.00    +0.000 S 
ATOM     12  O   UNL     1      -8.721  -0.603 126.591  0.00  0.00    +0.000 OA
ATOM     13  O   UNL     1      -9.799  -2.636 125.566  0.00  0.00    +0.000 OA
ATOM     14  C   UNL     1      -8.139  -2.919 127.547  0.00  0.00    +0.000 C 
ENDBRANCH   2  11
BRANCH   1  15
ATOM     15  C   UNL     1      -8.515  -0.191 123.402  0.00  0.00    +0.000 C 
ATOM     16  O   UNL     1      -9.562  -0.734 123.092  0.00  0.00    +0.000 OA
BRANCH  15  21
ATOM     17  C   UNL     1      -9.030   2.067 122.407  0.00  0.00    +0.000 A 
ATOM     18  N   UNL     1      -8.951   3.376 122.611  0.00  0.00    +0.000 NA
ATOM     19  O   UNL     1      -8.261   3.506 123.785  0.00  0.00    +0.000 OA
ATOM     20  C   UNL     1      -7.862   2.283 124.263  0.00  0.00    +0.000 A 
ATOM     21  C   UNL     1      -8.405   1.286 123.440  0.00  0.00    +0.000 A 
BRANCH  20  22
ATOM     22  C   UNL     1      -7.076   2.318 125.580  0.00  0.00    +0.000 C 
ATOM     23  C   UNL     1      -5.933   1.402 125.649  0.00  0.00    +0.000 C 
ATOM     24  C   UNL     1      -5.653   2.811 125.871  0.00  0.00    +0.000 C 
ENDBRANCH  20  22
ENDBRANCH  15  21
ENDBRANCH   1  15
TORSDOF 5
ENDMDL
MODEL 5
REMARK VINA RESULT:      -7.5      2.617      3.661
REMARK  Name = Isoxaflutole
REMARK  6 active torsions:
REMARK  status: ('A' for Active; 'I' for Inactive)
REMARK    1  A    between atoms: C_5  and  C_29
REMARK    2  A    between atoms: C_6  and  C_7
REMARK    3  A    between atoms: C_7  and  C_9
REMARK    4  A    between atoms: C_10  and  S_22
REMARK    5  A    between atoms: C_13  and  C_18
REMARK    6  A    between atoms: S_22  and  C_25
REMARK                            x       y       z     vdW  Elec       q    Type
REMARK                         _______ _______ _______ _____ _____    ______ ____
ROOT
ATOM      1  C   UNL     1      -7.619   0.589 125.680  0.00  0.00    +0.000 A 
ATOM      2  C   UNL     1      -8.219   0.024 124.539  0.00  0.00    +0.000 A 
ATOM      3  C   UNL     1      -7.592  -1.086 123.902  0.00  0.00    +0.000 A 
ATOM      4  C   UNL     1      -6.325  -1.558 124.312  0.00  0.00    +0.000 A 
ATOM      5  C   UNL     1      -5.763  -1.011 125.476  0.00  0.00    +0.000 A 
ATOM      6  C   UNL     1      -6.432   0.005 126.196  0.00  0.00    +0.000 A 
ENDROOT
BRANCH   4   7
ATOM      7  C   UNL     1      -5.558  -2.572 123.478  0.00  0.00    +0.000 C 
ATOM      8  F   UNL     1      -4.229  -2.561 123.755  0.00  0.00    +0.000 F 
ATOM      9  F   UNL     1      -5.978  -3.854 123.673  0.00  0.00    +0.000 F 
ATOM     10  F   UNL     1      -5.665  -2.358 122.135  0.00  0.00    +0.000 F 
ENDBRANCH   4   7
BRANCH   2  11
ATOM     11  S   UNL     1      -9.594   0.733 123.634  0.00  0.00    +0.000 S 
ATOM     12  O   UNL     1      -9.913  -0.263 122.609  0.00  0.00    +0.000 OA
ATOM     13  O   UNL     1     -10.570   1.099 124.625  0.00  0.00    +0.000 OA
ATOM     14  C   UNL     1      -9.143   2.188 122.744  0.00  0.00    +0.000 C 
ENDBRANCH   2  11
BRANCH   1  15
ATOM     15  C   UNL     1      -8.027   1.878 126.271  0.00  0.00    +0.000 C 
ATOM     16  O   UNL     1      -8.879   1.763 127.137  0.00  0.00    +0.000 OA
BRANCH  15  21
ATOM     17  C   UNL     1      -8.419   4.318 125.774  0.00  0.00    +0.000 A 
ATOM     18  N   UNL     1      -7.818   5.476 125.530  0.00  0.00    +0.000 NA
ATOM     19  O   UNL     1      -6.485   5.173 125.464  0.00  0.00    +0.000 OA
ATOM     20  C   UNL     1      -6.278   3.822 125.602  0.00  0.00    +0.000 A 
ATOM     21  C   UNL     1      -7.507   3.212 125.887  0.00  0.00    +0.000 A 
BRANCH  20  22
ATOM     22  C   UNL     1      -4.812   3.375 125.542  0.00  0.00    +0.000 C 
ATOM     23  C   UNL     1      -3.902   4.096 126.438  0.00  0.00    +0.000 C 
ATOM     24  C   UNL     1      -3.954   2.651 126.588  0.00  0.00    +0.000 C 
ENDBRANCH  20  22
ENDBRANCH  15  21
ENDBRANCH   1  15
TORSDOF 5
ENDMDL
MODEL 6
REMARK VINA RESULT:      -7.5      2.652      3.329
REMARK  Name = Isoxaflutole
REMARK  6 active torsions:
REMARK  status: ('A' for Active; 'I' for Inactive)
REMARK    1  A    between atoms: C_5  and  C_29
REMARK    2  A    between atoms: C_6  and  C_7
REMARK    3  A    between atoms: C_7  and  C_9
REMARK    4  A    between atoms: C_10  and  S_22
REMARK    5  A    between atoms: C_13  and  C_18
REMARK    6  A    between atoms: S_22  and  C_25
REMARK                            x       y       z     vdW  Elec       q    Type
REMARK                         _______ _______ _______ _____ _____    ______ ____
ROOT
ATOM      1  C   UNL     1      -8.197   1.082 124.455  0.00  0.00    +0.000 A 
ATOM      2  C   UNL     1      -7.668   0.231 125.444  0.00  0.00    +0.000 A 
ATOM      3  C   UNL     1      -7.805  -1.179 125.293  0.00  0.00    +0.000 A 
ATOM      4  C   UNL     1      -8.560  -1.742 124.240  0.00  0.00    +0.000 A 
ATOM      5  C   UNL     1      -9.043  -0.882 123.242  0.00  0.00    +0.000 A 
ATOM      6  C   UNL     1      -8.807   0.510 123.308  0.00  0.00    +0.000 A 
ENDROOT
BRANCH   4   7
ATOM      7  C   UNL     1      -8.906  -3.223 124.227  0.00  0.00    +0.000 C 
ATOM      8  F   UNL     1      -7.806  -4.003 124.065  0.00  0.00    +0.000 F 
ATOM      9  F   UNL     1      -9.507  -3.643 125.375  0.00  0.00    +0.000 F 
ATOM     10  F   UNL     1      -9.764  -3.568 123.225  0.00  0.00    +0.000 F 
ENDBRANCH   4   7
BRANCH   2  11
ATOM     11  S   UNL     1      -7.045   0.760 127.040  0.00  0.00    +0.000 S 
ATOM     12  O   UNL     1      -6.832  -0.483 127.783  0.00  0.00    +0.000 OA
ATOM     13  O   UNL     1      -5.943   1.641 126.760  0.00  0.00    +0.000 OA
ATOM     14  C   UNL     1      -8.242   1.659 127.973  0.00  0.00    +0.000 C 
ENDBRANCH   2  11
BRANCH   1  15
ATOM     15  C   UNL     1      -8.342   2.542 124.618  0.00  0.00    +0.000 C 
ATOM     16  O   UNL     1      -9.430   2.872 125.062  0.00  0.00    +0.000 OA
BRANCH  15  21
ATOM     17  C   UNL     1      -7.030   4.609 125.222  0.00  0.00    +0.000 A 
ATOM     18  N   UNL     1      -6.022   5.389 124.853  0.00  0.00    +0.000 NA
ATOM     19  O   UNL     1      -5.612   4.885 123.648  0.00  0.00    +0.000 OA
ATOM     20  C   UNL     1      -6.410   3.841 123.251  0.00  0.00    +0.000 A 
ATOM     21  C   UNL     1      -7.317   3.558 124.282  0.00  0.00    +0.000 A 
BRANCH  20  22
ATOM     22  C   UNL     1      -6.035   3.204 121.907  0.00  0.00    +0.000 C 
ATOM     23  C   UNL     1      -6.688   3.793 120.734  0.00  0.00    +0.000 C 
ATOM     24  C   UNL     1      -5.235   3.776 120.729  0.00  0.00    +0.000 C 
ENDBRANCH  20  22
ENDBRANCH  15  21
ENDBRANCH   1  15
TORSDOF 5
ENDMDL
MODEL 7
REMARK VINA RESULT:      -7.4      4.066      6.365
REMARK  Name = Isoxaflutole
REMARK  6 active torsions:
REMARK  status: ('A' for Active; 'I' for Inactive)
REMARK    1  A    between atoms: C_5  and  C_29
REMARK    2  A    between atoms: C_6  and  C_7
REMARK    3  A    between atoms: C_7  and  C_9
REMARK    4  A    between atoms: C_10  and  S_22
REMARK    5  A    between atoms: C_13  and  C_18
REMARK    6  A    between atoms: S_22  and  C_25
REMARK                            x       y       z     vdW  Elec       q    Type
REMARK                         _______ _______ _______ _____ _____    ______ ____
ROOT
ATOM      1  C   UNL     1      -8.126   2.190 123.964  0.00  0.00    +0.000 A 
ATOM      2  C   UNL     1      -6.842   2.524 124.432  0.00  0.00    +0.000 A 
ATOM      3  C   UNL     1      -5.979   3.298 123.603  0.00  0.00    +0.000 A 
ATOM      4  C   UNL     1      -6.331   3.637 122.279  0.00  0.00    +0.000 A 
ATOM      5  C   UNL     1      -7.630   3.333 121.844  0.00  0.00    +0.000 A 
ATOM      6  C   UNL     1      -8.546   2.677 122.698  0.00  0.00    +0.000 A 
ENDROOT
BRANCH   4   7
ATOM      7  C   UNL     1      -5.313   4.244 121.326  0.00  0.00    +0.000 C 
ATOM      8  F   UNL     1      -5.903   4.949 120.327  0.00  0.00    +0.000 F 
ATOM      9  F   UNL     1      -4.449   5.100 121.940  0.00  0.00    +0.000 F 
ATOM     10  F   UNL     1      -4.524   3.313 120.716  0.00  0.00    +0.000 F 
ENDBRANCH   4   7
BRANCH   2  11
ATOM     11  S   UNL     1      -6.066   1.846 125.901  0.00  0.00    +0.000 S 
ATOM     12  O   UNL     1      -6.964   2.217 126.996  0.00  0.00    +0.000 OA
ATOM     13  O   UNL     1      -5.808   0.463 125.606  0.00  0.00    +0.000 OA
ATOM     14  C   UNL     1      -4.528   2.624 126.276  0.00  0.00    +0.000 C 
ENDBRANCH   2  11
BRANCH   1  15
ATOM     15  C   UNL     1      -9.005   1.196 124.610  0.00  0.00    +0.000 C 
ATOM     16  O   UNL     1      -9.800   1.691 125.391  0.00  0.00    +0.000 OA
BRANCH  15  21
ATOM     17  C   UNL     1      -9.102  -0.785 123.053  0.00  0.00    +0.000 A 
ATOM     18  N   UNL     1      -8.943  -2.100 122.975  0.00  0.00    +0.000 NA
ATOM     19  O   UNL     1      -8.705  -2.502 124.261  0.00  0.00    +0.000 OA
ATOM     20  C   UNL     1      -8.784  -1.444 125.132  0.00  0.00    +0.000 A 
ATOM     21  C   UNL     1      -8.966  -0.269 124.389  0.00  0.00    +0.000 A 
BRANCH  20  22
ATOM     22  C   UNL     1      -8.534  -1.789 126.606  0.00  0.00    +0.000 C 
ATOM     23  C   UNL     1      -8.443  -3.222 126.904  0.00  0.00    +0.000 C 
ATOM     24  C   UNL     1      -7.302  -2.404 127.283  0.00  0.00    +0.000 C 
ENDBRANCH  20  22
ENDBRANCH  15  21
ENDBRANCH   1  15
TORSDOF 5
ENDMDL
MODEL 8
REMARK VINA RESULT:      -7.3      4.447      6.017
REMARK  Name = Isoxaflutole
REMARK  6 active torsions:
REMARK  status: ('A' for Active; 'I' for Inactive)
REMARK    1  A    between atoms: C_5  and  C_29
REMARK    2  A    between atoms: C_6  and  C_7
REMARK    3  A    between atoms: C_7  and  C_9
REMARK    4  A    between atoms: C_10  and  S_22
REMARK    5  A    between atoms: C_13  and  C_18
REMARK    6  A    between atoms: S_22  and  C_25
REMARK                            x       y       z     vdW  Elec       q    Type
REMARK                         _______ _______ _______ _____ _____    ______ ____
ROOT
ATOM      1  C   UNL     1      -8.292  -2.402 126.984  0.00  0.00    +0.000 A 
ATOM      2  C   UNL     1      -7.888  -1.143 127.466  0.00  0.00    +0.000 A 
ATOM      3  C   UNL     1      -7.533  -1.005 128.839  0.00  0.00    +0.000 A 
ATOM      4  C   UNL     1      -7.691  -2.068 129.756  0.00  0.00    +0.000 A 
ATOM      5  C   UNL     1      -8.055  -3.326 129.250  0.00  0.00    +0.000 A 
ATOM      6  C   UNL     1      -8.287  -3.513 127.869  0.00  0.00    +0.000 A 
ENDROOT
BRANCH   4   7
ATOM      7  C   UNL     1      -7.548  -1.841 131.253  0.00  0.00    +0.000 C 
ATOM      8  F   UNL     1      -8.451  -0.943 131.723  0.00  0.00    +0.000 F 
ATOM      9  F   UNL     1      -7.722  -2.977 131.986  0.00  0.00    +0.000 F 
ATOM     10  F   UNL     1      -6.321  -1.366 131.612  0.00  0.00    +0.000 F 
ENDBRANCH   4   7
BRANCH   2  11
ATOM     11  S   UNL     1      -8.016   0.401 126.563  0.00  0.00    +0.000 S 
ATOM     12  O   UNL     1      -6.891   0.374 125.626  0.00  0.00    +0.000 OA
ATOM     13  O   UNL     1      -9.369   0.462 126.079  0.00  0.00    +0.000 OA
ATOM     14  C   UNL     1      -7.735   1.811 127.586  0.00  0.00    +0.000 C 
ENDBRANCH   2  11
BRANCH   1  15
ATOM     15  C   UNL     1      -8.917  -2.616 125.664  0.00  0.00    +0.000 C 
ATOM     16  O   UNL     1     -10.087  -2.955 125.734  0.00  0.00    +0.000 OA
BRANCH  15  21
ATOM     17  C   UNL     1      -9.000  -2.003 123.221  0.00  0.00    +0.000 A 
ATOM     18  N   UNL     1      -8.263  -1.810 122.134  0.00  0.00    +0.000 NA
ATOM     19  O   UNL     1      -6.992  -2.151 122.508  0.00  0.00    +0.000 OA
ATOM     20  C   UNL     1      -6.963  -2.614 123.800  0.00  0.00    +0.000 A 
ATOM     21  C   UNL     1      -8.244  -2.468 124.352  0.00  0.00    +0.000 A 
BRANCH  20  22
ATOM     22  C   UNL     1      -5.580  -3.027 124.319  0.00  0.00    +0.000 C 
ATOM     23  C   UNL     1      -5.195  -4.412 124.031  0.00  0.00    +0.000 C 
ATOM     24  C   UNL     1      -4.298  -3.374 123.551  0.00  0.00    +0.000 C 
ENDBRANCH  20  22
ENDBRANCH  15  21
ENDBRANCH   1  15
TORSDOF 5
ENDMDL
MODEL 9
REMARK VINA RESULT:      -7.3      4.715      6.359
REMARK  Name = Isoxaflutole
REMARK  6 active torsions:
REMARK  status: ('A' for Active; 'I' for Inactive)
REMARK    1  A    between atoms: C_5  and  C_29
REMARK    2  A    between atoms: C_6  and  C_7
REMARK    3  A    between atoms: C_7  and  C_9
REMARK    4  A    between atoms: C_10  and  S_22
REMARK    5  A    between atoms: C_13  and  C_18
REMARK    6  A    between atoms: S_22  and  C_25
REMARK                            x       y       z     vdW  Elec       q    Type
REMARK                         _______ _______ _______ _____ _____    ______ ____
ROOT
ATOM      1  C   UNL     1      -6.749   3.784 125.806  0.00  0.00    +0.000 A 
ATOM      2  C   UNL     1      -6.438   4.005 127.161  0.00  0.00    +0.000 A 
ATOM      3  C   UNL     1      -5.074   4.152 127.545  0.00  0.00    +0.000 A 
ATOM      4  C   UNL     1      -4.020   3.962 126.625  0.00  0.00    +0.000 A 
ATOM      5  C   UNL     1      -4.350   3.784 125.273  0.00  0.00    +0.000 A 
ATOM      6  C   UNL     1      -5.699   3.763 124.852  0.00  0.00    +0.000 A 
ENDROOT
BRANCH   4   7
ATOM      7  C   UNL     1      -2.575   3.876 127.093  0.00  0.00    +0.000 C 
ATOM      8  F   UNL     1      -1.713   3.692 126.060  0.00  0.00    +0.000 F 
ATOM      9  F   UNL     1      -2.155   4.995 127.746  0.00  0.00    +0.000 F 
ATOM     10  F   UNL     1      -2.349   2.847 127.960  0.00  0.00    +0.000 F 
ENDBRANCH   4   7
BRANCH   2  11
ATOM     11  S   UNL     1      -7.594   3.869 128.525  0.00  0.00    +0.000 S 
ATOM     12  O   UNL     1      -8.566   4.939 128.292  0.00  0.00    +0.000 OA
ATOM     13  O   UNL     1      -8.014   2.494 128.549  0.00  0.00    +0.000 OA
ATOM     14  C   UNL     1      -6.854   4.245 130.082  0.00  0.00    +0.000 C 
ENDBRANCH   2  11
BRANCH   1  15
ATOM     15  C   UNL     1      -8.082   3.369 125.326  0.00  0.00    +0.000 C 
ATOM     16  O   UNL     1      -8.843   4.306 125.147  0.00  0.00    +0.000 OA
BRANCH  15  21
ATOM     17  C   UNL     1      -9.686   1.733 124.274  0.00  0.00    +0.000 A 
ATOM     18  N   UNL     1      -9.911   0.446 124.041  0.00  0.00    +0.000 NA
ATOM     19  O   UNL     1      -8.904  -0.210 124.695  0.00  0.00    +0.000 OA
ATOM     20  C   UNL     1      -8.104   0.670 125.381  0.00  0.00    +0.000 A 
ATOM     21  C   UNL     1      -8.520   1.974 125.081  0.00  0.00    +0.000 A 
BRANCH  20  22
ATOM     22  C   UNL     1      -6.941   0.034 126.153  0.00  0.00    +0.000 C 
ATOM     23  C   UNL     1      -6.019  -0.768 125.342  0.00  0.00    +0.000 C 
ATOM     24  C   UNL     1      -5.436   0.329 126.097  0.00  0.00    +0.000 C 
ENDBRANCH  20  22
ENDBRANCH  15  21
ENDBRANCH   1  15
TORSDOF 5
ENDMDL
