MODEL 1
REMARK VINA RESULT:      -7.9      0.000      0.000
REMARK  Name = Isoxicam
REMARK  4 active torsions:
REMARK  status: ('A' for Active; 'I' for Inactive)
REMARK    1  A    between atoms: C_1  and  N_2
REMARK    2  A    between atoms: C_3  and  C_4
REMARK    3  A    between atoms: C_10  and  C_11
REMARK    4  A    between atoms: C_13  and  O_14
REMARK                            x       y       z     vdW  Elec       q    Type
REMARK                         _______ _______ _______ _____ _____    ______ ____
ROOT
ATOM      1  C   UNL     1      -9.620  -0.056 125.753  0.00  0.00    +0.000 C 
ATOM      2  N   UNL     1      -8.546  -0.923 125.214  0.00  0.00    +0.000 N 
ATOM      3  C   UNL     1      -7.173  -0.415 125.279  0.00  0.00    +0.000 C 
ATOM      4  C   UNL     1      -6.419  -0.785 126.342  0.00  0.00    +0.000 C 
ATOM      5  C   UNL     1      -6.908  -1.672 127.423  0.00  0.00    +0.000 A 
ATOM      6  C   UNL     1      -7.985  -2.536 127.240  0.00  0.00    +0.000 A 
ATOM      7  C   UNL     1      -8.483  -3.332 128.276  0.00  0.00    +0.000 A 
ATOM      8  C   UNL     1      -7.836  -3.310 129.513  0.00  0.00    +0.000 A 
ATOM      9  C   UNL     1      -6.720  -2.498 129.705  0.00  0.00    +0.000 A 
ATOM     10  C   UNL     1      -6.271  -1.677 128.672  0.00  0.00    +0.000 A 
ATOM     11  S   UNL     1      -8.700  -2.568 125.635  0.00  0.00    +0.000 S 
ATOM     12  O   UNL     1     -10.102  -2.887 125.782  0.00  0.00    +0.000 OA
ATOM     13  O   UNL     1      -7.818  -3.359 124.796  0.00  0.00    +0.000 OA
ENDROOT
BRANCH   3  14
ATOM     14  C   UNL     1      -6.772   0.528 124.154  0.00  0.00    +0.000 C 
ATOM     15  O   UNL     1      -6.558   0.065 123.032  0.00  0.00    +0.000 OA
ATOM     16  N   UNL     1      -6.640   1.872 124.452  0.00  0.00    +0.000 N 
ATOM     17  C   UNL     1      -6.321   2.804 123.484  0.00  0.00    +0.000 A 
ATOM     18  N   UNL     1      -5.609   3.892 123.795  0.00  0.00    +0.000 NA
ATOM     19  O   UNL     1      -5.414   4.566 122.598  0.00  0.00    +0.000 OA
ATOM     20  C   UNL     1      -6.095   3.924 121.612  0.00  0.00    +0.000 A 
ATOM     21  C   UNL     1      -6.063   4.509 120.264  0.00  0.00    +0.000 C 
ATOM     22  C   UNL     1      -6.707   2.814 122.132  0.00  0.00    +0.000 A 
ATOM     23  H   UNL     1      -6.379   2.200 125.369  0.00  0.00    +0.000 HD
ENDBRANCH   3  14
BRANCH   4  24
ATOM     24  O   UNL     1      -5.116  -0.387 126.577  0.00  0.00    +0.000 OA
ATOM     25  H   UNL     1      -4.940  -0.294 127.523  0.00  0.00    +0.000 HD
ENDBRANCH   4  24
TORSDOF 2
ENDMDL
MODEL 2
REMARK VINA RESULT:      -7.8      9.180     10.239
REMARK  Name = Isoxicam
REMARK  4 active torsions:
REMARK  status: ('A' for Active; 'I' for Inactive)
REMARK    1  A    between atoms: C_1  and  N_2
REMARK    2  A    between atoms: C_3  and  C_4
REMARK    3  A    between atoms: C_10  and  C_11
REMARK    4  A    between atoms: C_13  and  O_14
REMARK                            x       y       z     vdW  Elec       q    Type
REMARK                         _______ _______ _______ _____ _____    ______ ____
ROOT
ATOM      1  C   UNL     1      -6.148   5.716 134.007  0.00  0.00    +0.000 C 
ATOM      2  N   UNL     1      -6.094   5.249 132.602  0.00  0.00    +0.000 N 
ATOM      3  C   UNL     1      -6.186   6.263 131.549  0.00  0.00    +0.000 C 
ATOM      4  C   UNL     1      -5.025   6.741 131.038  0.00  0.00    +0.000 C 
ATOM      5  C   UNL     1      -3.688   6.286 131.481  0.00  0.00    +0.000 A 
ATOM      6  C   UNL     1      -3.495   5.061 132.117  0.00  0.00    +0.000 A 
ATOM      7  C   UNL     1      -2.243   4.656 132.586  0.00  0.00    +0.000 A 
ATOM      8  C   UNL     1      -1.138   5.476 132.349  0.00  0.00    +0.000 A 
ATOM      9  C   UNL     1      -1.292   6.679 131.664  0.00  0.00    +0.000 A 
ATOM     10  C   UNL     1      -2.559   7.085 131.248  0.00  0.00    +0.000 A 
ATOM     11  S   UNL     1      -4.919   4.048 132.311  0.00  0.00    +0.000 S 
ATOM     12  O   UNL     1      -4.742   3.262 133.510  0.00  0.00    +0.000 OA
ATOM     13  O   UNL     1      -5.176   3.431 131.022  0.00  0.00    +0.000 OA
ENDROOT
BRANCH   3  14
ATOM     14  C   UNL     1      -7.597   6.707 131.191  0.00  0.00    +0.000 C 
ATOM     15  O   UNL     1      -7.749   7.612 130.368  0.00  0.00    +0.000 OA
ATOM     16  N   UNL     1      -8.653   6.086 131.832  0.00  0.00    +0.000 N 
ATOM     17  C   UNL     1      -9.967   6.396 131.538  0.00  0.00    +0.000 A 
ATOM     18  N   UNL     1     -10.911   6.322 132.481  0.00  0.00    +0.000 NA
ATOM     19  O   UNL     1     -12.080   6.760 131.875  0.00  0.00    +0.000 OA
ATOM     20  C   UNL     1     -11.836   6.993 130.558  0.00  0.00    +0.000 A 
ATOM     21  C   UNL     1     -12.964   7.418 129.716  0.00  0.00    +0.000 C 
ATOM     22  C   UNL     1     -10.514   6.752 130.292  0.00  0.00    +0.000 A 
ATOM     23  H   UNL     1      -8.573   5.701 132.759  0.00  0.00    +0.000 HD
ENDBRANCH   3  14
BRANCH   4  24
ATOM     24  O   UNL     1      -4.921   7.711 130.059  0.00  0.00    +0.000 OA
ATOM     25  H   UNL     1      -5.642   7.647 129.419  0.00  0.00    +0.000 HD
ENDBRANCH   4  24
TORSDOF 2
ENDMDL
MODEL 3
REMARK VINA RESULT:      -7.8      8.017      9.049
REMARK  Name = Isoxicam
REMARK  4 active torsions:
REMARK  status: ('A' for Active; 'I' for Inactive)
REMARK    1  A    between atoms: C_1  and  N_2
REMARK    2  A    between atoms: C_3  and  C_4
REMARK    3  A    between atoms: C_10  and  C_11
REMARK    4  A    between atoms: C_13  and  O_14
REMARK                            x       y       z     vdW  Elec       q    Type
REMARK                         _______ _______ _______ _____ _____    ______ ____
ROOT
ATOM      1  C   UNL     1      -7.036   4.969 131.180  0.00  0.00    +0.000 C 
ATOM      2  N   UNL     1      -8.038   4.776 132.256  0.00  0.00    +0.000 N 
ATOM      3  C   UNL     1      -9.390   4.379 131.855  0.00  0.00    +0.000 C 
ATOM      4  C   UNL     1      -9.682   3.056 131.864  0.00  0.00    +0.000 C 
ATOM      5  C   UNL     1      -8.715   2.008 132.262  0.00  0.00    +0.000 A 
ATOM      6  C   UNL     1      -7.606   2.287 133.057  0.00  0.00    +0.000 A 
ATOM      7  C   UNL     1      -6.663   1.310 133.386  0.00  0.00    +0.000 A 
ATOM      8  C   UNL     1      -6.876  -0.003 132.961  0.00  0.00    +0.000 A 
ATOM      9  C   UNL     1      -8.008  -0.321 132.213  0.00  0.00    +0.000 A 
ATOM     10  C   UNL     1      -8.909   0.679 131.856  0.00  0.00    +0.000 A 
ATOM     11  S   UNL     1      -7.444   3.944 133.621  0.00  0.00    +0.000 S 
ATOM     12  O   UNL     1      -6.035   4.225 133.767  0.00  0.00    +0.000 OA
ATOM     13  O   UNL     1      -8.377   4.107 134.721  0.00  0.00    +0.000 OA
ENDROOT
BRANCH   3  14
ATOM     14  C   UNL     1     -10.300   5.516 131.414  0.00  0.00    +0.000 C 
ATOM     15  O   UNL     1     -10.471   6.474 132.171  0.00  0.00    +0.000 OA
ATOM     16  N   UNL     1     -10.920   5.410 130.183  0.00  0.00    +0.000 N 
ATOM     17  C   UNL     1     -11.729   6.413 129.686  0.00  0.00    +0.000 A 
ATOM     18  N   UNL     1     -12.767   6.122 128.896  0.00  0.00    +0.000 NA
ATOM     19  O   UNL     1     -13.392   7.334 128.638  0.00  0.00    +0.000 OA
ATOM     20  C   UNL     1     -12.663   8.337 129.197  0.00  0.00    +0.000 A 
ATOM     21  C   UNL     1     -13.128   9.717 128.996  0.00  0.00    +0.000 C 
ATOM     22  C   UNL     1     -11.584   7.803 129.851  0.00  0.00    +0.000 A 
ATOM     23  H   UNL     1     -11.153   4.521 129.769  0.00  0.00    +0.000 HD
ENDBRANCH   3  14
BRANCH   4  24
ATOM     24  O   UNL     1     -10.894   2.501 131.498  0.00  0.00    +0.000 OA
ATOM     25  H   UNL     1     -11.309   2.999 130.781  0.00  0.00    +0.000 HD
ENDBRANCH   4  24
TORSDOF 2
ENDMDL
MODEL 4
REMARK VINA RESULT:      -7.7      2.349      7.168
REMARK  Name = Isoxicam
REMARK  4 active torsions:
REMARK  status: ('A' for Active; 'I' for Inactive)
REMARK    1  A    between atoms: C_1  and  N_2
REMARK    2  A    between atoms: C_3  and  C_4
REMARK    3  A    between atoms: C_10  and  C_11
REMARK    4  A    between atoms: C_13  and  O_14
REMARK                            x       y       z     vdW  Elec       q    Type
REMARK                         _______ _______ _______ _____ _____    ______ ____
ROOT
ATOM      1  C   UNL     1      -8.543  -1.258 122.921  0.00  0.00    +0.000 C 
ATOM      2  N   UNL     1      -8.763  -0.266 123.999  0.00  0.00    +0.000 N 
ATOM      3  C   UNL     1      -7.598   0.147 124.785  0.00  0.00    +0.000 C 
ATOM      4  C   UNL     1      -6.950   1.273 124.399  0.00  0.00    +0.000 C 
ATOM      5  C   UNL     1      -7.364   2.098 123.241  0.00  0.00    +0.000 A 
ATOM      6  C   UNL     1      -8.658   2.057 122.727  0.00  0.00    +0.000 A 
ATOM      7  C   UNL     1      -9.033   2.792 121.599  0.00  0.00    +0.000 A 
ATOM      8  C   UNL     1      -8.100   3.648 121.012  0.00  0.00    +0.000 A 
ATOM      9  C   UNL     1      -6.815   3.752 121.541  0.00  0.00    +0.000 A 
ATOM     10  C   UNL     1      -6.449   2.972 122.636  0.00  0.00    +0.000 A 
ATOM     11  S   UNL     1      -9.800   1.017 123.565  0.00  0.00    +0.000 S 
ATOM     12  O   UNL     1     -10.758   0.540 122.595  0.00  0.00    +0.000 OA
ATOM     13  O   UNL     1     -10.211   1.724 124.764  0.00  0.00    +0.000 OA
ENDROOT
BRANCH   3  14
ATOM     14  C   UNL     1      -7.215  -0.786 125.925  0.00  0.00    +0.000 C 
ATOM     15  O   UNL     1      -6.027  -0.896 126.235  0.00  0.00    +0.000 OA
ATOM     16  N   UNL     1      -8.226  -1.493 126.550  0.00  0.00    +0.000 N 
ATOM     17  C   UNL     1      -7.974  -2.329 127.620  0.00  0.00    +0.000 A 
ATOM     18  N   UNL     1      -8.717  -3.423 127.818  0.00  0.00    +0.000 NA
ATOM     19  O   UNL     1      -8.160  -4.058 128.919  0.00  0.00    +0.000 OA
ATOM     20  C   UNL     1      -7.159  -3.285 129.418  0.00  0.00    +0.000 A 
ATOM     21  C   UNL     1      -6.467  -3.755 130.627  0.00  0.00    +0.000 C 
ATOM     22  C   UNL     1      -7.021  -2.166 128.641  0.00  0.00    +0.000 A 
ATOM     23  H   UNL     1      -9.073  -1.760 126.075  0.00  0.00    +0.000 HD
ENDBRANCH   3  14
BRANCH   4  24
ATOM     24  O   UNL     1      -5.825   1.797 125.006  0.00  0.00    +0.000 OA
ATOM     25  H   UNL     1      -5.096   1.893 124.379  0.00  0.00    +0.000 HD
ENDBRANCH   4  24
TORSDOF 2
ENDMDL
MODEL 5
REMARK VINA RESULT:      -7.7      6.731      7.615
REMARK  Name = Isoxicam
REMARK  4 active torsions:
REMARK  status: ('A' for Active; 'I' for Inactive)
REMARK    1  A    between atoms: C_1  and  N_2
REMARK    2  A    between atoms: C_3  and  C_4
REMARK    3  A    between atoms: C_10  and  C_11
REMARK    4  A    between atoms: C_13  and  O_14
REMARK                            x       y       z     vdW  Elec       q    Type
REMARK                         _______ _______ _______ _____ _____    ______ ____
ROOT
ATOM      1  C   UNL     1      -7.092   3.290 131.785  0.00  0.00    +0.000 C 
ATOM      2  N   UNL     1      -8.418   2.712 131.460  0.00  0.00    +0.000 N 
ATOM      3  C   UNL     1      -8.956   2.967 130.122  0.00  0.00    +0.000 C 
ATOM      4  C   UNL     1      -8.735   2.030 129.169  0.00  0.00    +0.000 C 
ATOM      5  C   UNL     1      -7.991   0.773 129.415  0.00  0.00    +0.000 A 
ATOM      6  C   UNL     1      -7.839   0.242 130.693  0.00  0.00    +0.000 A 
ATOM      7  C   UNL     1      -7.089  -0.913 130.933  0.00  0.00    +0.000 A 
ATOM      8  C   UNL     1      -6.534  -1.593 129.848  0.00  0.00    +0.000 A 
ATOM      9  C   UNL     1      -6.721  -1.116 128.552  0.00  0.00    +0.000 A 
ATOM     10  C   UNL     1      -7.430   0.065 128.342  0.00  0.00    +0.000 A 
ATOM     11  S   UNL     1      -8.631   1.109 132.001  0.00  0.00    +0.000 S 
ATOM     12  O   UNL     1      -7.850   0.909 133.200  0.00  0.00    +0.000 OA
ATOM     13  O   UNL     1     -10.040   0.768 131.939  0.00  0.00    +0.000 OA
ENDROOT
BRANCH   3  14
ATOM     14  C   UNL     1      -9.662   4.305 129.947  0.00  0.00    +0.000 C 
ATOM     15  O   UNL     1      -9.246   5.094 129.097  0.00  0.00    +0.000 OA
ATOM     16  N   UNL     1     -10.733   4.585 130.775  0.00  0.00    +0.000 N 
ATOM     17  C   UNL     1     -11.457   5.755 130.658  0.00  0.00    +0.000 A 
ATOM     18  N   UNL     1     -12.016   6.321 131.732  0.00  0.00    +0.000 NA
ATOM     19  O   UNL     1     -12.598   7.495 131.277  0.00  0.00    +0.000 OA
ATOM     20  C   UNL     1     -12.462   7.562 129.925  0.00  0.00    +0.000 A 
ATOM     21  C   UNL     1     -13.060   8.713 129.232  0.00  0.00    +0.000 C 
ATOM     22  C   UNL     1     -11.766   6.468 129.485  0.00  0.00    +0.000 A 
ATOM     23  H   UNL     1     -10.813   4.204 131.705  0.00  0.00    +0.000 HD
ENDBRANCH   3  14
BRANCH   4  24
ATOM     24  O   UNL     1      -9.149   2.113 127.853  0.00  0.00    +0.000 OA
ATOM     25  H   UNL     1      -9.064   3.013 127.511  0.00  0.00    +0.000 HD
ENDBRANCH   4  24
TORSDOF 2
ENDMDL
MODEL 6
REMARK VINA RESULT:      -7.6      2.110      2.951
REMARK  Name = Isoxicam
REMARK  4 active torsions:
REMARK  status: ('A' for Active; 'I' for Inactive)
REMARK    1  A    between atoms: C_1  and  N_2
REMARK    2  A    between atoms: C_3  and  C_4
REMARK    3  A    between atoms: C_10  and  C_11
REMARK    4  A    between atoms: C_13  and  O_14
REMARK                            x       y       z     vdW  Elec       q    Type
REMARK                         _______ _______ _______ _____ _____    ______ ____
ROOT
ATOM      1  C   UNL     1      -5.147   1.505 126.992  0.00  0.00    +0.000 C 
ATOM      2  N   UNL     1      -6.592   1.621 126.682  0.00  0.00    +0.000 N 
ATOM      3  C   UNL     1      -7.108   0.832 125.562  0.00  0.00    +0.000 C 
ATOM      4  C   UNL     1      -7.652  -0.377 125.846  0.00  0.00    +0.000 C 
ATOM      5  C   UNL     1      -7.756  -0.925 127.217  0.00  0.00    +0.000 A 
ATOM      6  C   UNL     1      -7.717  -0.109 128.346  0.00  0.00    +0.000 A 
ATOM      7  C   UNL     1      -7.757  -0.630 129.641  0.00  0.00    +0.000 A 
ATOM      8  C   UNL     1      -7.911  -2.008 129.809  0.00  0.00    +0.000 A 
ATOM      9  C   UNL     1      -8.011  -2.841 128.697  0.00  0.00    +0.000 A 
ATOM     10  C   UNL     1      -7.919  -2.304 127.414  0.00  0.00    +0.000 A 
ATOM     11  S   UNL     1      -7.601   1.621 128.057  0.00  0.00    +0.000 S 
ATOM     12  O   UNL     1      -6.886   2.208 129.166  0.00  0.00    +0.000 OA
ATOM     13  O   UNL     1      -8.926   2.074 127.675  0.00  0.00    +0.000 OA
ENDROOT
BRANCH   3  14
ATOM     14  C   UNL     1      -6.915   1.450 124.184  0.00  0.00    +0.000 C 
ATOM     15  O   UNL     1      -7.095   0.752 123.185  0.00  0.00    +0.000 OA
ATOM     16  N   UNL     1      -6.517   2.772 124.118  0.00  0.00    +0.000 N 
ATOM     17  C   UNL     1      -6.359   3.425 122.911  0.00  0.00    +0.000 A 
ATOM     18  N   UNL     1      -5.442   4.388 122.773  0.00  0.00    +0.000 NA
ATOM     19  O   UNL     1      -5.503   4.774 121.441  0.00  0.00    +0.000 OA
ATOM     20  C   UNL     1      -6.520   4.107 120.832  0.00  0.00    +0.000 A 
ATOM     21  C   UNL     1      -6.790   4.411 119.420  0.00  0.00    +0.000 C 
ATOM     22  C   UNL     1      -7.107   3.258 121.732  0.00  0.00    +0.000 A 
ATOM     23  H   UNL     1      -5.964   3.208 124.838  0.00  0.00    +0.000 HD
ENDBRANCH   3  14
BRANCH   4  24
ATOM     24  O   UNL     1      -8.167  -1.261 124.917  0.00  0.00    +0.000 OA
ATOM     25  H   UNL     1      -7.707  -1.192 124.070  0.00  0.00    +0.000 HD
ENDBRANCH   4  24
TORSDOF 2
ENDMDL
MODEL 7
REMARK VINA RESULT:      -7.5      3.317      4.415
REMARK  Name = Isoxicam
REMARK  4 active torsions:
REMARK  status: ('A' for Active; 'I' for Inactive)
REMARK    1  A    between atoms: C_1  and  N_2
REMARK    2  A    between atoms: C_3  and  C_4
REMARK    3  A    between atoms: C_10  and  C_11
REMARK    4  A    between atoms: C_13  and  O_14
REMARK                            x       y       z     vdW  Elec       q    Type
REMARK                         _______ _______ _______ _____ _____    ______ ____
ROOT
ATOM      1  C   UNL     1      -9.004   1.464 125.980  0.00  0.00    +0.000 C 
ATOM      2  N   UNL     1      -7.793   1.329 125.137  0.00  0.00    +0.000 N 
ATOM      3  C   UNL     1      -6.576   0.828 125.779  0.00  0.00    +0.000 C 
ATOM      4  C   UNL     1      -6.324  -0.501 125.692  0.00  0.00    +0.000 C 
ATOM      5  C   UNL     1      -7.205  -1.455 124.980  0.00  0.00    +0.000 A 
ATOM      6  C   UNL     1      -8.101  -1.043 123.995  0.00  0.00    +0.000 A 
ATOM      7  C   UNL     1      -8.972  -1.934 123.364  0.00  0.00    +0.000 A 
ATOM      8  C   UNL     1      -8.894  -3.291 123.681  0.00  0.00    +0.000 A 
ATOM      9  C   UNL     1      -7.967  -3.739 124.620  0.00  0.00    +0.000 A 
ATOM     10  C   UNL     1      -7.142  -2.825 125.273  0.00  0.00    +0.000 A 
ATOM     11  S   UNL     1      -8.088   0.668 123.593  0.00  0.00    +0.000 S 
ATOM     12  O   UNL     1      -9.421   1.033 123.171  0.00  0.00    +0.000 OA
ATOM     13  O   UNL     1      -6.929   0.894 122.749  0.00  0.00    +0.000 OA
ENDROOT
BRANCH   3  14
ATOM     14  C   UNL     1      -5.757   1.868 126.530  0.00  0.00    +0.000 C 
ATOM     15  O   UNL     1      -5.160   1.535 127.555  0.00  0.00    +0.000 OA
ATOM     16  N   UNL     1      -5.742   3.160 126.035  0.00  0.00    +0.000 N 
ATOM     17  C   UNL     1      -4.993   4.157 126.628  0.00  0.00    +0.000 A 
ATOM     18  N   UNL     1      -5.407   5.427 126.601  0.00  0.00    +0.000 NA
ATOM     19  O   UNL     1      -4.471   6.142 127.334  0.00  0.00    +0.000 OA
ATOM     20  C   UNL     1      -3.464   5.306 127.702  0.00  0.00    +0.000 A 
ATOM     21  C   UNL     1      -2.335   5.879 128.449  0.00  0.00    +0.000 C 
ATOM     22  C   UNL     1      -3.739   4.041 127.256  0.00  0.00    +0.000 A 
ATOM     23  H   UNL     1      -6.511   3.549 125.514  0.00  0.00    +0.000 HD
ENDBRANCH   3  14
BRANCH   4  24
ATOM     24  O   UNL     1      -5.240  -1.149 126.253  0.00  0.00    +0.000 OA
ATOM     25  H   UNL     1      -4.508  -0.540 126.414  0.00  0.00    +0.000 HD
ENDBRANCH   4  24
TORSDOF 2
ENDMDL
MODEL 8
REMARK VINA RESULT:      -7.5      6.730      7.685
REMARK  Name = Isoxicam
REMARK  4 active torsions:
REMARK  status: ('A' for Active; 'I' for Inactive)
REMARK    1  A    between atoms: C_1  and  N_2
REMARK    2  A    between atoms: C_3  and  C_4
REMARK    3  A    between atoms: C_10  and  C_11
REMARK    4  A    between atoms: C_13  and  O_14
REMARK                            x       y       z     vdW  Elec       q    Type
REMARK                         _______ _______ _______ _____ _____    ______ ____
ROOT
ATOM      1  C   UNL     1      -7.902   3.043 128.196  0.00  0.00    +0.000 C 
ATOM      2  N   UNL     1      -7.934   3.592 129.572  0.00  0.00    +0.000 N 
ATOM      3  C   UNL     1      -9.219   3.574 130.276  0.00  0.00    +0.000 C 
ATOM      4  C   UNL     1      -9.471   2.523 131.093  0.00  0.00    +0.000 C 
ATOM      5  C   UNL     1      -8.518   1.411 131.312  0.00  0.00    +0.000 A 
ATOM      6  C   UNL     1      -7.154   1.546 131.066  0.00  0.00    +0.000 A 
ATOM      7  C   UNL     1      -6.263   0.480 131.218  0.00  0.00    +0.000 A 
ATOM      8  C   UNL     1      -6.746  -0.738 131.699  0.00  0.00    +0.000 A 
ATOM      9  C   UNL     1      -8.096  -0.883 132.009  0.00  0.00    +0.000 A 
ATOM     10  C   UNL     1      -8.975   0.179 131.803  0.00  0.00    +0.000 A 
ATOM     11  S   UNL     1      -6.607   3.131 130.538  0.00  0.00    +0.000 S 
ATOM     12  O   UNL     1      -5.452   2.940 129.691  0.00  0.00    +0.000 OA
ATOM     13  O   UNL     1      -6.559   3.974 131.718  0.00  0.00    +0.000 OA
ENDROOT
BRANCH   3  14
ATOM     14  C   UNL     1     -10.156   4.730 129.953  0.00  0.00    +0.000 C 
ATOM     15  O   UNL     1     -11.369   4.577 130.104  0.00  0.00    +0.000 OA
ATOM     16  N   UNL     1      -9.598   5.902 129.475  0.00  0.00    +0.000 N 
ATOM     17  C   UNL     1     -10.368   7.014 129.197  0.00  0.00    +0.000 A 
ATOM     18  N   UNL     1     -10.019   7.856 128.219  0.00  0.00    +0.000 NA
ATOM     19  O   UNL     1     -11.029   8.806 128.166  0.00  0.00    +0.000 OA
ATOM     20  C   UNL     1     -11.911   8.572 129.174  0.00  0.00    +0.000 A 
ATOM     21  C   UNL     1     -13.038   9.504 129.329  0.00  0.00    +0.000 C 
ATOM     22  C   UNL     1     -11.519   7.460 129.871  0.00  0.00    +0.000 A 
ATOM     23  H   UNL     1      -8.739   5.917 128.949  0.00  0.00    +0.000 HD
ENDBRANCH   3  14
BRANCH   4  24
ATOM     24  O   UNL     1     -10.633   2.332 131.816  0.00  0.00    +0.000 OA
ATOM     25  H   UNL     1     -11.357   2.033 131.250  0.00  0.00    +0.000 HD
ENDBRANCH   4  24
TORSDOF 2
ENDMDL
MODEL 9
REMARK VINA RESULT:      -7.4      4.163      5.551
REMARK  Name = Isoxicam
REMARK  4 active torsions:
REMARK  status: ('A' for Active; 'I' for Inactive)
REMARK    1  A    between atoms: C_1  and  N_2
REMARK    2  A    between atoms: C_3  and  C_4
REMARK    3  A    between atoms: C_10  and  C_11
REMARK    4  A    between atoms: C_13  and  O_14
REMARK                            x       y       z     vdW  Elec       q    Type
REMARK                         _______ _______ _______ _____ _____    ______ ____
ROOT
ATOM      1  C   UNL     1      -9.440   0.453 125.808  0.00  0.00    +0.000 C 
ATOM      2  N   UNL     1      -8.226   1.256 125.530  0.00  0.00    +0.000 N 
ATOM      3  C   UNL     1      -7.142   1.204 126.515  0.00  0.00    +0.000 C 
ATOM      4  C   UNL     1      -6.144   0.314 126.299  0.00  0.00    +0.000 C 
ATOM      5  C   UNL     1      -6.093  -0.590 125.127  0.00  0.00    +0.000 A 
ATOM      6  C   UNL     1      -6.794  -0.321 123.954  0.00  0.00    +0.000 A 
ATOM      7  C   UNL     1      -6.792  -1.202 122.869  0.00  0.00    +0.000 A 
ATOM      8  C   UNL     1      -6.006  -2.354 122.937  0.00  0.00    +0.000 A 
ATOM      9  C   UNL     1      -5.249  -2.617 124.077  0.00  0.00    +0.000 A 
ATOM     10  C   UNL     1      -5.305  -1.750 125.165  0.00  0.00    +0.000 A 
ATOM     11  S   UNL     1      -7.699   1.185 123.910  0.00  0.00    +0.000 S 
ATOM     12  O   UNL     1      -8.843   0.989 123.051  0.00  0.00    +0.000 OA
ATOM     13  O   UNL     1      -6.737   2.247 123.675  0.00  0.00    +0.000 OA
ENDROOT
BRANCH   3  14
ATOM     14  C   UNL     1      -7.302   2.131 127.711  0.00  0.00    +0.000 C 
ATOM     15  O   UNL     1      -7.028   1.709 128.836  0.00  0.00    +0.000 OA
ATOM     16  N   UNL     1      -7.776   3.410 127.481  0.00  0.00    +0.000 N 
ATOM     17  C   UNL     1      -7.911   4.330 128.501  0.00  0.00    +0.000 A 
ATOM     18  N   UNL     1      -8.877   5.254 128.461  0.00  0.00    +0.000 NA
ATOM     19  O   UNL     1      -8.771   5.957 129.653  0.00  0.00    +0.000 OA
ATOM     20  C   UNL     1      -7.686   5.508 130.338  0.00  0.00    +0.000 A 
ATOM     21  C   UNL     1      -7.362   6.162 131.614  0.00  0.00    +0.000 C 
ATOM     22  C   UNL     1      -7.094   4.493 129.635  0.00  0.00    +0.000 A 
ATOM     23  H   UNL     1      -8.391   3.629 126.714  0.00  0.00    +0.000 HD
ENDBRANCH   3  14
BRANCH   4  24
ATOM     24  O   UNL     1      -5.057   0.113 127.129  0.00  0.00    +0.000 OA
ATOM     25  H   UNL     1      -4.497   0.899 127.175  0.00  0.00    +0.000 HD
ENDBRANCH   4  24
TORSDOF 2
ENDMDL
