MODEL 1
REMARK VINA RESULT:      -8.0      0.000      0.000
REMARK  Name = Isradipine
REMARK  11 active torsions:
REMARK  status: ('A' for Active; 'I' for Inactive)
REMARK    1  A    between atoms: C_1  and  O_2
REMARK    2  A    between atoms: O_2  and  C_3
REMARK    3  A    between atoms: C_3  and  C_5
REMARK    4  A    between atoms: C_6  and  C_7
REMARK    5  A    between atoms: C_9  and  C_10
REMARK    6  A    between atoms: C_11  and  C_22
REMARK    7  A    between atoms: C_12  and  C_13
REMARK    8  A    between atoms: C_22  and  O_24
REMARK    9  A    between atoms: O_24  and  C_25
REMARK   10  A    between atoms: C_25  and  C_26
REMARK   11  A    between atoms: C_25  and  C_27
REMARK                            x       y       z     vdW  Elec       q    Type
REMARK                         _______ _______ _______ _____ _____    ______ ____
ROOT
ATOM      1  C   UNL     1      -6.839   2.997 122.526  0.00  0.00    +0.000 C 
ATOM      2  C   UNL     1      -8.119   2.948 122.088  0.00  0.00    +0.000 C 
ATOM      3  C   UNL     1      -8.732   3.822 121.026  0.00  0.00    +0.000 C 
ATOM      4  N   UNL     1      -8.972   1.985 122.603  0.00  0.00    +0.000 N 
ATOM      5  C   UNL     1      -8.553   0.848 123.277  0.00  0.00    +0.000 C 
ATOM      6  C   UNL     1      -9.588  -0.246 123.388  0.00  0.00    +0.000 C 
ATOM      7  C   UNL     1      -7.288   0.778 123.771  0.00  0.00    +0.000 C 
ATOM      8  C   UNL     1      -6.366   2.002 123.614  0.00  0.00    +0.000 C 
ATOM      9  H   UNL     1      -9.944   2.015 122.303  0.00  0.00    +0.000 HD
ENDROOT
BRANCH   8  10
ATOM     10  C   UNL     1      -6.311   2.742 124.938  0.00  0.00    +0.000 A 
ATOM     11  C   UNL     1      -5.197   2.612 125.821  0.00  0.00    +0.000 A 
ATOM     12  C   UNL     1      -5.085   3.272 127.065  0.00  0.00    +0.000 A 
ATOM     13  C   UNL     1      -6.077   4.136 127.549  0.00  0.00    +0.000 A 
ATOM     14  C   UNL     1      -7.193   4.294 126.704  0.00  0.00    +0.000 A 
ATOM     15  N   UNL     1      -8.288   5.041 126.882  0.00  0.00    +0.000 NA
ATOM     16  O   UNL     1      -9.069   4.838 125.756  0.00  0.00    +0.000 OA
ATOM     17  N   UNL     1      -8.474   3.964 124.866  0.00  0.00    +0.000 NA
ATOM     18  C   UNL     1      -7.309   3.610 125.423  0.00  0.00    +0.000 A 
ENDBRANCH   8  10
BRANCH   1  19
ATOM     19  C   UNL     1      -5.821   3.939 121.987  0.00  0.00    +0.000 C 
ATOM     20  O   UNL     1      -5.315   4.827 122.664  0.00  0.00    +0.000 OA
BRANCH  19  22
ATOM     21  C   UNL     1      -5.430   4.884 119.856  0.00  0.00    +0.000 C 
ATOM     22  O   UNL     1      -5.549   3.709 120.674  0.00  0.00    +0.000 OA
ENDBRANCH  19  22
ENDBRANCH   1  19
BRANCH   7  23
ATOM     23  C   UNL     1      -6.843  -0.442 124.518  0.00  0.00    +0.000 C 
ATOM     24  O   UNL     1      -6.936  -0.543 125.736  0.00  0.00    +0.000 OA
BRANCH  23  25
ATOM     25  O   UNL     1      -6.328  -1.429 123.733  0.00  0.00    +0.000 OA
BRANCH  25  26
ATOM     26  C   UNL     1      -6.105  -2.702 124.408  0.00  0.00    +0.000 C 
ATOM     27  C   UNL     1      -7.338  -3.606 124.307  0.00  0.00    +0.000 C 
ATOM     28  C   UNL     1      -4.928  -3.429 123.755  0.00  0.00    +0.000 C 
ENDBRANCH  25  26
ENDBRANCH  23  25
ENDBRANCH   7  23
TORSDOF 6
ENDMDL
MODEL 2
REMARK VINA RESULT:      -7.8      2.824      5.129
REMARK  Name = Isradipine
REMARK  11 active torsions:
REMARK  status: ('A' for Active; 'I' for Inactive)
REMARK    1  A    between atoms: C_1  and  O_2
REMARK    2  A    between atoms: O_2  and  C_3
REMARK    3  A    between atoms: C_3  and  C_5
REMARK    4  A    between atoms: C_6  and  C_7
REMARK    5  A    between atoms: C_9  and  C_10
REMARK    6  A    between atoms: C_11  and  C_22
REMARK    7  A    between atoms: C_12  and  C_13
REMARK    8  A    between atoms: C_22  and  O_24
REMARK    9  A    between atoms: O_24  and  C_25
REMARK   10  A    between atoms: C_25  and  C_26
REMARK   11  A    between atoms: C_25  and  C_27
REMARK                            x       y       z     vdW  Elec       q    Type
REMARK                         _______ _______ _______ _____ _____    ______ ____
ROOT
ATOM      1  C   UNL     1      -6.797   2.178 125.312  0.00  0.00    +0.000 C 
ATOM      2  C   UNL     1      -5.630   2.751 125.690  0.00  0.00    +0.000 C 
ATOM      3  C   UNL     1      -4.988   3.961 125.067  0.00  0.00    +0.000 C 
ATOM      4  N   UNL     1      -4.950   2.238 126.784  0.00  0.00    +0.000 N 
ATOM      5  C   UNL     1      -5.516   1.405 127.738  0.00  0.00    +0.000 C 
ATOM      6  C   UNL     1      -4.744   1.298 129.031  0.00  0.00    +0.000 C 
ATOM      7  C   UNL     1      -6.688   0.767 127.473  0.00  0.00    +0.000 C 
ATOM      8  C   UNL     1      -7.327   0.945 126.084  0.00  0.00    +0.000 C 
ATOM      9  H   UNL     1      -4.045   2.648 127.004  0.00  0.00    +0.000 HD
ENDROOT
BRANCH   8  10
ATOM     10  C   UNL     1      -7.039  -0.292 125.253  0.00  0.00    +0.000 A 
ATOM     11  C   UNL     1      -5.736  -0.871 125.200  0.00  0.00    +0.000 A 
ATOM     12  C   UNL     1      -5.403  -2.018 124.447  0.00  0.00    +0.000 A 
ATOM     13  C   UNL     1      -6.346  -2.708 123.673  0.00  0.00    +0.000 A 
ATOM     14  C   UNL     1      -7.647  -2.171 123.702  0.00  0.00    +0.000 A 
ATOM     15  N   UNL     1      -8.752  -2.597 123.079  0.00  0.00    +0.000 NA
ATOM     16  O   UNL     1      -9.755  -1.715 123.443  0.00  0.00    +0.000 OA
ATOM     17  N   UNL     1      -9.291  -0.729 124.295  0.00  0.00    +0.000 NA
ATOM     18  C   UNL     1      -7.989  -0.984 124.475  0.00  0.00    +0.000 A 
ENDBRANCH   8  10
BRANCH   1  19
ATOM     19  C   UNL     1      -7.644   2.693 124.202  0.00  0.00    +0.000 C 
ATOM     20  O   UNL     1      -8.590   3.449 124.387  0.00  0.00    +0.000 OA
BRANCH  19  22
ATOM     21  C   UNL     1      -6.911   3.207 122.015  0.00  0.00    +0.000 C 
ATOM     22  O   UNL     1      -7.257   2.211 122.990  0.00  0.00    +0.000 OA
ENDBRANCH  19  22
ENDBRANCH   1  19
BRANCH   7  23
ATOM     23  C   UNL     1      -7.287  -0.150 128.496  0.00  0.00    +0.000 C 
ATOM     24  O   UNL     1      -8.079   0.235 129.347  0.00  0.00    +0.000 OA
BRANCH  23  25
ATOM     25  O   UNL     1      -6.877  -1.446 128.401  0.00  0.00    +0.000 OA
BRANCH  25  26
ATOM     26  C   UNL     1      -7.903  -2.441 128.690  0.00  0.00    +0.000 C 
ATOM     27  C   UNL     1      -8.383  -3.132 127.409  0.00  0.00    +0.000 C 
ATOM     28  C   UNL     1      -7.332  -3.510 129.623  0.00  0.00    +0.000 C 
ENDBRANCH  25  26
ENDBRANCH  23  25
ENDBRANCH   7  23
TORSDOF 6
ENDMDL
MODEL 3
REMARK VINA RESULT:      -7.5      3.526      5.523
REMARK  Name = Isradipine
REMARK  11 active torsions:
REMARK  status: ('A' for Active; 'I' for Inactive)
REMARK    1  A    between atoms: C_1  and  O_2
REMARK    2  A    between atoms: O_2  and  C_3
REMARK    3  A    between atoms: C_3  and  C_5
REMARK    4  A    between atoms: C_6  and  C_7
REMARK    5  A    between atoms: C_9  and  C_10
REMARK    6  A    between atoms: C_11  and  C_22
REMARK    7  A    between atoms: C_12  and  C_13
REMARK    8  A    between atoms: C_22  and  O_24
REMARK    9  A    between atoms: O_24  and  C_25
REMARK   10  A    between atoms: C_25  and  C_26
REMARK   11  A    between atoms: C_25  and  C_27
REMARK                            x       y       z     vdW  Elec       q    Type
REMARK                         _______ _______ _______ _____ _____    ______ ____
ROOT
ATOM      1  C   UNL     1      -6.789  -2.340 124.929  0.00  0.00    +0.000 C 
ATOM      2  C   UNL     1      -8.006  -2.918 125.062  0.00  0.00    +0.000 C 
ATOM      3  C   UNL     1      -8.818  -3.550 123.964  0.00  0.00    +0.000 C 
ATOM      4  N   UNL     1      -8.578  -3.002 126.322  0.00  0.00    +0.000 N 
ATOM      5  C   UNL     1      -7.879  -2.856 127.511  0.00  0.00    +0.000 C 
ATOM      6  C   UNL     1      -8.587  -3.380 128.737  0.00  0.00    +0.000 C 
ATOM      7  C   UNL     1      -6.645  -2.284 127.508  0.00  0.00    +0.000 C 
ATOM      8  C   UNL     1      -6.079  -1.758 126.176  0.00  0.00    +0.000 C 
ATOM      9  H   UNL     1      -9.520  -3.382 126.381  0.00  0.00    +0.000 HD
ENDROOT
BRANCH   8  10
ATOM     10  C   UNL     1      -6.234  -0.248 126.144  0.00  0.00    +0.000 A 
ATOM     11  C   UNL     1      -5.101   0.620 126.135  0.00  0.00    +0.000 A 
ATOM     12  C   UNL     1      -5.178   2.030 126.107  0.00  0.00    +0.000 A 
ATOM     13  C   UNL     1      -6.400   2.716 126.079  0.00  0.00    +0.000 A 
ATOM     14  C   UNL     1      -7.543   1.894 126.083  0.00  0.00    +0.000 A 
ATOM     15  N   UNL     1      -8.835   2.243 126.059  0.00  0.00    +0.000 NA
ATOM     16  O   UNL     1      -9.546   1.055 126.077  0.00  0.00    +0.000 OA
ATOM     17  N   UNL     1      -8.711  -0.047 126.113  0.00  0.00    +0.000 NA
ATOM     18  C   UNL     1      -7.464   0.439 126.116  0.00  0.00    +0.000 A 
ENDBRANCH   8  10
BRANCH   1  19
ATOM     19  C   UNL     1      -6.052  -2.265 123.639  0.00  0.00    +0.000 C 
ATOM     20  O   UNL     1      -6.537  -1.774 122.626  0.00  0.00    +0.000 OA
BRANCH  19  22
ATOM     21  C   UNL     1      -4.777  -4.254 123.714  0.00  0.00    +0.000 C 
ATOM     22  O   UNL     1      -4.811  -2.818 123.719  0.00  0.00    +0.000 OA
ENDBRANCH  19  22
ENDBRANCH   1  19
BRANCH   7  23
ATOM     23  C   UNL     1      -5.900  -2.107 128.796  0.00  0.00    +0.000 C 
ATOM     24  O   UNL     1      -6.007  -1.102 129.490  0.00  0.00    +0.000 OA
BRANCH  23  25
ATOM     25  O   UNL     1      -5.095  -3.154 129.131  0.00  0.00    +0.000 OA
BRANCH  25  26
ATOM     26  C   UNL     1      -5.157  -3.557 130.531  0.00  0.00    +0.000 C 
ATOM     27  C   UNL     1      -5.658  -4.998 130.671  0.00  0.00    +0.000 C 
ATOM     28  C   UNL     1      -3.760  -3.476 131.150  0.00  0.00    +0.000 C 
ENDBRANCH  25  26
ENDBRANCH  23  25
ENDBRANCH   7  23
TORSDOF 6
ENDMDL
MODEL 4
REMARK VINA RESULT:      -7.5      3.121      5.563
REMARK  Name = Isradipine
REMARK  11 active torsions:
REMARK  status: ('A' for Active; 'I' for Inactive)
REMARK    1  A    between atoms: C_1  and  O_2
REMARK    2  A    between atoms: O_2  and  C_3
REMARK    3  A    between atoms: C_3  and  C_5
REMARK    4  A    between atoms: C_6  and  C_7
REMARK    5  A    between atoms: C_9  and  C_10
REMARK    6  A    between atoms: C_11  and  C_22
REMARK    7  A    between atoms: C_12  and  C_13
REMARK    8  A    between atoms: C_22  and  O_24
REMARK    9  A    between atoms: O_24  and  C_25
REMARK   10  A    between atoms: C_25  and  C_26
REMARK   11  A    between atoms: C_25  and  C_27
REMARK                            x       y       z     vdW  Elec       q    Type
REMARK                         _______ _______ _______ _____ _____    ______ ____
ROOT
ATOM      1  C   UNL     1      -8.252   1.780 129.155  0.00  0.00    +0.000 C 
ATOM      2  C   UNL     1      -7.792   0.812 129.983  0.00  0.00    +0.000 C 
ATOM      3  C   UNL     1      -7.719   0.884 131.485  0.00  0.00    +0.000 C 
ATOM      4  N   UNL     1      -7.382  -0.398 129.444  0.00  0.00    +0.000 N 
ATOM      5  C   UNL     1      -7.713  -0.840 128.173  0.00  0.00    +0.000 C 
ATOM      6  C   UNL     1      -7.519  -2.320 127.941  0.00  0.00    +0.000 C 
ATOM      7  C   UNL     1      -8.183   0.039 127.248  0.00  0.00    +0.000 C 
ATOM      8  C   UNL     1      -8.280   1.528 127.628  0.00  0.00    +0.000 C 
ATOM      9  H   UNL     1      -6.980  -1.079 130.084  0.00  0.00    +0.000 HD
ENDROOT
BRANCH   8  10
ATOM     10  C   UNL     1      -7.108   2.266 127.007  0.00  0.00    +0.000 A 
ATOM     11  C   UNL     1      -5.803   1.691 126.959  0.00  0.00    +0.000 A 
ATOM     12  C   UNL     1      -4.673   2.325 126.397  0.00  0.00    +0.000 A 
ATOM     13  C   UNL     1      -4.737   3.600 125.819  0.00  0.00    +0.000 A 
ATOM     14  C   UNL     1      -6.010   4.201 125.842  0.00  0.00    +0.000 A 
ATOM     15  N   UNL     1      -6.389   5.395 125.374  0.00  0.00    +0.000 NA
ATOM     16  O   UNL     1      -7.743   5.496 125.651  0.00  0.00    +0.000 OA
ATOM     17  N   UNL     1      -8.223   4.370 126.294  0.00  0.00    +0.000 NA
ATOM     18  C   UNL     1      -7.175   3.548 126.426  0.00  0.00    +0.000 A 
ENDBRANCH   8  10
BRANCH   1  19
ATOM     19  C   UNL     1      -8.787   3.084 129.632  0.00  0.00    +0.000 C 
ATOM     20  O   UNL     1      -8.065   4.034 129.911  0.00  0.00    +0.000 OA
BRANCH  19  22
ATOM     21  C   UNL     1     -10.706   4.171 130.482  0.00  0.00    +0.000 C 
ATOM     22  O   UNL     1     -10.143   3.079 129.738  0.00  0.00    +0.000 OA
ENDBRANCH  19  22
ENDBRANCH   1  19
BRANCH   7  23
ATOM     23  C   UNL     1      -8.519  -0.437 125.867  0.00  0.00    +0.000 C 
ATOM     24  O   UNL     1      -9.672  -0.547 125.467  0.00  0.00    +0.000 OA
BRANCH  23  25
ATOM     25  O   UNL     1      -7.438  -0.738 125.095  0.00  0.00    +0.000 OA
BRANCH  25  26
ATOM     26  C   UNL     1      -7.557  -0.359 123.691  0.00  0.00    +0.000 C 
ATOM     27  C   UNL     1      -7.143   1.099 123.473  0.00  0.00    +0.000 C 
ATOM     28  C   UNL     1      -6.643  -1.246 122.843  0.00  0.00    +0.000 C 
ENDBRANCH  25  26
ENDBRANCH  23  25
ENDBRANCH   7  23
TORSDOF 6
ENDMDL
MODEL 5
REMARK VINA RESULT:      -7.4      4.145      7.958
REMARK  Name = Isradipine
REMARK  11 active torsions:
REMARK  status: ('A' for Active; 'I' for Inactive)
REMARK    1  A    between atoms: C_1  and  O_2
REMARK    2  A    between atoms: O_2  and  C_3
REMARK    3  A    between atoms: C_3  and  C_5
REMARK    4  A    between atoms: C_6  and  C_7
REMARK    5  A    between atoms: C_9  and  C_10
REMARK    6  A    between atoms: C_11  and  C_22
REMARK    7  A    between atoms: C_12  and  C_13
REMARK    8  A    between atoms: C_22  and  O_24
REMARK    9  A    between atoms: O_24  and  C_25
REMARK   10  A    between atoms: C_25  and  C_26
REMARK   11  A    between atoms: C_25  and  C_27
REMARK                            x       y       z     vdW  Elec       q    Type
REMARK                         _______ _______ _______ _____ _____    ______ ____
ROOT
ATOM      1  C   UNL     1      -6.096   4.269 130.245  0.00  0.00    +0.000 C 
ATOM      2  C   UNL     1      -5.775   3.517 131.325  0.00  0.00    +0.000 C 
ATOM      3  C   UNL     1      -4.406   3.365 131.931  0.00  0.00    +0.000 C 
ATOM      4  N   UNL     1      -6.782   2.842 131.999  0.00  0.00    +0.000 N 
ATOM      5  C   UNL     1      -8.133   3.131 131.881  0.00  0.00    +0.000 C 
ATOM      6  C   UNL     1      -9.003   2.572 132.981  0.00  0.00    +0.000 C 
ATOM      7  C   UNL     1      -8.580   3.875 130.834  0.00  0.00    +0.000 C 
ATOM      8  C   UNL     1      -7.567   4.332 129.768  0.00  0.00    +0.000 C 
ATOM      9  H   UNL     1      -6.501   2.235 132.766  0.00  0.00    +0.000 HD
ENDROOT
BRANCH   8  10
ATOM     10  C   UNL     1      -7.707   3.438 128.550  0.00  0.00    +0.000 A 
ATOM     11  C   UNL     1      -7.435   2.038 128.614  0.00  0.00    +0.000 A 
ATOM     12  C   UNL     1      -7.545   1.154 127.518  0.00  0.00    +0.000 A 
ATOM     13  C   UNL     1      -7.946   1.581 126.245  0.00  0.00    +0.000 A 
ATOM     14  C   UNL     1      -8.227   2.957 126.141  0.00  0.00    +0.000 A 
ATOM     15  N   UNL     1      -8.629   3.659 125.074  0.00  0.00    +0.000 NA
ATOM     16  O   UNL     1      -8.760   4.966 125.512  0.00  0.00    +0.000 OA
ATOM     17  N   UNL     1      -8.443   5.096 126.851  0.00  0.00    +0.000 NA
ATOM     18  C   UNL     1      -8.109   3.870 127.270  0.00  0.00    +0.000 A 
ENDBRANCH   8  10
BRANCH   1  19
ATOM     19  C   UNL     1      -5.109   5.092 129.495  0.00  0.00    +0.000 C 
ATOM     20  O   UNL     1      -4.961   6.293 129.692  0.00  0.00    +0.000 OA
BRANCH  19  22
ATOM     21  C   UNL     1      -4.483   4.869 127.227  0.00  0.00    +0.000 C 
ATOM     22  O   UNL     1      -4.426   4.364 128.570  0.00  0.00    +0.000 OA
ENDBRANCH  19  22
ENDBRANCH   1  19
BRANCH   7  23
ATOM     23  C   UNL     1     -10.043   4.167 130.696  0.00  0.00    +0.000 C 
ATOM     24  O   UNL     1     -10.818   3.410 130.123  0.00  0.00    +0.000 OA
BRANCH  23  25
ATOM     25  O   UNL     1     -10.440   5.342 131.259  0.00  0.00    +0.000 OA
BRANCH  25  26
ATOM     26  C   UNL     1     -11.176   6.235 130.371  0.00  0.00    +0.000 C 
ATOM     27  C   UNL     1     -12.265   6.999 131.131  0.00  0.00    +0.000 C 
ATOM     28  C   UNL     1     -10.215   7.256 129.761  0.00  0.00    +0.000 C 
ENDBRANCH  25  26
ENDBRANCH  23  25
ENDBRANCH   7  23
TORSDOF 6
ENDMDL
MODEL 6
REMARK VINA RESULT:      -7.3      3.247      5.988
REMARK  Name = Isradipine
REMARK  11 active torsions:
REMARK  status: ('A' for Active; 'I' for Inactive)
REMARK    1  A    between atoms: C_1  and  O_2
REMARK    2  A    between atoms: O_2  and  C_3
REMARK    3  A    between atoms: C_3  and  C_5
REMARK    4  A    between atoms: C_6  and  C_7
REMARK    5  A    between atoms: C_9  and  C_10
REMARK    6  A    between atoms: C_11  and  C_22
REMARK    7  A    between atoms: C_12  and  C_13
REMARK    8  A    between atoms: C_22  and  O_24
REMARK    9  A    between atoms: O_24  and  C_25
REMARK   10  A    between atoms: C_25  and  C_26
REMARK   11  A    between atoms: C_25  and  C_27
REMARK                            x       y       z     vdW  Elec       q    Type
REMARK                         _______ _______ _______ _____ _____    ______ ____
ROOT
ATOM      1  C   UNL     1      -6.557  -0.845 128.414  0.00  0.00    +0.000 C 
ATOM      2  C   UNL     1      -5.592  -1.722 128.049  0.00  0.00    +0.000 C 
ATOM      3  C   UNL     1      -4.558  -2.338 128.953  0.00  0.00    +0.000 C 
ATOM      4  N   UNL     1      -5.541  -2.160 126.734  0.00  0.00    +0.000 N 
ATOM      5  C   UNL     1      -6.588  -2.051 125.832  0.00  0.00    +0.000 C 
ATOM      6  C   UNL     1      -6.476  -2.937 124.614  0.00  0.00    +0.000 C 
ATOM      7  C   UNL     1      -7.617  -1.198 126.085  0.00  0.00    +0.000 C 
ATOM      8  C   UNL     1      -7.559  -0.327 127.353  0.00  0.00    +0.000 C 
ATOM      9  H   UNL     1      -4.766  -2.767 126.476  0.00  0.00    +0.000 HD
ENDROOT
BRANCH   8  10
ATOM     10  C   UNL     1      -7.144   1.078 126.959  0.00  0.00    +0.000 A 
ATOM     11  C   UNL     1      -6.089   1.314 126.027  0.00  0.00    +0.000 A 
ATOM     12  C   UNL     1      -5.656   2.595 125.621  0.00  0.00    +0.000 A 
ATOM     13  C   UNL     1      -6.241   3.774 126.103  0.00  0.00    +0.000 A 
ATOM     14  C   UNL     1      -7.291   3.584 127.023  0.00  0.00    +0.000 A 
ATOM     15  N   UNL     1      -8.040   4.498 127.650  0.00  0.00    +0.000 NA
ATOM     16  O   UNL     1      -8.924   3.783 128.440  0.00  0.00    +0.000 OA
ATOM     17  N   UNL     1      -8.738   2.418 128.317  0.00  0.00    +0.000 NA
ATOM     18  C   UNL     1      -7.735   2.262 127.445  0.00  0.00    +0.000 A 
ENDBRANCH   8  10
BRANCH   1  19
ATOM     19  C   UNL     1      -6.749  -0.369 129.810  0.00  0.00    +0.000 C 
ATOM     20  O   UNL     1      -6.082   0.535 130.300  0.00  0.00    +0.000 OA
BRANCH  19  22
ATOM     21  C   UNL     1      -8.583  -0.277 131.299  0.00  0.00    +0.000 C 
ATOM     22  O   UNL     1      -7.719  -1.064 130.464  0.00  0.00    +0.000 OA
ENDBRANCH  19  22
ENDBRANCH   1  19
BRANCH   7  23
ATOM     23  C   UNL     1      -8.737  -1.065 125.098  0.00  0.00    +0.000 C 
ATOM     24  O   UNL     1      -9.761  -1.736 125.163  0.00  0.00    +0.000 OA
BRANCH  23  25
ATOM     25  O   UNL     1      -8.523  -0.138 124.123  0.00  0.00    +0.000 OA
BRANCH  25  26
ATOM     26  C   UNL     1      -9.615   0.805 123.916  0.00  0.00    +0.000 C 
ATOM     27  C   UNL     1      -9.118   2.253 123.979  0.00  0.00    +0.000 C 
ATOM     28  C   UNL     1     -10.237   0.575 122.537  0.00  0.00    +0.000 C 
ENDBRANCH  25  26
ENDBRANCH  23  25
ENDBRANCH   7  23
TORSDOF 6
ENDMDL
MODEL 7
REMARK VINA RESULT:      -7.2      2.816      5.173
REMARK  Name = Isradipine
REMARK  11 active torsions:
REMARK  status: ('A' for Active; 'I' for Inactive)
REMARK    1  A    between atoms: C_1  and  O_2
REMARK    2  A    between atoms: O_2  and  C_3
REMARK    3  A    between atoms: C_3  and  C_5
REMARK    4  A    between atoms: C_6  and  C_7
REMARK    5  A    between atoms: C_9  and  C_10
REMARK    6  A    between atoms: C_11  and  C_22
REMARK    7  A    between atoms: C_12  and  C_13
REMARK    8  A    between atoms: C_22  and  O_24
REMARK    9  A    between atoms: O_24  and  C_25
REMARK   10  A    between atoms: C_25  and  C_26
REMARK   11  A    between atoms: C_25  and  C_27
REMARK                            x       y       z     vdW  Elec       q    Type
REMARK                         _______ _______ _______ _____ _____    ______ ____
ROOT
ATOM      1  C   UNL     1      -6.455  -0.032 128.065  0.00  0.00    +0.000 C 
ATOM      2  C   UNL     1      -5.476  -0.966 128.063  0.00  0.00    +0.000 C 
ATOM      3  C   UNL     1      -4.794  -1.545 129.274  0.00  0.00    +0.000 C 
ATOM      4  N   UNL     1      -5.061  -1.506 126.856  0.00  0.00    +0.000 N 
ATOM      5  C   UNL     1      -5.785  -1.432 125.675  0.00  0.00    +0.000 C 
ATOM      6  C   UNL     1      -5.366  -2.413 124.606  0.00  0.00    +0.000 C 
ATOM      7  C   UNL     1      -6.793  -0.528 125.552  0.00  0.00    +0.000 C 
ATOM      8  C   UNL     1      -7.066   0.436 126.722  0.00  0.00    +0.000 C 
ATOM      9  H   UNL     1      -4.279  -2.157 126.881  0.00  0.00    +0.000 HD
ENDROOT
BRANCH   8  10
ATOM     10  C   UNL     1      -6.476   1.792 126.382  0.00  0.00    +0.000 A 
ATOM     11  C   UNL     1      -5.065   1.999 126.319  0.00  0.00    +0.000 A 
ATOM     12  C   UNL     1      -4.454   3.235 126.010  0.00  0.00    +0.000 A 
ATOM     13  C   UNL     1      -5.196   4.390 125.726  0.00  0.00    +0.000 A 
ATOM     14  C   UNL     1      -6.594   4.226 125.774  0.00  0.00    +0.000 A 
ATOM     15  N   UNL     1      -7.558   5.127 125.552  0.00  0.00    +0.000 NA
ATOM     16  O   UNL     1      -8.753   4.449 125.728  0.00  0.00    +0.000 OA
ATOM     17  N   UNL     1      -8.551   3.123 126.062  0.00  0.00    +0.000 NA
ATOM     18  C   UNL     1      -7.224   2.952 126.097  0.00  0.00    +0.000 A 
ENDBRANCH   8  10
BRANCH   1  19
ATOM     19  C   UNL     1      -7.027   0.557 129.306  0.00  0.00    +0.000 C 
ATOM     20  O   UNL     1      -8.113   0.218 129.762  0.00  0.00    +0.000 OA
BRANCH  19  22
ATOM     21  C   UNL     1      -6.756   2.846 129.831  0.00  0.00    +0.000 C 
ATOM     22  O   UNL     1      -6.221   1.512 129.843  0.00  0.00    +0.000 OA
ENDBRANCH  19  22
ENDBRANCH   1  19
BRANCH   7  23
ATOM     23  C   UNL     1      -7.560  -0.433 124.268  0.00  0.00    +0.000 C 
ATOM     24  O   UNL     1      -7.116   0.126 123.272  0.00  0.00    +0.000 OA
BRANCH  23  25
ATOM     25  O   UNL     1      -8.789  -1.019 124.300  0.00  0.00    +0.000 OA
BRANCH  25  26
ATOM     26  C   UNL     1      -8.782  -2.458 124.539  0.00  0.00    +0.000 C 
ATOM     27  C   UNL     1      -9.537  -2.810 125.824  0.00  0.00    +0.000 C 
ATOM     28  C   UNL     1      -9.467  -3.173 123.373  0.00  0.00    +0.000 C 
ENDBRANCH  25  26
ENDBRANCH  23  25
ENDBRANCH   7  23
TORSDOF 6
ENDMDL
MODEL 8
REMARK VINA RESULT:      -7.2      6.126      7.411
REMARK  Name = Isradipine
REMARK  11 active torsions:
REMARK  status: ('A' for Active; 'I' for Inactive)
REMARK    1  A    between atoms: C_1  and  O_2
REMARK    2  A    between atoms: O_2  and  C_3
REMARK    3  A    between atoms: C_3  and  C_5
REMARK    4  A    between atoms: C_6  and  C_7
REMARK    5  A    between atoms: C_9  and  C_10
REMARK    6  A    between atoms: C_11  and  C_22
REMARK    7  A    between atoms: C_12  and  C_13
REMARK    8  A    between atoms: C_22  and  O_24
REMARK    9  A    between atoms: O_24  and  C_25
REMARK   10  A    between atoms: C_25  and  C_26
REMARK   11  A    between atoms: C_25  and  C_27
REMARK                            x       y       z     vdW  Elec       q    Type
REMARK                         _______ _______ _______ _____ _____    ______ ____
ROOT
ATOM      1  C   UNL     1      -9.633   5.590 129.925  0.00  0.00    +0.000 C 
ATOM      2  C   UNL     1     -10.553   5.325 130.882  0.00  0.00    +0.000 C 
ATOM      3  C   UNL     1     -11.754   6.166 131.222  0.00  0.00    +0.000 C 
ATOM      4  N   UNL     1     -10.446   4.151 131.613  0.00  0.00    +0.000 N 
ATOM      5  C   UNL     1      -9.683   3.058 131.232  0.00  0.00    +0.000 C 
ATOM      6  C   UNL     1     -10.022   1.766 131.936  0.00  0.00    +0.000 C 
ATOM      7  C   UNL     1      -8.721   3.199 130.281  0.00  0.00    +0.000 C 
ATOM      8  C   UNL     1      -8.467   4.598 129.690  0.00  0.00    +0.000 C 
ATOM      9  H   UNL     1     -11.113   4.012 132.368  0.00  0.00    +0.000 HD
ENDROOT
BRANCH   8  10
ATOM     10  C   UNL     1      -7.219   5.177 130.331  0.00  0.00    +0.000 A 
ATOM     11  C   UNL     1      -7.226   5.670 131.671  0.00  0.00    +0.000 A 
ATOM     12  C   UNL     1      -6.101   6.221 132.323  0.00  0.00    +0.000 A 
ATOM     13  C   UNL     1      -4.849   6.328 131.701  0.00  0.00    +0.000 A 
ATOM     14  C   UNL     1      -4.800   5.848 130.378  0.00  0.00    +0.000 A 
ATOM     15  N   UNL     1      -3.764   5.811 129.531  0.00  0.00    +0.000 NA
ATOM     16  O   UNL     1      -4.252   5.245 128.365  0.00  0.00    +0.000 OA
ATOM     17  N   UNL     1      -5.593   4.924 128.469  0.00  0.00    +0.000 NA
ATOM     18  C   UNL     1      -5.962   5.284 129.704  0.00  0.00    +0.000 A 
ENDBRANCH   8  10
BRANCH   1  19
ATOM     19  C   UNL     1      -9.694   6.779 129.033  0.00  0.00    +0.000 C 
ATOM     20  O   UNL     1      -9.467   7.917 129.428  0.00  0.00    +0.000 OA
BRANCH  19  22
ATOM     21  C   UNL     1     -10.777   7.464 127.046  0.00  0.00    +0.000 C 
ATOM     22  O   UNL     1     -10.049   6.453 127.760  0.00  0.00    +0.000 OA
ENDBRANCH  19  22
ENDBRANCH   1  19
BRANCH   7  23
ATOM     23  C   UNL     1      -7.882   2.022 129.886  0.00  0.00    +0.000 C 
ATOM     24  O   UNL     1      -8.123   1.339 128.897  0.00  0.00    +0.000 OA
BRANCH  23  25
ATOM     25  O   UNL     1      -6.832   1.773 130.717  0.00  0.00    +0.000 OA
BRANCH  25  26
ATOM     26  C   UNL     1      -5.619   1.303 130.057  0.00  0.00    +0.000 C 
ATOM     27  C   UNL     1      -4.398   2.117 130.496  0.00  0.00    +0.000 C 
ATOM     28  C   UNL     1      -5.372  -0.161 130.423  0.00  0.00    +0.000 C 
ENDBRANCH  25  26
ENDBRANCH  23  25
ENDBRANCH   7  23
TORSDOF 6
ENDMDL
MODEL 9
REMARK VINA RESULT:      -7.2      3.319      5.862
REMARK  Name = Isradipine
REMARK  11 active torsions:
REMARK  status: ('A' for Active; 'I' for Inactive)
REMARK    1  A    between atoms: C_1  and  O_2
REMARK    2  A    between atoms: O_2  and  C_3
REMARK    3  A    between atoms: C_3  and  C_5
REMARK    4  A    between atoms: C_6  and  C_7
REMARK    5  A    between atoms: C_9  and  C_10
REMARK    6  A    between atoms: C_11  and  C_22
REMARK    7  A    between atoms: C_12  and  C_13
REMARK    8  A    between atoms: C_22  and  O_24
REMARK    9  A    between atoms: O_24  and  C_25
REMARK   10  A    between atoms: C_25  and  C_26
REMARK   11  A    between atoms: C_25  and  C_27
REMARK                            x       y       z     vdW  Elec       q    Type
REMARK                         _______ _______ _______ _____ _____    ______ ____
ROOT
ATOM      1  C   UNL     1      -7.807   1.292 125.316  0.00  0.00    +0.000 C 
ATOM      2  C   UNL     1      -6.583   1.872 125.299  0.00  0.00    +0.000 C 
ATOM      3  C   UNL     1      -6.125   2.960 124.365  0.00  0.00    +0.000 C 
ATOM      4  N   UNL     1      -5.645   1.493 126.246  0.00  0.00    +0.000 N 
ATOM      5  C   UNL     1      -5.946   0.822 127.422  0.00  0.00    +0.000 C 
ATOM      6  C   UNL     1      -4.868   0.871 128.479  0.00  0.00    +0.000 C 
ATOM      7  C   UNL     1      -7.144   0.194 127.558  0.00  0.00    +0.000 C 
ATOM      8  C   UNL     1      -8.119   0.199 126.366  0.00  0.00    +0.000 C 
ATOM      9  H   UNL     1      -4.715   1.899 126.168  0.00  0.00    +0.000 HD
ENDROOT
BRANCH   8  10
ATOM     10  C   UNL     1      -8.050  -1.152 125.677  0.00  0.00    +0.000 A 
ATOM     11  C   UNL     1      -9.201  -1.987 125.551  0.00  0.00    +0.000 A 
ATOM     12  C   UNL     1      -9.202  -3.252 124.923  0.00  0.00    +0.000 A 
ATOM     13  C   UNL     1      -8.051  -3.807 124.349  0.00  0.00    +0.000 A 
ATOM     14  C   UNL     1      -6.894  -3.011 124.448  0.00  0.00    +0.000 A 
ATOM     15  N   UNL     1      -5.657  -3.260 124.003  0.00  0.00    +0.000 NA
ATOM     16  O   UNL     1      -4.899  -2.156 124.359  0.00  0.00    +0.000 OA
ATOM     17  N   UNL     1      -5.651  -1.209 125.030  0.00  0.00    +0.000 NA
ATOM     18  C   UNL     1      -6.891  -1.708 125.100  0.00  0.00    +0.000 A 
ENDBRANCH   8  10
BRANCH   1  19
ATOM     19  C   UNL     1      -8.911   1.676 124.395  0.00  0.00    +0.000 C 
ATOM     20  O   UNL     1      -9.766   2.502 124.694  0.00  0.00    +0.000 OA
BRANCH  19  22
ATOM     21  C   UNL     1     -10.140   0.676 122.642  0.00  0.00    +0.000 C 
ATOM     22  O   UNL     1      -8.864   0.994 123.219  0.00  0.00    +0.000 OA
ENDBRANCH  19  22
ENDBRANCH   1  19
BRANCH   7  23
ATOM     23  C   UNL     1      -7.459  -0.549 128.820  0.00  0.00    +0.000 C 
ATOM     24  O   UNL     1      -8.088  -0.048 129.745  0.00  0.00    +0.000 OA
BRANCH  23  25
ATOM     25  O   UNL     1      -6.988  -1.827 128.855  0.00  0.00    +0.000 OA
BRANCH  25  26
ATOM     26  C   UNL     1      -7.805  -2.766 129.615  0.00  0.00    +0.000 C 
ATOM     27  C   UNL     1      -8.628  -3.664 128.686  0.00  0.00    +0.000 C 
ATOM     28  C   UNL     1      -6.900  -3.662 130.464  0.00  0.00    +0.000 C 
ENDBRANCH  25  26
ENDBRANCH  23  25
ENDBRANCH   7  23
TORSDOF 6
ENDMDL
