MODEL 1
REMARK VINA RESULT:      -7.2      0.000      0.000
REMARK  Name = Istradefylline
REMARK  11 active torsions:
REMARK  status: ('A' for Active; 'I' for Inactive)
REMARK    1  A    between atoms: C_2  and  C_15
REMARK    2  A    between atoms: C_3  and  C_5
REMARK    3  A    between atoms: C_7  and  O_8
REMARK    4  A    between atoms: O_8  and  C_9
REMARK    5  A    between atoms: C_10  and  O_11
REMARK    6  A    between atoms: O_11  and  C_12
REMARK    7  A    between atoms: N_19  and  C_20
REMARK    8  A    between atoms: N_23  and  C_24
REMARK    9  A    between atoms: C_24  and  C_25
REMARK   10  A    between atoms: N_28  and  C_29
REMARK   11  A    between atoms: C_29  and  C_30
REMARK                            x       y       z     vdW  Elec       q    Type
REMARK                         _______ _______ _______ _____ _____    ______ ____
ROOT
ATOM      1  C   UNL     1      -9.270   2.808 130.422  0.00  0.00    +0.000 A 
ATOM      2  N   UNL     1      -8.708   2.147 129.419  0.00  0.00    +0.000 NA
ATOM      3  C   UNL     1      -8.001   1.120 129.946  0.00  0.00    +0.000 A 
ATOM      4  C   UNL     1      -8.099   1.058 131.310  0.00  0.00    +0.000 A 
ATOM      5  N   UNL     1      -8.926   2.161 131.637  0.00  0.00    +0.000 N 
ATOM      6  C   UNL     1      -9.359   2.530 132.974  0.00  0.00    +0.000 C 
ATOM      7  C   UNL     1      -7.412  -0.013 132.033  0.00  0.00    +0.000 A 
ATOM      8  O   UNL     1      -7.461  -0.142 133.265  0.00  0.00    +0.000 OA
ATOM      9  N   UNL     1      -6.674  -0.915 131.217  0.00  0.00    +0.000 N 
ATOM     10  C   UNL     1      -6.612  -0.795 129.841  0.00  0.00    +0.000 A 
ATOM     11  O   UNL     1      -5.964  -1.602 129.183  0.00  0.00    +0.000 OA
ATOM     12  N   UNL     1      -7.272   0.219 129.198  0.00  0.00    +0.000 N 
ENDROOT
BRANCH   1  13
ATOM     13  C   UNL     1     -10.195   3.897 130.163  0.00  0.00    +0.000 C 
ATOM     14  C   UNL     1     -10.451   4.994 130.911  0.00  0.00    +0.000 C 
BRANCH  14  15
ATOM     15  C   UNL     1     -11.240   6.206 130.452  0.00  0.00    +0.000 A 
ATOM     16  C   UNL     1     -11.021   6.803 129.186  0.00  0.00    +0.000 A 
ATOM     17  C   UNL     1     -11.628   8.037 128.807  0.00  0.00    +0.000 A 
ATOM     18  C   UNL     1     -12.578   8.631 129.654  0.00  0.00    +0.000 A 
ATOM     19  C   UNL     1     -12.799   8.058 130.906  0.00  0.00    +0.000 A 
ATOM     20  C   UNL     1     -12.137   6.873 131.299  0.00  0.00    +0.000 A 
BRANCH  17  21
ATOM     21  O   UNL     1     -11.178   8.567 127.611  0.00  0.00    +0.000 OA
ATOM     22  C   UNL     1     -10.924   7.651 126.536  0.00  0.00    +0.000 C 
ENDBRANCH  17  21
BRANCH  18  23
ATOM     23  O   UNL     1     -13.251   9.729 129.197  0.00  0.00    +0.000 OA
ATOM     24  C   UNL     1     -13.456  10.851 130.033  0.00  0.00    +0.000 C 
ENDBRANCH  18  23
ENDBRANCH  14  15
ENDBRANCH   1  13
BRANCH   9  25
ATOM     25  C   UNL     1      -5.915  -2.064 131.823  0.00  0.00    +0.000 C 
ATOM     26  C   UNL     1      -6.664  -3.384 132.179  0.00  0.00    +0.000 C 
ENDBRANCH   9  25
BRANCH  12  27
ATOM     27  C   UNL     1      -7.193   0.335 127.726  0.00  0.00    +0.000 C 
ATOM     28  C   UNL     1      -8.203  -0.466 126.882  0.00  0.00    +0.000 C 
ENDBRANCH  12  27
TORSDOF 6
ENDMDL
MODEL 2
REMARK VINA RESULT:      -7.0      5.601     10.510
REMARK  Name = Istradefylline
REMARK  11 active torsions:
REMARK  status: ('A' for Active; 'I' for Inactive)
REMARK    1  A    between atoms: C_2  and  C_15
REMARK    2  A    between atoms: C_3  and  C_5
REMARK    3  A    between atoms: C_7  and  O_8
REMARK    4  A    between atoms: O_8  and  C_9
REMARK    5  A    between atoms: C_10  and  O_11
REMARK    6  A    between atoms: O_11  and  C_12
REMARK    7  A    between atoms: N_19  and  C_20
REMARK    8  A    between atoms: N_23  and  C_24
REMARK    9  A    between atoms: C_24  and  C_25
REMARK   10  A    between atoms: N_28  and  C_29
REMARK   11  A    between atoms: C_29  and  C_30
REMARK                            x       y       z     vdW  Elec       q    Type
REMARK                         _______ _______ _______ _____ _____    ______ ____
ROOT
ATOM      1  C   UNL     1      -7.577  -1.443 127.810  0.00  0.00    +0.000 A 
ATOM      2  N   UNL     1      -7.737  -2.050 126.641  0.00  0.00    +0.000 NA
ATOM      3  C   UNL     1      -8.208  -1.135 125.762  0.00  0.00    +0.000 A 
ATOM      4  C   UNL     1      -8.345   0.109 126.318  0.00  0.00    +0.000 A 
ATOM      5  N   UNL     1      -7.938  -0.079 127.662  0.00  0.00    +0.000 N 
ATOM      6  C   UNL     1      -7.878   0.954 128.682  0.00  0.00    +0.000 C 
ATOM      7  C   UNL     1      -8.821   1.219 125.492  0.00  0.00    +0.000 A 
ATOM      8  O   UNL     1      -8.963   2.373 125.920  0.00  0.00    +0.000 OA
ATOM      9  N   UNL     1      -9.112   0.883 124.140  0.00  0.00    +0.000 N 
ATOM     10  C   UNL     1      -8.954  -0.396 123.639  0.00  0.00    +0.000 A 
ATOM     11  O   UNL     1      -9.217  -0.633 122.465  0.00  0.00    +0.000 OA
ATOM     12  N   UNL     1      -8.503  -1.411 124.443  0.00  0.00    +0.000 N 
ENDROOT
BRANCH   1  13
ATOM     13  C   UNL     1      -6.967  -2.141 128.927  0.00  0.00    +0.000 C 
ATOM     14  C   UNL     1      -7.476  -2.396 130.154  0.00  0.00    +0.000 C 
BRANCH  14  15
ATOM     15  C   UNL     1      -6.878  -3.347 131.174  0.00  0.00    +0.000 A 
ATOM     16  C   UNL     1      -7.163  -3.233 132.556  0.00  0.00    +0.000 A 
ATOM     17  C   UNL     1      -6.483  -4.005 133.544  0.00  0.00    +0.000 A 
ATOM     18  C   UNL     1      -5.587  -5.011 133.142  0.00  0.00    +0.000 A 
ATOM     19  C   UNL     1      -5.293  -5.129 131.784  0.00  0.00    +0.000 A 
ATOM     20  C   UNL     1      -5.921  -4.309 130.821  0.00  0.00    +0.000 A 
BRANCH  17  21
ATOM     21  O   UNL     1      -6.757  -3.652 134.853  0.00  0.00    +0.000 OA
ATOM     22  C   UNL     1      -8.116  -3.761 135.297  0.00  0.00    +0.000 C 
ENDBRANCH  17  21
BRANCH  18  23
ATOM     23  O   UNL     1      -5.068  -5.831 134.102  0.00  0.00    +0.000 OA
ATOM     24  C   UNL     1      -3.737  -6.301 134.009  0.00  0.00    +0.000 C 
ENDBRANCH  18  23
ENDBRANCH  14  15
ENDBRANCH   1  13
BRANCH   9  25
ATOM     25  C   UNL     1      -9.612   1.922 123.174  0.00  0.00    +0.000 C 
ATOM     26  C   UNL     1      -8.598   2.873 122.467  0.00  0.00    +0.000 C 
ENDBRANCH   9  25
BRANCH  12  27
ATOM     27  C   UNL     1      -8.343  -2.773 123.893  0.00  0.00    +0.000 C 
ATOM     28  C   UNL     1      -9.616  -3.580 123.574  0.00  0.00    +0.000 C 
ENDBRANCH  12  27
TORSDOF 6
ENDMDL
MODEL 3
REMARK VINA RESULT:      -7.0      3.590      5.965
REMARK  Name = Istradefylline
REMARK  11 active torsions:
REMARK  status: ('A' for Active; 'I' for Inactive)
REMARK    1  A    between atoms: C_2  and  C_15
REMARK    2  A    between atoms: C_3  and  C_5
REMARK    3  A    between atoms: C_7  and  O_8
REMARK    4  A    between atoms: O_8  and  C_9
REMARK    5  A    between atoms: C_10  and  O_11
REMARK    6  A    between atoms: O_11  and  C_12
REMARK    7  A    between atoms: N_19  and  C_20
REMARK    8  A    between atoms: N_23  and  C_24
REMARK    9  A    between atoms: C_24  and  C_25
REMARK   10  A    between atoms: N_28  and  C_29
REMARK   11  A    between atoms: C_29  and  C_30
REMARK                            x       y       z     vdW  Elec       q    Type
REMARK                         _______ _______ _______ _____ _____    ______ ____
ROOT
ATOM      1  C   UNL     1      -8.224   1.619 127.754  0.00  0.00    +0.000 A 
ATOM      2  N   UNL     1      -8.685   1.948 126.555  0.00  0.00    +0.000 NA
ATOM      3  C   UNL     1      -8.656   0.838 125.782  0.00  0.00    +0.000 A 
ATOM      4  C   UNL     1      -8.201  -0.263 126.456  0.00  0.00    +0.000 A 
ATOM      5  N   UNL     1      -7.910   0.235 127.751  0.00  0.00    +0.000 N 
ATOM      6  C   UNL     1      -7.412  -0.549 128.868  0.00  0.00    +0.000 C 
ATOM      7  C   UNL     1      -8.131  -1.552 125.767  0.00  0.00    +0.000 A 
ATOM      8  O   UNL     1      -7.739  -2.594 126.312  0.00  0.00    +0.000 OA
ATOM      9  N   UNL     1      -8.554  -1.533 124.408  0.00  0.00    +0.000 N 
ATOM     10  C   UNL     1      -9.001  -0.384 123.783  0.00  0.00    +0.000 A 
ATOM     11  O   UNL     1      -9.357  -0.422 122.610  0.00  0.00    +0.000 OA
ATOM     12  N   UNL     1      -9.056   0.805 124.462  0.00  0.00    +0.000 N 
ENDROOT
BRANCH   1  13
ATOM     13  C   UNL     1      -8.247   2.576 128.844  0.00  0.00    +0.000 C 
ATOM     14  C   UNL     1      -9.067   2.627 129.918  0.00  0.00    +0.000 C 
BRANCH  14  15
ATOM     15  C   UNL     1      -8.865   3.505 131.139  0.00  0.00    +0.000 A 
ATOM     16  C   UNL     1      -9.819   4.479 131.523  0.00  0.00    +0.000 A 
ATOM     17  C   UNL     1      -9.571   5.425 132.561  0.00  0.00    +0.000 A 
ATOM     18  C   UNL     1      -8.398   5.322 133.328  0.00  0.00    +0.000 A 
ATOM     19  C   UNL     1      -7.448   4.372 132.956  0.00  0.00    +0.000 A 
ATOM     20  C   UNL     1      -7.674   3.486 131.880  0.00  0.00    +0.000 A 
BRANCH  17  21
ATOM     21  O   UNL     1     -10.532   6.412 132.696  0.00  0.00    +0.000 OA
ATOM     22  C   UNL     1     -11.540   6.496 131.678  0.00  0.00    +0.000 C 
ENDBRANCH  17  21
BRANCH  18  23
ATOM     23  O   UNL     1      -8.261   6.145 134.409  0.00  0.00    +0.000 OA
ATOM     24  C   UNL     1      -7.697   5.667 135.615  0.00  0.00    +0.000 C 
ENDBRANCH  18  23
ENDBRANCH  14  15
ENDBRANCH   1  13
BRANCH   9  25
ATOM     25  C   UNL     1      -8.535  -2.785 123.574  0.00  0.00    +0.000 C 
ATOM     26  C   UNL     1      -9.826  -3.650 123.448  0.00  0.00    +0.000 C 
ENDBRANCH   9  25
BRANCH  12  27
ATOM     27  C   UNL     1      -9.534   2.024 123.777  0.00  0.00    +0.000 C 
ATOM     28  C   UNL     1      -8.504   2.876 123.010  0.00  0.00    +0.000 C 
ENDBRANCH  12  27
TORSDOF 6
ENDMDL
MODEL 4
REMARK VINA RESULT:      -7.0      2.525      3.054
REMARK  Name = Istradefylline
REMARK  11 active torsions:
REMARK  status: ('A' for Active; 'I' for Inactive)
REMARK    1  A    between atoms: C_2  and  C_15
REMARK    2  A    between atoms: C_3  and  C_5
REMARK    3  A    between atoms: C_7  and  O_8
REMARK    4  A    between atoms: O_8  and  C_9
REMARK    5  A    between atoms: C_10  and  O_11
REMARK    6  A    between atoms: O_11  and  C_12
REMARK    7  A    between atoms: N_19  and  C_20
REMARK    8  A    between atoms: N_23  and  C_24
REMARK    9  A    between atoms: C_24  and  C_25
REMARK   10  A    between atoms: N_28  and  C_29
REMARK   11  A    between atoms: C_29  and  C_30
REMARK                            x       y       z     vdW  Elec       q    Type
REMARK                         _______ _______ _______ _____ _____    ______ ____
ROOT
ATOM      1  C   UNL     1      -8.109   3.930 131.583  0.00  0.00    +0.000 A 
ATOM      2  N   UNL     1      -6.815   4.219 131.575  0.00  0.00    +0.000 NA
ATOM      3  C   UNL     1      -6.157   3.184 132.148  0.00  0.00    +0.000 A 
ATOM      4  C   UNL     1      -6.996   2.170 132.525  0.00  0.00    +0.000 A 
ATOM      5  N   UNL     1      -8.281   2.647 132.163  0.00  0.00    +0.000 N 
ATOM      6  C   UNL     1      -9.531   1.928 132.334  0.00  0.00    +0.000 C 
ATOM      7  C   UNL     1      -6.439   0.964 133.139  0.00  0.00    +0.000 A 
ATOM      8  O   UNL     1      -7.132   0.001 133.497  0.00  0.00    +0.000 OA
ATOM      9  N   UNL     1      -5.025   0.966 133.297  0.00  0.00    +0.000 N 
ATOM     10  C   UNL     1      -4.232   2.026 132.897  0.00  0.00    +0.000 A 
ATOM     11  O   UNL     1      -3.016   1.977 133.053  0.00  0.00    +0.000 OA
ATOM     12  N   UNL     1      -4.790   3.139 132.323  0.00  0.00    +0.000 N 
ENDROOT
BRANCH   1  13
ATOM     13  C   UNL     1      -9.064   4.801 130.923  0.00  0.00    +0.000 C 
ATOM     14  C   UNL     1     -10.236   5.291 131.388  0.00  0.00    +0.000 C 
BRANCH  14  15
ATOM     15  C   UNL     1     -11.049   6.394 130.737  0.00  0.00    +0.000 A 
ATOM     16  C   UNL     1     -10.685   6.950 129.486  0.00  0.00    +0.000 A 
ATOM     17  C   UNL     1     -11.335   8.096 128.940  0.00  0.00    +0.000 A 
ATOM     18  C   UNL     1     -12.461   8.629 129.589  0.00  0.00    +0.000 A 
ATOM     19  C   UNL     1     -12.827   8.096 130.824  0.00  0.00    +0.000 A 
ATOM     20  C   UNL     1     -12.130   7.005 131.389  0.00  0.00    +0.000 A 
BRANCH  17  21
ATOM     21  O   UNL     1     -10.748   8.612 127.798  0.00  0.00    +0.000 OA
ATOM     22  C   UNL     1     -10.853   7.838 126.594  0.00  0.00    +0.000 C 
ENDBRANCH  17  21
BRANCH  18  23
ATOM     23  O   UNL     1     -13.150   9.629 128.964  0.00  0.00    +0.000 OA
ATOM     24  C   UNL     1     -13.529  10.796 129.669  0.00  0.00    +0.000 C 
ENDBRANCH  18  23
ENDBRANCH  14  15
ENDBRANCH   1  13
BRANCH   9  25
ATOM     25  C   UNL     1      -4.313  -0.206 133.915  0.00  0.00    +0.000 C 
ATOM     26  C   UNL     1      -3.869  -1.402 133.018  0.00  0.00    +0.000 C 
ENDBRANCH   9  25
BRANCH  12  27
ATOM     27  C   UNL     1      -3.928   4.264 131.904  0.00  0.00    +0.000 C 
ATOM     28  C   UNL     1      -3.411   4.280 130.452  0.00  0.00    +0.000 C 
ENDBRANCH  12  27
TORSDOF 6
ENDMDL
MODEL 5
REMARK VINA RESULT:      -6.7      6.740     10.856
REMARK  Name = Istradefylline
REMARK  11 active torsions:
REMARK  status: ('A' for Active; 'I' for Inactive)
REMARK    1  A    between atoms: C_2  and  C_15
REMARK    2  A    between atoms: C_3  and  C_5
REMARK    3  A    between atoms: C_7  and  O_8
REMARK    4  A    between atoms: O_8  and  C_9
REMARK    5  A    between atoms: C_10  and  O_11
REMARK    6  A    between atoms: O_11  and  C_12
REMARK    7  A    between atoms: N_19  and  C_20
REMARK    8  A    between atoms: N_23  and  C_24
REMARK    9  A    between atoms: C_24  and  C_25
REMARK   10  A    between atoms: N_28  and  C_29
REMARK   11  A    between atoms: C_29  and  C_30
REMARK                            x       y       z     vdW  Elec       q    Type
REMARK                         _______ _______ _______ _____ _____    ______ ____
ROOT
ATOM      1  C   UNL     1      -5.998  -0.493 127.280  0.00  0.00    +0.000 A 
ATOM      2  N   UNL     1      -5.384   0.680 127.354  0.00  0.00    +0.000 NA
ATOM      3  C   UNL     1      -5.674   1.369 126.225  0.00  0.00    +0.000 A 
ATOM      4  C   UNL     1      -6.510   0.681 125.388  0.00  0.00    +0.000 A 
ATOM      5  N   UNL     1      -6.729  -0.544 126.065  0.00  0.00    +0.000 N 
ATOM      6  C   UNL     1      -7.575  -1.630 125.601  0.00  0.00    +0.000 C 
ATOM      7  C   UNL     1      -6.941   1.299 124.133  0.00  0.00    +0.000 A 
ATOM      8  O   UNL     1      -7.703   0.745 123.328  0.00  0.00    +0.000 OA
ATOM      9  N   UNL     1      -6.423   2.603 123.893  0.00  0.00    +0.000 N 
ATOM     10  C   UNL     1      -5.577   3.243 124.780  0.00  0.00    +0.000 A 
ATOM     11  O   UNL     1      -5.160   4.368 124.527  0.00  0.00    +0.000 OA
ATOM     12  N   UNL     1      -5.198   2.634 125.948  0.00  0.00    +0.000 N 
ENDROOT
BRANCH   1  13
ATOM     13  C   UNL     1      -5.974  -1.411 128.404  0.00  0.00    +0.000 C 
ATOM     14  C   UNL     1      -5.171  -2.478 128.618  0.00  0.00    +0.000 C 
BRANCH  14  15
ATOM     15  C   UNL     1      -5.039  -3.231 129.929  0.00  0.00    +0.000 A 
ATOM     16  C   UNL     1      -4.084  -2.861 130.908  0.00  0.00    +0.000 A 
ATOM     17  C   UNL     1      -3.830  -3.654 132.066  0.00  0.00    +0.000 A 
ATOM     18  C   UNL     1      -4.632  -4.777 132.327  0.00  0.00    +0.000 A 
ATOM     19  C   UNL     1      -5.571  -5.156 131.369  0.00  0.00    +0.000 A 
ATOM     20  C   UNL     1      -5.765  -4.402 130.190  0.00  0.00    +0.000 A 
BRANCH  17  21
ATOM     21  O   UNL     1      -2.752  -3.243 132.831  0.00  0.00    +0.000 OA
ATOM     22  C   UNL     1      -2.977  -2.186 133.774  0.00  0.00    +0.000 C 
ENDBRANCH  17  21
BRANCH  18  23
ATOM     23  O   UNL     1      -4.463  -5.426 133.517  0.00  0.00    +0.000 OA
ATOM     24  C   UNL     1      -5.495  -5.442 134.485  0.00  0.00    +0.000 C 
ENDBRANCH  18  23
ENDBRANCH  14  15
ENDBRANCH   1  13
BRANCH   9  25
ATOM     25  C   UNL     1      -6.777   3.359 122.643  0.00  0.00    +0.000 C 
ATOM     26  C   UNL     1      -5.910   3.182 121.359  0.00  0.00    +0.000 C 
ENDBRANCH   9  25
BRANCH  12  27
ATOM     27  C   UNL     1      -4.291   3.331 126.884  0.00  0.00    +0.000 C 
ATOM     28  C   UNL     1      -2.776   3.086 126.743  0.00  0.00    +0.000 C 
ENDBRANCH  12  27
TORSDOF 6
ENDMDL
MODEL 6
REMARK VINA RESULT:      -6.6      7.560      9.219
REMARK  Name = Istradefylline
REMARK  11 active torsions:
REMARK  status: ('A' for Active; 'I' for Inactive)
REMARK    1  A    between atoms: C_2  and  C_15
REMARK    2  A    between atoms: C_3  and  C_5
REMARK    3  A    between atoms: C_7  and  O_8
REMARK    4  A    between atoms: O_8  and  C_9
REMARK    5  A    between atoms: C_10  and  O_11
REMARK    6  A    between atoms: O_11  and  C_12
REMARK    7  A    between atoms: N_19  and  C_20
REMARK    8  A    between atoms: N_23  and  C_24
REMARK    9  A    between atoms: C_24  and  C_25
REMARK   10  A    between atoms: N_28  and  C_29
REMARK   11  A    between atoms: C_29  and  C_30
REMARK                            x       y       z     vdW  Elec       q    Type
REMARK                         _______ _______ _______ _____ _____    ______ ____
ROOT
ATOM      1  C   UNL     1      -5.358  -3.805 131.252  0.00  0.00    +0.000 A 
ATOM      2  N   UNL     1      -5.715  -4.515 132.314  0.00  0.00    +0.000 NA
ATOM      3  C   UNL     1      -4.810  -4.276 133.293  0.00  0.00    +0.000 A 
ATOM      4  C   UNL     1      -3.847  -3.381 132.914  0.00  0.00    +0.000 A 
ATOM      5  N   UNL     1      -4.191  -3.065 131.576  0.00  0.00    +0.000 N 
ATOM      6  C   UNL     1      -3.486  -2.129 130.717  0.00  0.00    +0.000 C 
ATOM      7  C   UNL     1      -2.806  -2.995 133.867  0.00  0.00    +0.000 A 
ATOM      8  O   UNL     1      -1.907  -2.185 133.602  0.00  0.00    +0.000 OA
ATOM      9  N   UNL     1      -2.896  -3.619 135.143  0.00  0.00    +0.000 N 
ATOM     10  C   UNL     1      -3.895  -4.520 135.464  0.00  0.00    +0.000 A 
ATOM     11  O   UNL     1      -3.930  -5.028 136.579  0.00  0.00    +0.000 OA
ATOM     12  N   UNL     1      -4.855  -4.854 134.545  0.00  0.00    +0.000 N 
ENDROOT
BRANCH   1  13
ATOM     13  C   UNL     1      -6.206  -3.759 130.076  0.00  0.00    +0.000 C 
ATOM     14  C   UNL     1      -7.043  -2.778 129.664  0.00  0.00    +0.000 C 
BRANCH  14  15
ATOM     15  C   UNL     1      -7.698  -2.697 128.299  0.00  0.00    +0.000 A 
ATOM     16  C   UNL     1      -7.462  -1.610 127.422  0.00  0.00    +0.000 A 
ATOM     17  C   UNL     1      -8.196  -1.430 126.212  0.00  0.00    +0.000 A 
ATOM     18  C   UNL     1      -9.098  -2.423 125.794  0.00  0.00    +0.000 A 
ATOM     19  C   UNL     1      -9.345  -3.495 126.651  0.00  0.00    +0.000 A 
ATOM     20  C   UNL     1      -8.664  -3.625 127.881  0.00  0.00    +0.000 A 
BRANCH  17  21
ATOM     21  O   UNL     1      -7.963  -0.233 125.559  0.00  0.00    +0.000 OA
ATOM     22  C   UNL     1      -6.967  -0.225 124.527  0.00  0.00    +0.000 C 
ENDBRANCH  17  21
BRANCH  18  23
ATOM     23  O   UNL     1      -9.670  -2.294 124.561  0.00  0.00    +0.000 OA
ATOM     24  C   UNL     1      -9.335  -3.182 123.511  0.00  0.00    +0.000 C 
ENDBRANCH  18  23
ENDBRANCH  14  15
ENDBRANCH   1  13
BRANCH   9  25
ATOM     25  C   UNL     1      -1.893  -3.321 136.224  0.00  0.00    +0.000 C 
ATOM     26  C   UNL     1      -2.065  -2.049 137.110  0.00  0.00    +0.000 C 
ENDBRANCH   9  25
BRANCH  12  27
ATOM     27  C   UNL     1      -5.914  -5.821 134.902  0.00  0.00    +0.000 C 
ATOM     28  C   UNL     1      -7.260  -5.268 135.410  0.00  0.00    +0.000 C 
ENDBRANCH  12  27
TORSDOF 6
ENDMDL
MODEL 7
REMARK VINA RESULT:      -6.5      5.423      7.574
REMARK  Name = Istradefylline
REMARK  11 active torsions:
REMARK  status: ('A' for Active; 'I' for Inactive)
REMARK    1  A    between atoms: C_2  and  C_15
REMARK    2  A    between atoms: C_3  and  C_5
REMARK    3  A    between atoms: C_7  and  O_8
REMARK    4  A    between atoms: O_8  and  C_9
REMARK    5  A    between atoms: C_10  and  O_11
REMARK    6  A    between atoms: O_11  and  C_12
REMARK    7  A    between atoms: N_19  and  C_20
REMARK    8  A    between atoms: N_23  and  C_24
REMARK    9  A    between atoms: C_24  and  C_25
REMARK   10  A    between atoms: N_28  and  C_29
REMARK   11  A    between atoms: C_29  and  C_30
REMARK                            x       y       z     vdW  Elec       q    Type
REMARK                         _______ _______ _______ _____ _____    ______ ____
ROOT
ATOM      1  C   UNL     1      -6.170   1.710 126.531  0.00  0.00    +0.000 A 
ATOM      2  N   UNL     1      -7.079   2.114 125.654  0.00  0.00    +0.000 NA
ATOM      3  C   UNL     1      -7.510   1.025 124.975  0.00  0.00    +0.000 A 
ATOM      4  C   UNL     1      -6.917  -0.132 125.404  0.00  0.00    +0.000 A 
ATOM      5  N   UNL     1      -6.033   0.302 126.423  0.00  0.00    +0.000 N 
ATOM      6  C   UNL     1      -5.174  -0.555 127.221  0.00  0.00    +0.000 C 
ATOM      7  C   UNL     1      -7.293  -1.405 124.787  0.00  0.00    +0.000 A 
ATOM      8  O   UNL     1      -6.809  -2.494 125.126  0.00  0.00    +0.000 OA
ATOM      9  N   UNL     1      -8.270  -1.311 123.757  0.00  0.00    +0.000 N 
ATOM     10  C   UNL     1      -8.829  -0.108 123.367  0.00  0.00    +0.000 A 
ATOM     11  O   UNL     1      -9.670  -0.082 122.475  0.00  0.00    +0.000 OA
ATOM     12  N   UNL     1      -8.454   1.064 123.970  0.00  0.00    +0.000 N 
ENDROOT
BRANCH   1  13
ATOM     13  C   UNL     1      -5.609   2.639 127.495  0.00  0.00    +0.000 C 
ATOM     14  C   UNL     1      -4.463   3.353 127.424  0.00  0.00    +0.000 C 
BRANCH  14  15
ATOM     15  C   UNL     1      -4.075   4.489 128.353  0.00  0.00    +0.000 A 
ATOM     16  C   UNL     1      -5.043   5.210 129.094  0.00  0.00    +0.000 A 
ATOM     17  C   UNL     1      -4.720   6.384 129.836  0.00  0.00    +0.000 A 
ATOM     18  C   UNL     1      -3.378   6.782 129.955  0.00  0.00    +0.000 A 
ATOM     19  C   UNL     1      -2.415   6.085 129.225  0.00  0.00    +0.000 A 
ATOM     20  C   UNL     1      -2.759   4.966 128.435  0.00  0.00    +0.000 A 
BRANCH  17  21
ATOM     21  O   UNL     1      -5.806   7.062 130.361  0.00  0.00    +0.000 OA
ATOM     22  C   UNL     1      -6.454   6.489 131.505  0.00  0.00    +0.000 C 
ENDBRANCH  17  21
BRANCH  18  23
ATOM     23  O   UNL     1      -3.086   7.818 130.794  0.00  0.00    +0.000 OA
ATOM     24  C   UNL     1      -2.775   7.582 132.154  0.00  0.00    +0.000 C 
ENDBRANCH  18  23
ENDBRANCH  14  15
ENDBRANCH   1  13
BRANCH   9  25
ATOM     25  C   UNL     1      -8.751  -2.538 123.031  0.00  0.00    +0.000 C 
ATOM     26  C   UNL     1      -9.711  -3.535 123.750  0.00  0.00    +0.000 C 
ENDBRANCH   9  25
BRANCH  12  27
ATOM     27  C   UNL     1      -9.059   2.342 123.540  0.00  0.00    +0.000 C 
ATOM     28  C   UNL     1      -8.399   3.100 122.372  0.00  0.00    +0.000 C 
ENDBRANCH  12  27
TORSDOF 6
ENDMDL
MODEL 8
REMARK VINA RESULT:      -6.5      5.690      9.613
REMARK  Name = Istradefylline
REMARK  11 active torsions:
REMARK  status: ('A' for Active; 'I' for Inactive)
REMARK    1  A    between atoms: C_2  and  C_15
REMARK    2  A    between atoms: C_3  and  C_5
REMARK    3  A    between atoms: C_7  and  O_8
REMARK    4  A    between atoms: O_8  and  C_9
REMARK    5  A    between atoms: C_10  and  O_11
REMARK    6  A    between atoms: O_11  and  C_12
REMARK    7  A    between atoms: N_19  and  C_20
REMARK    8  A    between atoms: N_23  and  C_24
REMARK    9  A    between atoms: C_24  and  C_25
REMARK   10  A    between atoms: N_28  and  C_29
REMARK   11  A    between atoms: C_29  and  C_30
REMARK                            x       y       z     vdW  Elec       q    Type
REMARK                         _______ _______ _______ _____ _____    ______ ____
ROOT
ATOM      1  C   UNL     1      -4.937   2.807 127.886  0.00  0.00    +0.000 A 
ATOM      2  N   UNL     1      -5.359   2.864 129.142  0.00  0.00    +0.000 NA
ATOM      3  C   UNL     1      -4.619   3.796 129.785  0.00  0.00    +0.000 A 
ATOM      4  C   UNL     1      -3.705   4.402 128.965  0.00  0.00    +0.000 A 
ATOM      5  N   UNL     1      -3.900   3.761 127.716  0.00  0.00    +0.000 N 
ATOM      6  C   UNL     1      -3.182   4.059 126.489  0.00  0.00    +0.000 C 
ATOM      7  C   UNL     1      -2.841   5.454 129.502  0.00  0.00    +0.000 A 
ATOM      8  O   UNL     1      -1.997   6.054 128.821  0.00  0.00    +0.000 OA
ATOM      9  N   UNL     1      -3.037   5.751 130.880  0.00  0.00    +0.000 N 
ATOM     10  C   UNL     1      -3.977   5.099 131.656  0.00  0.00    +0.000 A 
ATOM     11  O   UNL     1      -4.109   5.395 132.839  0.00  0.00    +0.000 OA
ATOM     12  N   UNL     1      -4.772   4.121 131.117  0.00  0.00    +0.000 N 
ENDROOT
BRANCH   1  13
ATOM     13  C   UNL     1      -5.623   1.979 126.912  0.00  0.00    +0.000 C 
ATOM     14  C   UNL     1      -5.159   0.916 126.217  0.00  0.00    +0.000 C 
BRANCH  14  15
ATOM     15  C   UNL     1      -6.010  -0.048 125.412  0.00  0.00    +0.000 A 
ATOM     16  C   UNL     1      -5.675  -1.419 125.294  0.00  0.00    +0.000 A 
ATOM     17  C   UNL     1      -6.362  -2.302 124.409  0.00  0.00    +0.000 A 
ATOM     18  C   UNL     1      -7.495  -1.845 123.716  0.00  0.00    +0.000 A 
ATOM     19  C   UNL     1      -7.833  -0.495 123.818  0.00  0.00    +0.000 A 
ATOM     20  C   UNL     1      -7.100   0.386 124.643  0.00  0.00    +0.000 A 
BRANCH  17  21
ATOM     21  O   UNL     1      -5.803  -3.562 124.288  0.00  0.00    +0.000 OA
ATOM     22  C   UNL     1      -4.587  -3.676 123.536  0.00  0.00    +0.000 C 
ENDBRANCH  17  21
BRANCH  18  23
ATOM     23  O   UNL     1      -8.218  -2.752 122.996  0.00  0.00    +0.000 OA
ATOM     24  C   UNL     1      -9.459  -3.234 123.477  0.00  0.00    +0.000 C 
ENDBRANCH  18  23
ENDBRANCH  14  15
ENDBRANCH   1  13
BRANCH   9  25
ATOM     25  C   UNL     1      -2.219   6.809 131.568  0.00  0.00    +0.000 C 
ATOM     26  C   UNL     1      -0.803   6.455 132.118  0.00  0.00    +0.000 C 
ENDBRANCH   9  25
BRANCH  12  27
ATOM     27  C   UNL     1      -5.770   3.432 131.962  0.00  0.00    +0.000 C 
ATOM     28  C   UNL     1      -7.201   4.004 132.005  0.00  0.00    +0.000 C 
ENDBRANCH  12  27
TORSDOF 6
ENDMDL
MODEL 9
REMARK VINA RESULT:      -6.3      6.200      7.784
REMARK  Name = Istradefylline
REMARK  11 active torsions:
REMARK  status: ('A' for Active; 'I' for Inactive)
REMARK    1  A    between atoms: C_2  and  C_15
REMARK    2  A    between atoms: C_3  and  C_5
REMARK    3  A    between atoms: C_7  and  O_8
REMARK    4  A    between atoms: O_8  and  C_9
REMARK    5  A    between atoms: C_10  and  O_11
REMARK    6  A    between atoms: O_11  and  C_12
REMARK    7  A    between atoms: N_19  and  C_20
REMARK    8  A    between atoms: N_23  and  C_24
REMARK    9  A    between atoms: C_24  and  C_25
REMARK   10  A    between atoms: N_28  and  C_29
REMARK   11  A    between atoms: C_29  and  C_30
REMARK                            x       y       z     vdW  Elec       q    Type
REMARK                         _______ _______ _______ _____ _____    ______ ____
ROOT
ATOM      1  C   UNL     1      -5.195   1.265 127.786  0.00  0.00    +0.000 A 
ATOM      2  N   UNL     1      -5.828   1.671 126.693  0.00  0.00    +0.000 NA
ATOM      3  C   UNL     1      -6.627   0.660 126.278  0.00  0.00    +0.000 A 
ATOM      4  C   UNL     1      -6.565  -0.432 127.101  0.00  0.00    +0.000 A 
ATOM      5  N   UNL     1      -5.627  -0.051 128.093  0.00  0.00    +0.000 N 
ATOM      6  C   UNL     1      -5.218  -0.861 129.228  0.00  0.00    +0.000 C 
ATOM      7  C   UNL     1      -7.389  -1.605 126.806  0.00  0.00    +0.000 A 
ATOM      8  O   UNL     1      -7.396  -2.626 127.507  0.00  0.00    +0.000 OA
ATOM      9  N   UNL     1      -8.201  -1.493 125.642  0.00  0.00    +0.000 N 
ATOM     10  C   UNL     1      -8.215  -0.360 124.849  0.00  0.00    +0.000 A 
ATOM     11  O   UNL     1      -8.935  -0.314 123.857  0.00  0.00    +0.000 OA
ATOM     12  N   UNL     1      -7.431   0.720 125.160  0.00  0.00    +0.000 N 
ENDROOT
BRANCH   1  13
ATOM     13  C   UNL     1      -4.354   2.179 128.536  0.00  0.00    +0.000 C 
ATOM     14  C   UNL     1      -3.969   3.437 128.222  0.00  0.00    +0.000 C 
BRANCH  14  15
ATOM     15  C   UNL     1      -3.302   4.416 129.170  0.00  0.00    +0.000 A 
ATOM     16  C   UNL     1      -3.506   4.354 130.571  0.00  0.00    +0.000 A 
ATOM     17  C   UNL     1      -3.027   5.362 131.459  0.00  0.00    +0.000 A 
ATOM     18  C   UNL     1      -2.213   6.393 130.962  0.00  0.00    +0.000 A 
ATOM     19  C   UNL     1      -2.009   6.470 129.584  0.00  0.00    +0.000 A 
ATOM     20  C   UNL     1      -2.549   5.504 128.706  0.00  0.00    +0.000 A 
BRANCH  17  21
ATOM     21  O   UNL     1      -3.456   5.239 132.768  0.00  0.00    +0.000 OA
ATOM     22  C   UNL     1      -2.919   4.157 133.541  0.00  0.00    +0.000 C 
ENDBRANCH  17  21
BRANCH  18  23
ATOM     23  O   UNL     1      -1.647   7.255 131.858  0.00  0.00    +0.000 OA
ATOM     24  C   UNL     1      -0.401   6.958 132.459  0.00  0.00    +0.000 C 
ENDBRANCH  18  23
ENDBRANCH  14  15
ENDBRANCH   1  13
BRANCH   9  25
ATOM     25  C   UNL     1      -9.099  -2.621 125.213  0.00  0.00    +0.000 C 
ATOM     26  C   UNL     1      -8.518  -3.792 124.364  0.00  0.00    +0.000 C 
ENDBRANCH   9  25
BRANCH  12  27
ATOM     27  C   UNL     1      -7.456   1.922 124.300  0.00  0.00    +0.000 C 
ATOM     28  C   UNL     1      -8.481   3.026 124.627  0.00  0.00    +0.000 C 
ENDBRANCH  12  27
TORSDOF 6
ENDMDL
