MODEL 1
REMARK VINA RESULT:      -6.8      0.000      0.000
REMARK  Name = Ivabradine
REMARK  15 active torsions:
REMARK  status: ('A' for Active; 'I' for Inactive)
REMARK    1  A    between atoms: C_1  and  O_2
REMARK    2  A    between atoms: O_2  and  C_3
REMARK    3  A    between atoms: C_4  and  O_5
REMARK    4  A    between atoms: O_5  and  C_6
REMARK    5  A    between atoms: C_9  and  C_10
REMARK    6  A    between atoms: C_10  and  N_11
REMARK    7  A    between atoms: N_11  and  C_12
REMARK    8  A    between atoms: N_11  and  C_13
REMARK    9  A    between atoms: C_13  and  C_14
REMARK   10  A    between atoms: C_14  and  C_15
REMARK   11  A    between atoms: C_15  and  N_16
REMARK   12  A    between atoms: C_21  and  O_22
REMARK   13  A    between atoms: O_22  and  C_23
REMARK   14  A    between atoms: C_24  and  O_25
REMARK   15  A    between atoms: O_25  and  C_26
REMARK                            x       y       z     vdW  Elec       q    Type
REMARK                         _______ _______ _______ _____ _____    ______ ____
ROOT
ATOM      1  C   UNL     1      -6.326   1.047 130.822  0.00  0.00    +0.000 C 
ENDROOT
BRANCH   1   2
ATOM      2  C   UNL     1      -7.348   0.060 131.390  0.00  0.00    +0.000 C 
BRANCH   2   3
ATOM      3  N   UNL     1      -6.894  -1.315 131.150  0.00  0.00    +0.000 NA
ATOM      4  C   UNL     1      -6.070  -1.770 132.260  0.00  0.00    +0.000 C 
BRANCH   3   5
ATOM      5  C   UNL     1      -6.155  -1.431 129.869  0.00  0.00    +0.000 C 
BRANCH   5  10
ATOM      6  C   UNL     1      -8.630  -2.473 125.376  0.00  0.00    +0.000 A 
ATOM      7  C   UNL     1      -7.317  -1.976 125.250  0.00  0.00    +0.000 A 
ATOM      8  C   UNL     1      -6.479  -2.018 126.364  0.00  0.00    +0.000 A 
ATOM      9  C   UNL     1      -6.935  -2.446 127.593  0.00  0.00    +0.000 A 
ATOM     10  C   UNL     1      -6.566  -2.674 129.051  0.00  0.00    +0.000 C 
ATOM     11  C   UNL     1      -8.065  -3.125 129.221  0.00  0.00    +0.000 C 
ATOM     12  C   UNL     1      -8.219  -2.868 127.743  0.00  0.00    +0.000 A 
ATOM     13  C   UNL     1      -9.081  -2.891 126.660  0.00  0.00    +0.000 A 
BRANCH   6  15
ATOM     14  C   UNL     1      -9.477  -3.340 123.304  0.00  0.00    +0.000 C 
ATOM     15  O   UNL     1      -9.629  -2.483 124.432  0.00  0.00    +0.000 OA
ENDBRANCH   6  15
BRANCH   7  16
ATOM     16  O   UNL     1      -6.631  -1.343 124.245  0.00  0.00    +0.000 OA
ATOM     17  C   UNL     1      -5.941  -2.136 123.328  0.00  0.00    +0.000 C 
ENDBRANCH   7  16
ENDBRANCH   5  10
ENDBRANCH   3   5
ENDBRANCH   2   3
ENDBRANCH   1   2
BRANCH   1  18
ATOM     18  C   UNL     1      -6.944   2.347 130.356  0.00  0.00    +0.000 C 
BRANCH  18  19
ATOM     19  N   UNL     1      -7.058   2.338 128.896  0.00  0.00    +0.000 N 
ATOM     20  C   UNL     1      -8.372   2.091 128.329  0.00  0.00    +0.000 C 
ATOM     21  C   UNL     1      -8.318   0.921 127.356  0.00  0.00    +0.000 C 
ATOM     22  C   UNL     1      -7.939   1.436 125.991  0.00  0.00    +0.000 A 
ATOM     23  C   UNL     1      -8.906   1.490 124.976  0.00  0.00    +0.000 A 
ATOM     24  C   UNL     1      -8.610   2.013 123.712  0.00  0.00    +0.000 A 
ATOM     25  C   UNL     1      -7.308   2.474 123.456  0.00  0.00    +0.000 A 
ATOM     26  C   UNL     1      -6.343   2.438 124.479  0.00  0.00    +0.000 A 
ATOM     27  C   UNL     1      -6.655   1.954 125.761  0.00  0.00    +0.000 A 
ATOM     28  C   UNL     1      -5.651   2.021 126.892  0.00  0.00    +0.000 C 
ATOM     29  C   UNL     1      -6.079   2.918 128.073  0.00  0.00    +0.000 C 
ATOM     30  O   UNL     1      -5.512   3.961 128.339  0.00  0.00    +0.000 OA
BRANCH  24  31
ATOM     31  O   UNL     1      -9.689   2.008 122.857  0.00  0.00    +0.000 OA
ATOM     32  C   UNL     1     -10.273   0.753 122.523  0.00  0.00    +0.000 C 
ENDBRANCH  24  31
BRANCH  25  33
ATOM     33  O   UNL     1      -7.060   2.959 122.204  0.00  0.00    +0.000 OA
ATOM     34  C   UNL     1      -5.886   3.706 121.957  0.00  0.00    +0.000 C 
ENDBRANCH  25  33
ENDBRANCH  18  19
ENDBRANCH   1  18
TORSDOF 10
ENDMDL
MODEL 2
REMARK VINA RESULT:      -6.8      2.788      7.684
REMARK  Name = Ivabradine
REMARK  15 active torsions:
REMARK  status: ('A' for Active; 'I' for Inactive)
REMARK    1  A    between atoms: C_1  and  O_2
REMARK    2  A    between atoms: O_2  and  C_3
REMARK    3  A    between atoms: C_4  and  O_5
REMARK    4  A    between atoms: O_5  and  C_6
REMARK    5  A    between atoms: C_9  and  C_10
REMARK    6  A    between atoms: C_10  and  N_11
REMARK    7  A    between atoms: N_11  and  C_12
REMARK    8  A    between atoms: N_11  and  C_13
REMARK    9  A    between atoms: C_13  and  C_14
REMARK   10  A    between atoms: C_14  and  C_15
REMARK   11  A    between atoms: C_15  and  N_16
REMARK   12  A    between atoms: C_21  and  O_22
REMARK   13  A    between atoms: O_22  and  C_23
REMARK   14  A    between atoms: C_24  and  O_25
REMARK   15  A    between atoms: O_25  and  C_26
REMARK                            x       y       z     vdW  Elec       q    Type
REMARK                         _______ _______ _______ _____ _____    ______ ____
ROOT
ATOM      1  C   UNL     1      -9.167  -1.607 123.005  0.00  0.00    +0.000 C 
ENDROOT
BRANCH   1   2
ATOM      2  C   UNL     1      -8.393  -0.348 123.402  0.00  0.00    +0.000 C 
BRANCH   2   3
ATOM      3  N   UNL     1      -9.215   0.475 124.297  0.00  0.00    +0.000 NA
ATOM      4  C   UNL     1     -10.144   1.284 123.522  0.00  0.00    +0.000 C 
BRANCH   3   5
ATOM      5  C   UNL     1      -8.378   1.334 125.171  0.00  0.00    +0.000 C 
BRANCH   5  10
ATOM      6  C   UNL     1      -3.941   3.661 126.688  0.00  0.00    +0.000 A 
ATOM      7  C   UNL     1      -4.301   2.503 127.406  0.00  0.00    +0.000 A 
ATOM      8  C   UNL     1      -5.243   1.638 126.849  0.00  0.00    +0.000 A 
ATOM      9  C   UNL     1      -5.887   1.940 125.667  0.00  0.00    +0.000 A 
ATOM     10  C   UNL     1      -6.928   1.476 124.659  0.00  0.00    +0.000 C 
ATOM     11  C   UNL     1      -6.608   2.824 123.911  0.00  0.00    +0.000 C 
ATOM     12  C   UNL     1      -5.594   3.086 124.996  0.00  0.00    +0.000 A 
ATOM     13  C   UNL     1      -4.634   3.957 125.480  0.00  0.00    +0.000 A 
BRANCH   6  15
ATOM     14  C   UNL     1      -3.549   5.628 128.007  0.00  0.00    +0.000 C 
ATOM     15  O   UNL     1      -3.081   4.664 127.068  0.00  0.00    +0.000 OA
ENDBRANCH   6  15
BRANCH   7  16
ATOM     16  O   UNL     1      -3.985   2.017 128.649  0.00  0.00    +0.000 OA
ATOM     17  C   UNL     1      -4.843   1.074 129.217  0.00  0.00    +0.000 C 
ENDBRANCH   7  16
ENDBRANCH   5  10
ENDBRANCH   3   5
ENDBRANCH   2   3
ENDBRANCH   1   2
BRANCH   1  18
ATOM     18  C   UNL     1      -8.384  -2.883 123.222  0.00  0.00    +0.000 C 
BRANCH  18  19
ATOM     19  N   UNL     1      -7.777  -2.863 124.554  0.00  0.00    +0.000 N 
ATOM     20  C   UNL     1      -8.635  -3.165 125.687  0.00  0.00    +0.000 C 
ATOM     21  C   UNL     1      -8.576  -2.041 126.711  0.00  0.00    +0.000 C 
ATOM     22  C   UNL     1      -7.424  -2.293 127.650  0.00  0.00    +0.000 A 
ATOM     23  C   UNL     1      -7.679  -2.705 128.966  0.00  0.00    +0.000 A 
ATOM     24  C   UNL     1      -6.637  -3.004 129.852  0.00  0.00    +0.000 A 
ATOM     25  C   UNL     1      -5.310  -2.867 129.412  0.00  0.00    +0.000 A 
ATOM     26  C   UNL     1      -5.055  -2.472 128.086  0.00  0.00    +0.000 A 
ATOM     27  C   UNL     1      -6.102  -2.217 127.185  0.00  0.00    +0.000 A 
ATOM     28  C   UNL     1      -5.828  -1.903 125.729  0.00  0.00    +0.000 C 
ATOM     29  C   UNL     1      -6.386  -2.946 124.736  0.00  0.00    +0.000 C 
ATOM     30  O   UNL     1      -5.666  -3.665 124.072  0.00  0.00    +0.000 OA
BRANCH  24  31
ATOM     31  O   UNL     1      -7.079  -3.416 131.089  0.00  0.00    +0.000 OA
ATOM     32  C   UNL     1      -7.251  -2.429 132.102  0.00  0.00    +0.000 C 
ENDBRANCH  24  31
BRANCH  25  33
ATOM     33  O   UNL     1      -4.327  -3.152 130.315  0.00  0.00    +0.000 OA
ATOM     34  C   UNL     1      -3.381  -2.162 130.664  0.00  0.00    +0.000 C 
ENDBRANCH  25  33
ENDBRANCH  18  19
ENDBRANCH   1  18
TORSDOF 10
ENDMDL
MODEL 3
REMARK VINA RESULT:      -6.7      2.784      7.352
REMARK  Name = Ivabradine
REMARK  15 active torsions:
REMARK  status: ('A' for Active; 'I' for Inactive)
REMARK    1  A    between atoms: C_1  and  O_2
REMARK    2  A    between atoms: O_2  and  C_3
REMARK    3  A    between atoms: C_4  and  O_5
REMARK    4  A    between atoms: O_5  and  C_6
REMARK    5  A    between atoms: C_9  and  C_10
REMARK    6  A    between atoms: C_10  and  N_11
REMARK    7  A    between atoms: N_11  and  C_12
REMARK    8  A    between atoms: N_11  and  C_13
REMARK    9  A    between atoms: C_13  and  C_14
REMARK   10  A    between atoms: C_14  and  C_15
REMARK   11  A    between atoms: C_15  and  N_16
REMARK   12  A    between atoms: C_21  and  O_22
REMARK   13  A    between atoms: O_22  and  C_23
REMARK   14  A    between atoms: C_24  and  O_25
REMARK   15  A    between atoms: O_25  and  C_26
REMARK                            x       y       z     vdW  Elec       q    Type
REMARK                         _______ _______ _______ _____ _____    ______ ____
ROOT
ATOM      1  C   UNL     1      -8.082  -1.873 122.808  0.00  0.00    +0.000 C 
ENDROOT
BRANCH   1   2
ATOM      2  C   UNL     1      -9.541  -1.412 122.862  0.00  0.00    +0.000 C 
BRANCH   2   3
ATOM      3  N   UNL     1      -9.617  -0.084 123.483  0.00  0.00    +0.000 NA
ATOM      4  C   UNL     1     -10.210   0.869 122.555  0.00  0.00    +0.000 C 
BRANCH   3   5
ATOM      5  C   UNL     1      -8.284   0.386 123.934  0.00  0.00    +0.000 C 
BRANCH   5  10
ATOM      6  C   UNL     1      -5.683   1.848 128.234  0.00  0.00    +0.000 A 
ATOM      7  C   UNL     1      -5.043   2.125 127.009  0.00  0.00    +0.000 A 
ATOM      8  C   UNL     1      -5.805   2.104 125.840  0.00  0.00    +0.000 A 
ATOM      9  C   UNL     1      -7.133   1.732 125.852  0.00  0.00    +0.000 A 
ATOM     10  C   UNL     1      -8.371   1.499 125.000  0.00  0.00    +0.000 C 
ATOM     11  C   UNL     1      -9.059   1.081 126.354  0.00  0.00    +0.000 C 
ATOM     12  C   UNL     1      -7.744   1.400 127.021  0.00  0.00    +0.000 A 
ATOM     13  C   UNL     1      -7.049   1.449 128.216  0.00  0.00    +0.000 A 
BRANCH   6  15
ATOM     14  C   UNL     1      -5.917   1.242 130.545  0.00  0.00    +0.000 C 
ATOM     15  O   UNL     1      -5.121   1.766 129.486  0.00  0.00    +0.000 OA
ENDBRANCH   6  15
BRANCH   7  16
ATOM     16  O   UNL     1      -3.741   2.354 126.644  0.00  0.00    +0.000 OA
ATOM     17  C   UNL     1      -3.280   3.670 126.668  0.00  0.00    +0.000 C 
ENDBRANCH   7  16
ENDBRANCH   5  10
ENDBRANCH   3   5
ENDBRANCH   2   3
ENDBRANCH   1   2
BRANCH   1  18
ATOM     18  C   UNL     1      -7.856  -3.221 123.455  0.00  0.00    +0.000 C 
BRANCH  18  19
ATOM     19  N   UNL     1      -7.396  -3.031 124.832  0.00  0.00    +0.000 N 
ATOM     20  C   UNL     1      -8.271  -3.484 125.899  0.00  0.00    +0.000 C 
ATOM     21  C   UNL     1      -8.553  -2.346 126.871  0.00  0.00    +0.000 C 
ATOM     22  C   UNL     1      -7.467  -2.313 127.916  0.00  0.00    +0.000 A 
ATOM     23  C   UNL     1      -7.749  -2.735 129.224  0.00  0.00    +0.000 A 
ATOM     24  C   UNL     1      -6.756  -2.773 130.209  0.00  0.00    +0.000 A 
ATOM     25  C   UNL     1      -5.454  -2.360 129.877  0.00  0.00    +0.000 A 
ATOM     26  C   UNL     1      -5.167  -1.955 128.561  0.00  0.00    +0.000 A 
ATOM     27  C   UNL     1      -6.155  -1.961 127.563  0.00  0.00    +0.000 A 
ATOM     28  C   UNL     1      -5.820  -1.635 126.123  0.00  0.00    +0.000 C 
ATOM     29  C   UNL     1      -6.044  -2.801 125.135  0.00  0.00    +0.000 C 
ATOM     30  O   UNL     1      -5.125  -3.363 124.570  0.00  0.00    +0.000 OA
BRANCH  24  31
ATOM     31  O   UNL     1      -7.212  -3.238 131.421  0.00  0.00    +0.000 OA
ATOM     32  C   UNL     1      -7.491  -2.284 132.442  0.00  0.00    +0.000 C 
ENDBRANCH  24  31
BRANCH  25  33
ATOM     33  O   UNL     1      -4.522  -2.397 130.874  0.00  0.00    +0.000 OA
ATOM     34  C   UNL     1      -3.699  -3.535 131.028  0.00  0.00    +0.000 C 
ENDBRANCH  25  33
ENDBRANCH  18  19
ENDBRANCH   1  18
TORSDOF 10
ENDMDL
MODEL 4
REMARK VINA RESULT:      -6.7      3.904      5.568
REMARK  Name = Ivabradine
REMARK  15 active torsions:
REMARK  status: ('A' for Active; 'I' for Inactive)
REMARK    1  A    between atoms: C_1  and  O_2
REMARK    2  A    between atoms: O_2  and  C_3
REMARK    3  A    between atoms: C_4  and  O_5
REMARK    4  A    between atoms: O_5  and  C_6
REMARK    5  A    between atoms: C_9  and  C_10
REMARK    6  A    between atoms: C_10  and  N_11
REMARK    7  A    between atoms: N_11  and  C_12
REMARK    8  A    between atoms: N_11  and  C_13
REMARK    9  A    between atoms: C_13  and  C_14
REMARK   10  A    between atoms: C_14  and  C_15
REMARK   11  A    between atoms: C_15  and  N_16
REMARK   12  A    between atoms: C_21  and  O_22
REMARK   13  A    between atoms: O_22  and  C_23
REMARK   14  A    between atoms: C_24  and  O_25
REMARK   15  A    between atoms: O_25  and  C_26
REMARK                            x       y       z     vdW  Elec       q    Type
REMARK                         _______ _______ _______ _____ _____    ______ ____
ROOT
ATOM      1  C   UNL     1      -6.750   1.505 131.918  0.00  0.00    +0.000 C 
ENDROOT
BRANCH   1   2
ATOM      2  C   UNL     1      -7.270   0.232 132.589  0.00  0.00    +0.000 C 
BRANCH   2   3
ATOM      3  N   UNL     1      -6.916  -0.936 131.774  0.00  0.00    +0.000 NA
ATOM      4  C   UNL     1      -5.540  -0.827 131.313  0.00  0.00    +0.000 C 
BRANCH   3   5
ATOM      5  C   UNL     1      -7.840  -1.101 130.625  0.00  0.00    +0.000 C 
BRANCH   5  10
ATOM      6  C   UNL     1      -9.093  -2.521 125.745  0.00  0.00    +0.000 A 
ATOM      7  C   UNL     1      -8.629  -1.199 125.897  0.00  0.00    +0.000 A 
ATOM      8  C   UNL     1      -7.946  -0.862 127.065  0.00  0.00    +0.000 A 
ATOM      9  C   UNL     1      -7.800  -1.764 128.099  0.00  0.00    +0.000 A 
ATOM     10  C   UNL     1      -7.247  -1.977 129.500  0.00  0.00    +0.000 C 
ATOM     11  C   UNL     1      -7.861  -3.421 129.378  0.00  0.00    +0.000 C 
ATOM     12  C   UNL     1      -8.299  -3.023 127.990  0.00  0.00    +0.000 A 
ATOM     13  C   UNL     1      -8.945  -3.425 126.834  0.00  0.00    +0.000 A 
BRANCH   6  15
ATOM     14  C   UNL     1      -9.208  -3.138 123.427  0.00  0.00    +0.000 C 
ATOM     15  O   UNL     1      -9.825  -3.051 124.709  0.00  0.00    +0.000 OA
ENDBRANCH   6  15
BRANCH   7  16
ATOM     16  O   UNL     1      -8.760  -0.052 125.155  0.00  0.00    +0.000 OA
ATOM     17  C   UNL     1      -7.878   0.996 125.417  0.00  0.00    +0.000 C 
ENDBRANCH   7  16
ENDBRANCH   5  10
ENDBRANCH   3   5
ENDBRANCH   2   3
ENDBRANCH   1   2
BRANCH   1  18
ATOM     18  C   UNL     1      -6.756   2.710 132.834  0.00  0.00    +0.000 C 
BRANCH  18  19
ATOM     19  N   UNL     1      -7.681   3.716 132.309  0.00  0.00    +0.000 N 
ATOM     20  C   UNL     1      -7.251   4.483 131.153  0.00  0.00    +0.000 C 
ATOM     21  C   UNL     1      -7.335   5.974 131.446  0.00  0.00    +0.000 C 
ATOM     22  C   UNL     1      -8.725   6.461 131.122  0.00  0.00    +0.000 A 
ATOM     23  C   UNL     1      -8.934   7.256 129.985  0.00  0.00    +0.000 A 
ATOM     24  C   UNL     1     -10.216   7.682 129.618  0.00  0.00    +0.000 A 
ATOM     25  C   UNL     1     -11.309   7.315 130.421  0.00  0.00    +0.000 A 
ATOM     26  C   UNL     1     -11.102   6.502 131.550  0.00  0.00    +0.000 A 
ATOM     27  C   UNL     1      -9.820   6.038 131.891  0.00  0.00    +0.000 A 
ATOM     28  C   UNL     1      -9.613   5.072 133.038  0.00  0.00    +0.000 C 
ATOM     29  C   UNL     1      -9.051   3.695 132.618  0.00  0.00    +0.000 C 
ATOM     30  O   UNL     1      -9.706   2.674 132.694  0.00  0.00    +0.000 OA
BRANCH  24  31
ATOM     31  O   UNL     1     -10.229   8.430 128.463  0.00  0.00    +0.000 OA
ATOM     32  C   UNL     1     -10.535   7.767 127.239  0.00  0.00    +0.000 C 
ENDBRANCH  24  31
BRANCH  25  33
ATOM     33  O   UNL     1     -12.539   7.767 130.035  0.00  0.00    +0.000 OA
ATOM     34  C   UNL     1     -13.357   6.965 129.209  0.00  0.00    +0.000 C 
ENDBRANCH  25  33
ENDBRANCH  18  19
ENDBRANCH   1  18
TORSDOF 10
ENDMDL
MODEL 5
REMARK VINA RESULT:      -6.6      2.660      6.143
REMARK  Name = Ivabradine
REMARK  15 active torsions:
REMARK  status: ('A' for Active; 'I' for Inactive)
REMARK    1  A    between atoms: C_1  and  O_2
REMARK    2  A    between atoms: O_2  and  C_3
REMARK    3  A    between atoms: C_4  and  O_5
REMARK    4  A    between atoms: O_5  and  C_6
REMARK    5  A    between atoms: C_9  and  C_10
REMARK    6  A    between atoms: C_10  and  N_11
REMARK    7  A    between atoms: N_11  and  C_12
REMARK    8  A    between atoms: N_11  and  C_13
REMARK    9  A    between atoms: C_13  and  C_14
REMARK   10  A    between atoms: C_14  and  C_15
REMARK   11  A    between atoms: C_15  and  N_16
REMARK   12  A    between atoms: C_21  and  O_22
REMARK   13  A    between atoms: O_22  and  C_23
REMARK   14  A    between atoms: C_24  and  O_25
REMARK   15  A    between atoms: O_25  and  C_26
REMARK                            x       y       z     vdW  Elec       q    Type
REMARK                         _______ _______ _______ _____ _____    ______ ____
ROOT
ATOM      1  C   UNL     1      -7.103  -0.318 123.266  0.00  0.00    +0.000 C 
ENDROOT
BRANCH   1   2
ATOM      2  C   UNL     1      -8.398  -1.062 123.599  0.00  0.00    +0.000 C 
BRANCH   2   3
ATOM      3  N   UNL     1      -8.177  -2.510 123.500  0.00  0.00    +0.000 NA
ATOM      4  C   UNL     1      -9.439  -3.194 123.260  0.00  0.00    +0.000 C 
BRANCH   3   5
ATOM      5  C   UNL     1      -7.514  -3.045 124.715  0.00  0.00    +0.000 C 
BRANCH   5  10
ATOM      6  C   UNL     1      -6.486  -3.289 129.842  0.00  0.00    +0.000 A 
ATOM      7  C   UNL     1      -5.496  -2.675 129.048  0.00  0.00    +0.000 A 
ATOM      8  C   UNL     1      -5.839  -2.251 127.764  0.00  0.00    +0.000 A 
ATOM      9  C   UNL     1      -7.087  -2.500 127.233  0.00  0.00    +0.000 A 
ATOM     10  C   UNL     1      -7.977  -2.342 126.009  0.00  0.00    +0.000 C 
ATOM     11  C   UNL     1      -9.050  -3.126 126.854  0.00  0.00    +0.000 C 
ATOM     12  C   UNL     1      -8.031  -3.149 127.966  0.00  0.00    +0.000 A 
ATOM     13  C   UNL     1      -7.760  -3.551 129.262  0.00  0.00    +0.000 A 
BRANCH   6  15
ATOM     14  C   UNL     1      -5.995  -2.946 132.167  0.00  0.00    +0.000 C 
ATOM     15  O   UNL     1      -6.355  -3.822 131.102  0.00  0.00    +0.000 OA
ENDBRANCH   6  15
BRANCH   7  16
ATOM     16  O   UNL     1      -4.154  -2.443 129.210  0.00  0.00    +0.000 OA
ATOM     17  C   UNL     1      -3.306  -3.548 129.284  0.00  0.00    +0.000 C 
ENDBRANCH   7  16
ENDBRANCH   5  10
ENDBRANCH   3   5
ENDBRANCH   2   3
ENDBRANCH   1   2
BRANCH   1  18
ATOM     18  C   UNL     1      -7.218   1.182 123.421  0.00  0.00    +0.000 C 
BRANCH  18  19
ATOM     19  N   UNL     1      -7.298   1.521 124.843  0.00  0.00    +0.000 N 
ATOM     20  C   UNL     1      -6.074   1.945 125.501  0.00  0.00    +0.000 C 
ATOM     21  C   UNL     1      -5.803   1.080 126.723  0.00  0.00    +0.000 C 
ATOM     22  C   UNL     1      -6.522   1.669 127.910  0.00  0.00    +0.000 A 
ATOM     23  C   UNL     1      -5.787   2.314 128.916  0.00  0.00    +0.000 A 
ATOM     24  C   UNL     1      -6.421   2.923 130.006  0.00  0.00    +0.000 A 
ATOM     25  C   UNL     1      -7.822   2.865 130.096  0.00  0.00    +0.000 A 
ATOM     26  C   UNL     1      -8.559   2.234 129.078  0.00  0.00    +0.000 A 
ATOM     27  C   UNL     1      -7.924   1.663 127.962  0.00  0.00    +0.000 A 
ATOM     28  C   UNL     1      -8.723   1.086 126.813  0.00  0.00    +0.000 C 
ATOM     29  C   UNL     1      -8.522   1.815 125.466  0.00  0.00    +0.000 C 
ATOM     30  O   UNL     1      -9.404   2.463 124.938  0.00  0.00    +0.000 OA
BRANCH  24  31
ATOM     31  O   UNL     1      -5.542   3.528 130.875  0.00  0.00    +0.000 OA
ATOM     32  C   UNL     1      -4.375   2.806 131.260  0.00  0.00    +0.000 C 
ENDBRANCH  24  31
BRANCH  25  33
ATOM     33  O   UNL     1      -8.396   3.457 131.185  0.00  0.00    +0.000 OA
ATOM     34  C   UNL     1      -9.781   3.735 131.188  0.00  0.00    +0.000 C 
ENDBRANCH  25  33
ENDBRANCH  18  19
ENDBRANCH   1  18
TORSDOF 10
ENDMDL
MODEL 6
REMARK VINA RESULT:      -6.5      3.240      4.676
REMARK  Name = Ivabradine
REMARK  15 active torsions:
REMARK  status: ('A' for Active; 'I' for Inactive)
REMARK    1  A    between atoms: C_1  and  O_2
REMARK    2  A    between atoms: O_2  and  C_3
REMARK    3  A    between atoms: C_4  and  O_5
REMARK    4  A    between atoms: O_5  and  C_6
REMARK    5  A    between atoms: C_9  and  C_10
REMARK    6  A    between atoms: C_10  and  N_11
REMARK    7  A    between atoms: N_11  and  C_12
REMARK    8  A    between atoms: N_11  and  C_13
REMARK    9  A    between atoms: C_13  and  C_14
REMARK   10  A    between atoms: C_14  and  C_15
REMARK   11  A    between atoms: C_15  and  N_16
REMARK   12  A    between atoms: C_21  and  O_22
REMARK   13  A    between atoms: O_22  and  C_23
REMARK   14  A    between atoms: C_24  and  O_25
REMARK   15  A    between atoms: O_25  and  C_26
REMARK                            x       y       z     vdW  Elec       q    Type
REMARK                         _______ _______ _______ _____ _____    ______ ____
ROOT
ATOM      1  C   UNL     1      -7.450  -0.214 131.738  0.00  0.00    +0.000 C 
ENDROOT
BRANCH   1   2
ATOM      2  C   UNL     1      -7.641  -1.539 132.479  0.00  0.00    +0.000 C 
BRANCH   2   3
ATOM      3  N   UNL     1      -7.360  -2.658 131.572  0.00  0.00    +0.000 NA
ATOM      4  C   UNL     1      -6.346  -3.529 132.150  0.00  0.00    +0.000 C 
BRANCH   3   5
ATOM      5  C   UNL     1      -6.938  -2.183 130.232  0.00  0.00    +0.000 C 
BRANCH   5  10
ATOM      6  C   UNL     1      -8.675  -2.340 125.297  0.00  0.00    +0.000 A 
ATOM      7  C   UNL     1      -7.391  -1.788 125.475  0.00  0.00    +0.000 A 
ATOM      8  C   UNL     1      -6.719  -2.035 126.673  0.00  0.00    +0.000 A 
ATOM      9  C   UNL     1      -7.320  -2.724 127.706  0.00  0.00    +0.000 A 
ATOM     10  C   UNL     1      -7.150  -3.240 129.127  0.00  0.00    +0.000 C 
ATOM     11  C   UNL     1      -8.627  -3.762 128.971  0.00  0.00    +0.000 C 
ATOM     12  C   UNL     1      -8.584  -3.207 127.569  0.00  0.00    +0.000 A 
ATOM     13  C   UNL     1      -9.279  -3.030 126.386  0.00  0.00    +0.000 A 
BRANCH   6  15
ATOM     14  C   UNL     1      -9.411  -3.094 123.140  0.00  0.00    +0.000 C 
ATOM     15  O   UNL     1      -9.526  -2.183 124.229  0.00  0.00    +0.000 OA
ENDBRANCH   6  15
BRANCH   7  16
ATOM     16  O   UNL     1      -6.608  -0.938 124.736  0.00  0.00    +0.000 OA
ATOM     17  C   UNL     1      -7.079   0.356 124.516  0.00  0.00    +0.000 C 
ENDBRANCH   7  16
ENDBRANCH   5  10
ENDBRANCH   3   5
ENDBRANCH   2   3
ENDBRANCH   1   2
BRANCH   1  18
ATOM     18  C   UNL     1      -7.468   0.991 132.651  0.00  0.00    +0.000 C 
BRANCH  18  19
ATOM     19  N   UNL     1      -8.060   2.129 131.945  0.00  0.00    +0.000 N 
ATOM     20  C   UNL     1      -9.431   2.482 132.272  0.00  0.00    +0.000 C 
ATOM     21  C   UNL     1     -10.285   2.508 131.013  0.00  0.00    +0.000 C 
ATOM     22  C   UNL     1     -10.193   3.876 130.386  0.00  0.00    +0.000 A 
ATOM     23  C   UNL     1     -11.290   4.748 130.458  0.00  0.00    +0.000 A 
ATOM     24  C   UNL     1     -11.226   6.045 129.938  0.00  0.00    +0.000 A 
ATOM     25  C   UNL     1     -10.040   6.470 129.315  0.00  0.00    +0.000 A 
ATOM     26  C   UNL     1      -8.934   5.603 129.260  0.00  0.00    +0.000 A 
ATOM     27  C   UNL     1      -8.985   4.316 129.823  0.00  0.00    +0.000 A 
ATOM     28  C   UNL     1      -7.761   3.427 129.865  0.00  0.00    +0.000 C 
ATOM     29  C   UNL     1      -7.268   3.086 131.288  0.00  0.00    +0.000 C 
ATOM     30  O   UNL     1      -6.214   3.502 131.730  0.00  0.00    +0.000 OA
BRANCH  24  31
ATOM     31  O   UNL     1     -12.386   6.762 130.123  0.00  0.00    +0.000 OA
ATOM     32  C   UNL     1     -12.620   7.339 131.404  0.00  0.00    +0.000 C 
ENDBRANCH  24  31
BRANCH  25  33
ATOM     33  O   UNL     1     -10.028   7.737 128.807  0.00  0.00    +0.000 OA
ATOM     34  C   UNL     1     -10.747   8.031 127.627  0.00  0.00    +0.000 C 
ENDBRANCH  25  33
ENDBRANCH  18  19
ENDBRANCH   1  18
TORSDOF 10
ENDMDL
MODEL 7
REMARK VINA RESULT:      -6.4      3.846      7.220
REMARK  Name = Ivabradine
REMARK  15 active torsions:
REMARK  status: ('A' for Active; 'I' for Inactive)
REMARK    1  A    between atoms: C_1  and  O_2
REMARK    2  A    between atoms: O_2  and  C_3
REMARK    3  A    between atoms: C_4  and  O_5
REMARK    4  A    between atoms: O_5  and  C_6
REMARK    5  A    between atoms: C_9  and  C_10
REMARK    6  A    between atoms: C_10  and  N_11
REMARK    7  A    between atoms: N_11  and  C_12
REMARK    8  A    between atoms: N_11  and  C_13
REMARK    9  A    between atoms: C_13  and  C_14
REMARK   10  A    between atoms: C_14  and  C_15
REMARK   11  A    between atoms: C_15  and  N_16
REMARK   12  A    between atoms: C_21  and  O_22
REMARK   13  A    between atoms: O_22  and  C_23
REMARK   14  A    between atoms: C_24  and  O_25
REMARK   15  A    between atoms: O_25  and  C_26
REMARK                            x       y       z     vdW  Elec       q    Type
REMARK                         _______ _______ _______ _____ _____    ______ ____
ROOT
ATOM      1  C   UNL     1      -4.351   3.768 129.866  0.00  0.00    +0.000 C 
ENDROOT
BRANCH   1   2
ATOM      2  C   UNL     1      -4.889   5.136 129.442  0.00  0.00    +0.000 C 
BRANCH   2   3
ATOM      3  N   UNL     1      -4.720   6.096 130.539  0.00  0.00    +0.000 NA
ATOM      4  C   UNL     1      -4.074   5.452 131.673  0.00  0.00    +0.000 C 
BRANCH   3   5
ATOM      5  C   UNL     1      -6.014   6.695 130.946  0.00  0.00    +0.000 C 
BRANCH   5  10
ATOM      6  C   UNL     1     -11.215   6.194 131.270  0.00  0.00    +0.000 A 
ATOM      7  C   UNL     1     -10.668   6.066 129.978  0.00  0.00    +0.000 A 
ATOM      8  C   UNL     1      -9.299   5.827 129.854  0.00  0.00    +0.000 A 
ATOM      9  C   UNL     1      -8.469   5.805 130.955  0.00  0.00    +0.000 A 
ATOM     10  C   UNL     1      -7.034   5.643 131.433  0.00  0.00    +0.000 C 
ATOM     11  C   UNL     1      -7.626   5.897 132.870  0.00  0.00    +0.000 C 
ATOM     12  C   UNL     1      -8.976   5.990 132.203  0.00  0.00    +0.000 A 
ATOM     13  C   UNL     1     -10.333   6.186 132.388  0.00  0.00    +0.000 A 
BRANCH   6  15
ATOM     14  C   UNL     1     -12.982   7.812 131.431  0.00  0.00    +0.000 C 
ATOM     15  O   UNL     1     -12.514   6.479 131.619  0.00  0.00    +0.000 OA
ENDBRANCH   6  15
BRANCH   7  16
ATOM     16  O   UNL     1     -11.175   6.205 128.711  0.00  0.00    +0.000 OA
ATOM     17  C   UNL     1     -11.212   7.487 128.162  0.00  0.00    +0.000 C 
ENDBRANCH   7  16
ENDBRANCH   5  10
ENDBRANCH   3   5
ENDBRANCH   2   3
ENDBRANCH   1   2
BRANCH   1  18
ATOM     18  C   UNL     1      -3.743   2.983 128.725  0.00  0.00    +0.000 C 
BRANCH  18  19
ATOM     19  N   UNL     1      -4.672   2.970 127.593  0.00  0.00    +0.000 N 
ATOM     20  C   UNL     1      -4.143   3.328 126.288  0.00  0.00    +0.000 C 
ATOM     21  C   UNL     1      -4.953   4.465 125.682  0.00  0.00    +0.000 C 
ATOM     22  C   UNL     1      -6.126   3.886 124.932  0.00  0.00    +0.000 A 
ATOM     23  C   UNL     1      -6.129   3.901 123.529  0.00  0.00    +0.000 A 
ATOM     24  C   UNL     1      -7.171   3.324 122.795  0.00  0.00    +0.000 A 
ATOM     25  C   UNL     1      -8.244   2.735 123.487  0.00  0.00    +0.000 A 
ATOM     26  C   UNL     1      -8.232   2.703 124.893  0.00  0.00    +0.000 A 
ATOM     27  C   UNL     1      -7.162   3.243 125.627  0.00  0.00    +0.000 A 
ATOM     28  C   UNL     1      -7.094   3.107 127.133  0.00  0.00    +0.000 C 
ATOM     29  C   UNL     1      -5.895   2.281 127.646  0.00  0.00    +0.000 C 
ATOM     30  O   UNL     1      -6.030   1.196 128.178  0.00  0.00    +0.000 OA
BRANCH  24  31
ATOM     31  O   UNL     1      -6.990   3.411 121.434  0.00  0.00    +0.000 OA
ATOM     32  C   UNL     1      -5.682   3.183 120.917  0.00  0.00    +0.000 C 
ENDBRANCH  24  31
BRANCH  25  33
ATOM     33  O   UNL     1      -9.247   2.200 122.730  0.00  0.00    +0.000 OA
ATOM     34  C   UNL     1     -10.091   1.208 123.278  0.00  0.00    +0.000 C 
ENDBRANCH  25  33
ENDBRANCH  18  19
ENDBRANCH   1  18
TORSDOF 10
ENDMDL
MODEL 8
REMARK VINA RESULT:      -6.4      2.748      6.359
REMARK  Name = Ivabradine
REMARK  15 active torsions:
REMARK  status: ('A' for Active; 'I' for Inactive)
REMARK    1  A    between atoms: C_1  and  O_2
REMARK    2  A    between atoms: O_2  and  C_3
REMARK    3  A    between atoms: C_4  and  O_5
REMARK    4  A    between atoms: O_5  and  C_6
REMARK    5  A    between atoms: C_9  and  C_10
REMARK    6  A    between atoms: C_10  and  N_11
REMARK    7  A    between atoms: N_11  and  C_12
REMARK    8  A    between atoms: N_11  and  C_13
REMARK    9  A    between atoms: C_13  and  C_14
REMARK   10  A    between atoms: C_14  and  C_15
REMARK   11  A    between atoms: C_15  and  N_16
REMARK   12  A    between atoms: C_21  and  O_22
REMARK   13  A    between atoms: O_22  and  C_23
REMARK   14  A    between atoms: C_24  and  O_25
REMARK   15  A    between atoms: O_25  and  C_26
REMARK                            x       y       z     vdW  Elec       q    Type
REMARK                         _______ _______ _______ _____ _____    ______ ____
ROOT
ATOM      1  C   UNL     1      -5.238   0.080 131.776  0.00  0.00    +0.000 C 
ENDROOT
BRANCH   1   2
ATOM      2  C   UNL     1      -5.994  -0.454 132.994  0.00  0.00    +0.000 C 
BRANCH   2   3
ATOM      3  N   UNL     1      -7.322   0.167 133.063  0.00  0.00    +0.000 NA
ATOM      4  C   UNL     1      -8.256  -0.553 132.209  0.00  0.00    +0.000 C 
BRANCH   3   5
ATOM      5  C   UNL     1      -7.275   1.602 132.690  0.00  0.00    +0.000 C 
BRANCH   5  10
ATOM      6  C   UNL     1      -9.386   5.917 130.610  0.00  0.00    +0.000 A 
ATOM      7  C   UNL     1      -8.966   4.936 129.688  0.00  0.00    +0.000 A 
ATOM      8  C   UNL     1      -8.737   3.641 130.152  0.00  0.00    +0.000 A 
ATOM      9  C   UNL     1      -8.825   3.329 131.493  0.00  0.00    +0.000 A 
ATOM     10  C   UNL     1      -8.678   2.226 132.530  0.00  0.00    +0.000 C 
ATOM     11  C   UNL     1      -9.040   3.346 133.576  0.00  0.00    +0.000 C 
ATOM     12  C   UNL     1      -9.168   4.282 132.400  0.00  0.00    +0.000 A 
ATOM     13  C   UNL     1      -9.451   5.573 131.990  0.00  0.00    +0.000 A 
BRANCH   6  15
ATOM     14  C   UNL     1     -10.724   7.610 129.558  0.00  0.00    +0.000 C 
ATOM     15  O   UNL     1      -9.618   7.252 130.382  0.00  0.00    +0.000 OA
ENDBRANCH   6  15
BRANCH   7  16
ATOM     16  O   UNL     1      -8.626   4.961 128.360  0.00  0.00    +0.000 OA
ATOM     17  C   UNL     1      -7.652   4.064 127.920  0.00  0.00    +0.000 C 
ENDBRANCH   7  16
ENDBRANCH   5  10
ENDBRANCH   3   5
ENDBRANCH   2   3
ENDBRANCH   1   2
BRANCH   1  18
ATOM     18  C   UNL     1      -4.738  -1.011 130.856  0.00  0.00    +0.000 C 
BRANCH  18  19
ATOM     19  N   UNL     1      -5.668  -1.169 129.736  0.00  0.00    +0.000 N 
ATOM     20  C   UNL     1      -5.893  -0.014 128.884  0.00  0.00    +0.000 C 
ATOM     21  C   UNL     1      -7.379   0.302 128.802  0.00  0.00    +0.000 C 
ATOM     22  C   UNL     1      -7.993  -0.509 127.689  0.00  0.00    +0.000 A 
ATOM     23  C   UNL     1      -8.378   0.126 126.499  0.00  0.00    +0.000 A 
ATOM     24  C   UNL     1      -8.899  -0.598 125.420  0.00  0.00    +0.000 A 
ATOM     25  C   UNL     1      -9.054  -1.988 125.548  0.00  0.00    +0.000 A 
ATOM     26  C   UNL     1      -8.650  -2.628 126.734  0.00  0.00    +0.000 A 
ATOM     27  C   UNL     1      -8.085  -1.905 127.798  0.00  0.00    +0.000 A 
ATOM     28  C   UNL     1      -7.547  -2.606 129.027  0.00  0.00    +0.000 C 
ATOM     29  C   UNL     1      -6.028  -2.435 129.245  0.00  0.00    +0.000 C 
ATOM     30  O   UNL     1      -5.245  -3.360 129.138  0.00  0.00    +0.000 OA
BRANCH  24  31
ATOM     31  O   UNL     1      -9.195   0.189 124.331  0.00  0.00    +0.000 OA
ATOM     32  C   UNL     1      -9.751   1.480 124.568  0.00  0.00    +0.000 C 
ENDBRANCH  24  31
BRANCH  25  33
ATOM     33  O   UNL     1      -9.582  -2.652 124.477  0.00  0.00    +0.000 OA
ATOM     34  C   UNL     1      -8.749  -3.033 123.402  0.00  0.00    +0.000 C 
ENDBRANCH  25  33
ENDBRANCH  18  19
ENDBRANCH   1  18
TORSDOF 10
ENDMDL
MODEL 9
REMARK VINA RESULT:      -6.3      4.320      6.967
REMARK  Name = Ivabradine
REMARK  15 active torsions:
REMARK  status: ('A' for Active; 'I' for Inactive)
REMARK    1  A    between atoms: C_1  and  O_2
REMARK    2  A    between atoms: O_2  and  C_3
REMARK    3  A    between atoms: C_4  and  O_5
REMARK    4  A    between atoms: O_5  and  C_6
REMARK    5  A    between atoms: C_9  and  C_10
REMARK    6  A    between atoms: C_10  and  N_11
REMARK    7  A    between atoms: N_11  and  C_12
REMARK    8  A    between atoms: N_11  and  C_13
REMARK    9  A    between atoms: C_13  and  C_14
REMARK   10  A    between atoms: C_14  and  C_15
REMARK   11  A    between atoms: C_15  and  N_16
REMARK   12  A    between atoms: C_21  and  O_22
REMARK   13  A    between atoms: O_22  and  C_23
REMARK   14  A    between atoms: C_24  and  O_25
REMARK   15  A    between atoms: O_25  and  C_26
REMARK                            x       y       z     vdW  Elec       q    Type
REMARK                         _______ _______ _______ _____ _____    ______ ____
ROOT
ATOM      1  C   UNL     1      -6.392   2.580 131.754  0.00  0.00    +0.000 C 
ENDROOT
BRANCH   1   2
ATOM      2  C   UNL     1      -4.904   2.440 131.427  0.00  0.00    +0.000 C 
BRANCH   2   3
ATOM      3  N   UNL     1      -4.687   2.683 129.997  0.00  0.00    +0.000 NA
ATOM      4  C   UNL     1      -4.030   1.536 129.387  0.00  0.00    +0.000 C 
BRANCH   3   5
ATOM      5  C   UNL     1      -3.899   3.919 129.766  0.00  0.00    +0.000 C 
BRANCH   5  10
ATOM      6  C   UNL     1      -6.572   3.125 125.336  0.00  0.00    +0.000 A 
ATOM      7  C   UNL     1      -7.326   3.059 126.525  0.00  0.00    +0.000 A 
ATOM      8  C   UNL     1      -6.784   3.605 127.689  0.00  0.00    +0.000 A 
ATOM      9  C   UNL     1      -5.505   4.118 127.716  0.00  0.00    +0.000 A 
ATOM     10  C   UNL     1      -4.436   4.760 128.587  0.00  0.00    +0.000 C 
ATOM     11  C   UNL     1      -3.550   4.734 127.285  0.00  0.00    +0.000 C 
ATOM     12  C   UNL     1      -4.743   4.129 126.589  0.00  0.00    +0.000 A 
ATOM     13  C   UNL     1      -5.248   3.643 125.396  0.00  0.00    +0.000 A 
BRANCH   6  15
ATOM     14  C   UNL     1      -8.049   3.113 123.443  0.00  0.00    +0.000 C 
ATOM     15  O   UNL     1      -6.888   2.612 124.100  0.00  0.00    +0.000 OA
ENDBRANCH   6  15
BRANCH   7  16
ATOM     16  O   UNL     1      -8.521   2.478 126.864  0.00  0.00    +0.000 OA
ATOM     17  C   UNL     1      -8.520   1.543 127.899  0.00  0.00    +0.000 C 
ENDBRANCH   7  16
ENDBRANCH   5  10
ENDBRANCH   3   5
ENDBRANCH   2   3
ENDBRANCH   1   2
BRANCH   1  18
ATOM     18  C   UNL     1      -6.699   3.754 132.658  0.00  0.00    +0.000 C 
BRANCH  18  19
ATOM     19  N   UNL     1      -7.753   4.571 132.055  0.00  0.00    +0.000 N 
ATOM     20  C   UNL     1      -7.416   5.323 130.858  0.00  0.00    +0.000 C 
ATOM     21  C   UNL     1      -7.733   6.799 131.054  0.00  0.00    +0.000 C 
ATOM     22  C   UNL     1      -9.172   7.045 130.677  0.00  0.00    +0.000 A 
ATOM     23  C   UNL     1      -9.471   7.727 129.488  0.00  0.00    +0.000 A 
ATOM     24  C   UNL     1     -10.793   7.927 129.074  0.00  0.00    +0.000 A 
ATOM     25  C   UNL     1     -11.838   7.447 129.881  0.00  0.00    +0.000 A 
ATOM     26  C   UNL     1     -11.538   6.746 131.063  0.00  0.00    +0.000 A 
ATOM     27  C   UNL     1     -10.209   6.507 131.454  0.00  0.00    +0.000 A 
ATOM     28  C   UNL     1      -9.887   5.656 132.664  0.00  0.00    +0.000 C 
ATOM     29  C   UNL     1      -9.111   4.359 132.343  0.00  0.00    +0.000 C 
ATOM     30  O   UNL     1      -9.604   3.256 132.474  0.00  0.00    +0.000 OA
BRANCH  24  31
ATOM     31  O   UNL     1     -10.891   8.592 127.873  0.00  0.00    +0.000 OA
ATOM     32  C   UNL     1     -10.807   7.826 126.674  0.00  0.00    +0.000 C 
ENDBRANCH  24  31
BRANCH  25  33
ATOM     33  O   UNL     1     -13.112   7.679 129.447  0.00  0.00    +0.000 OA
ATOM     34  C   UNL     1     -13.710   6.803 128.515  0.00  0.00    +0.000 C 
ENDBRANCH  25  33
ENDBRANCH  18  19
ENDBRANCH   1  18
TORSDOF 10
ENDMDL
