MODEL 1
REMARK VINA RESULT:      -9.4      0.000      0.000
REMARK  Name = Ivacaftor
REMARK  11 active torsions:
REMARK  status: ('A' for Active; 'I' for Inactive)
REMARK    1  A    between atoms: C_1  and  C_2
REMARK    2  A    between atoms: C_2  and  C_3
REMARK    3  A    between atoms: C_2  and  C_4
REMARK    4  A    between atoms: C_2  and  C_5
REMARK    5  A    between atoms: C_7  and  C_26
REMARK    6  A    between atoms: C_8  and  O_9
REMARK    7  A    between atoms: C_11  and  N_12
REMARK    8  A    between atoms: C_13  and  C_15
REMARK    9  A    between atoms: C_26  and  C_27
REMARK   10  A    between atoms: C_26  and  C_28
REMARK   11  A    between atoms: C_26  and  C_29
REMARK                            x       y       z     vdW  Elec       q    Type
REMARK                         _______ _______ _______ _____ _____    ______ ____
ROOT
ATOM      1  C   UNL     1      -7.925  -1.587 125.196  0.00  0.00    +0.000 A 
ATOM      2  C   UNL     1      -7.634  -2.198 126.441  0.00  0.00    +0.000 A 
ATOM      3  C   UNL     1      -7.608  -1.528 127.678  0.00  0.00    +0.000 A 
ATOM      4  C   UNL     1      -7.878  -0.155 127.610  0.00  0.00    +0.000 A 
ATOM      5  C   UNL     1      -8.116   0.492 126.380  0.00  0.00    +0.000 A 
ATOM      6  C   UNL     1      -8.066  -0.179 125.151  0.00  0.00    +0.000 A 
ENDROOT
BRANCH   1   8
ATOM      7  C   UNL     1      -9.380  -2.469 123.216  0.00  0.00    +0.000 C 
ATOM      8  C   UNL     1      -8.068  -2.543 123.999  0.00  0.00    +0.000 C 
ATOM      9  C   UNL     1      -7.913  -3.965 124.603  0.00  0.00    +0.000 C 
ATOM     10  C   UNL     1      -7.155  -2.123 122.841  0.00  0.00    +0.000 C 
ENDBRANCH   1   8
BRANCH   6  11
ATOM     11  N   UNL     1      -8.240   0.634 123.977  0.00  0.00    +0.000 N 
ATOM     12  C   UNL     1      -9.052   1.766 123.831  0.00  0.00    +0.000 C 
ATOM     13  O   UNL     1     -10.066   2.095 124.422  0.00  0.00    +0.000 OA
ATOM     14  H   UNL     1      -7.730   0.343 123.148  0.00  0.00    +0.000 HD
BRANCH  12  15
ATOM     15  C   UNL     1      -8.610   2.757 122.843  0.00  0.00    +0.000 A 
ATOM     16  C   UNL     1      -9.023   2.928 121.559  0.00  0.00    +0.000 A 
ATOM     17  N   UNL     1      -8.264   3.582 120.600  0.00  0.00    +0.000 N 
ATOM     18  C   UNL     1      -6.949   3.951 120.917  0.00  0.00    +0.000 A 
ATOM     19  C   UNL     1      -6.101   4.582 120.028  0.00  0.00    +0.000 A 
ATOM     20  C   UNL     1      -4.844   5.028 120.474  0.00  0.00    +0.000 A 
ATOM     21  C   UNL     1      -4.413   4.837 121.792  0.00  0.00    +0.000 A 
ATOM     22  C   UNL     1      -5.232   4.197 122.680  0.00  0.00    +0.000 A 
ATOM     23  C   UNL     1      -6.474   3.794 122.232  0.00  0.00    +0.000 A 
ATOM     24  C   UNL     1      -7.306   3.208 123.235  0.00  0.00    +0.000 A 
ATOM     25  O   UNL     1      -6.906   3.031 124.401  0.00  0.00    +0.000 OA
ATOM     26  H   UNL     1      -8.541   3.534 119.619  0.00  0.00    +0.000 HD
ENDBRANCH  12  15
ENDBRANCH   6  11
BRANCH   3  27
ATOM     27  C   UNL     1      -7.325  -2.408 128.915  0.00  0.00    +0.000 C 
ATOM     28  C   UNL     1      -8.103  -3.743 128.823  0.00  0.00    +0.000 C 
ATOM     29  C   UNL     1      -5.815  -2.727 129.022  0.00  0.00    +0.000 C 
ATOM     30  C   UNL     1      -7.731  -1.757 130.236  0.00  0.00    +0.000 C 
ENDBRANCH   3  27
BRANCH   4  31
ATOM     31  O   UNL     1      -7.940   0.738 128.643  0.00  0.00    +0.000 OA
ATOM     32  H   UNL     1      -8.171   0.333 129.481  0.00  0.00    +0.000 HD
ENDBRANCH   4  31
TORSDOF 5
ENDMDL
MODEL 2
REMARK VINA RESULT:      -9.0      1.541      2.222
REMARK  Name = Ivacaftor
REMARK  11 active torsions:
REMARK  status: ('A' for Active; 'I' for Inactive)
REMARK    1  A    between atoms: C_1  and  C_2
REMARK    2  A    between atoms: C_2  and  C_3
REMARK    3  A    between atoms: C_2  and  C_4
REMARK    4  A    between atoms: C_2  and  C_5
REMARK    5  A    between atoms: C_7  and  C_26
REMARK    6  A    between atoms: C_8  and  O_9
REMARK    7  A    between atoms: C_11  and  N_12
REMARK    8  A    between atoms: C_13  and  C_15
REMARK    9  A    between atoms: C_26  and  C_27
REMARK   10  A    between atoms: C_26  and  C_28
REMARK   11  A    between atoms: C_26  and  C_29
REMARK                            x       y       z     vdW  Elec       q    Type
REMARK                         _______ _______ _______ _____ _____    ______ ____
ROOT
ATOM      1  C   UNL     1      -7.269  -1.887 126.803  0.00  0.00    +0.000 A 
ATOM      2  C   UNL     1      -6.457  -2.478 127.804  0.00  0.00    +0.000 A 
ATOM      3  C   UNL     1      -5.494  -1.790 128.566  0.00  0.00    +0.000 A 
ATOM      4  C   UNL     1      -5.359  -0.430 128.256  0.00  0.00    +0.000 A 
ATOM      5  C   UNL     1      -6.113   0.172 127.227  0.00  0.00    +0.000 A 
ATOM      6  C   UNL     1      -7.014  -0.545 126.431  0.00  0.00    +0.000 A 
ENDROOT
BRANCH   1   8
ATOM      7  C   UNL     1      -9.602  -2.082 125.647  0.00  0.00    +0.000 C 
ATOM      8  C   UNL     1      -8.371  -2.788 126.220  0.00  0.00    +0.000 C 
ATOM      9  C   UNL     1      -8.809  -3.699 127.400  0.00  0.00    +0.000 C 
ATOM     10  C   UNL     1      -7.921  -3.438 124.906  0.00  0.00    +0.000 C 
ENDBRANCH   1   8
BRANCH   6  11
ATOM     11  N   UNL     1      -7.640   0.187 125.363  0.00  0.00    +0.000 N 
ATOM     12  C   UNL     1      -8.396   1.363 125.459  0.00  0.00    +0.000 C 
ATOM     13  O   UNL     1      -9.050   1.811 126.384  0.00  0.00    +0.000 OA
ATOM     14  H   UNL     1      -7.542  -0.203 124.430  0.00  0.00    +0.000 HD
BRANCH  12  15
ATOM     15  C   UNL     1      -8.379   2.241 124.282  0.00  0.00    +0.000 A 
ATOM     16  C   UNL     1      -9.153   2.188 123.165  0.00  0.00    +0.000 A 
ATOM     17  N   UNL     1      -8.783   2.767 121.960  0.00  0.00    +0.000 N 
ATOM     18  C   UNL     1      -7.491   3.299 121.836  0.00  0.00    +0.000 A 
ATOM     19  C   UNL     1      -7.014   3.873 120.674  0.00  0.00    +0.000 A 
ATOM     20  C   UNL     1      -5.752   4.493 120.680  0.00  0.00    +0.000 A 
ATOM     21  C   UNL     1      -4.950   4.532 121.827  0.00  0.00    +0.000 A 
ATOM     22  C   UNL     1      -5.398   3.951 122.980  0.00  0.00    +0.000 A 
ATOM     23  C   UNL     1      -6.653   3.375 122.963  0.00  0.00    +0.000 A 
ATOM     24  C   UNL     1      -7.088   2.862 124.223  0.00  0.00    +0.000 A 
ATOM     25  O   UNL     1      -6.359   2.891 125.233  0.00  0.00    +0.000 OA
ATOM     26  H   UNL     1      -9.314   2.555 121.115  0.00  0.00    +0.000 HD
ENDBRANCH  12  15
ENDBRANCH   6  11
BRANCH   3  27
ATOM     27  C   UNL     1      -4.767  -2.623 129.643  0.00  0.00    +0.000 C 
ATOM     28  C   UNL     1      -4.610  -1.806 130.950  0.00  0.00    +0.000 C 
ATOM     29  C   UNL     1      -5.562  -3.911 129.964  0.00  0.00    +0.000 C 
ATOM     30  C   UNL     1      -3.363  -3.063 129.233  0.00  0.00    +0.000 C 
ENDBRANCH   3  27
BRANCH   4  31
ATOM     31  O   UNL     1      -4.526   0.482 128.839  0.00  0.00    +0.000 OA
ATOM     32  H   UNL     1      -4.392   0.330 129.776  0.00  0.00    +0.000 HD
ENDBRANCH   4  31
TORSDOF 5
ENDMDL
MODEL 3
REMARK VINA RESULT:      -8.6      5.366      7.668
REMARK  Name = Ivacaftor
REMARK  11 active torsions:
REMARK  status: ('A' for Active; 'I' for Inactive)
REMARK    1  A    between atoms: C_1  and  C_2
REMARK    2  A    between atoms: C_2  and  C_3
REMARK    3  A    between atoms: C_2  and  C_4
REMARK    4  A    between atoms: C_2  and  C_5
REMARK    5  A    between atoms: C_7  and  C_26
REMARK    6  A    between atoms: C_8  and  O_9
REMARK    7  A    between atoms: C_11  and  N_12
REMARK    8  A    between atoms: C_13  and  C_15
REMARK    9  A    between atoms: C_26  and  C_27
REMARK   10  A    between atoms: C_26  and  C_28
REMARK   11  A    between atoms: C_26  and  C_29
REMARK                            x       y       z     vdW  Elec       q    Type
REMARK                         _______ _______ _______ _____ _____    ______ ____
ROOT
ATOM      1  C   UNL     1      -8.009   0.640 129.465  0.00  0.00    +0.000 A 
ATOM      2  C   UNL     1      -7.570  -0.219 128.426  0.00  0.00    +0.000 A 
ATOM      3  C   UNL     1      -7.436   0.156 127.076  0.00  0.00    +0.000 A 
ATOM      4  C   UNL     1      -7.796   1.480 126.795  0.00  0.00    +0.000 A 
ATOM      5  C   UNL     1      -8.290   2.341 127.796  0.00  0.00    +0.000 A 
ATOM      6  C   UNL     1      -8.485   1.928 129.120  0.00  0.00    +0.000 A 
ENDROOT
BRANCH   1   8
ATOM      7  C   UNL     1      -9.147   0.235 131.779  0.00  0.00    +0.000 C 
ATOM      8  C   UNL     1      -7.913   0.068 130.890  0.00  0.00    +0.000 C 
ATOM      9  C   UNL     1      -6.712   0.810 131.538  0.00  0.00    +0.000 C 
ATOM     10  C   UNL     1      -7.920  -1.465 130.875  0.00  0.00    +0.000 C 
ENDBRANCH   1   8
BRANCH   6  11
ATOM     11  N   UNL     1      -9.081   2.892 130.006  0.00  0.00    +0.000 N 
ATOM     12  C   UNL     1      -8.462   3.989 130.619  0.00  0.00    +0.000 C 
ATOM     13  O   UNL     1      -7.296   4.175 130.920  0.00  0.00    +0.000 OA
ATOM     14  H   UNL     1     -10.062   2.752 130.230  0.00  0.00    +0.000 HD
BRANCH  12  15
ATOM     15  C   UNL     1      -9.328   5.135 130.922  0.00  0.00    +0.000 A 
ATOM     16  C   UNL     1     -10.097   5.360 132.020  0.00  0.00    +0.000 A 
ATOM     17  N   UNL     1     -11.180   6.227 132.022  0.00  0.00    +0.000 N 
ATOM     18  C   UNL     1     -11.600   6.784 130.805  0.00  0.00    +0.000 A 
ATOM     19  C   UNL     1     -12.681   7.636 130.692  0.00  0.00    +0.000 A 
ATOM     20  C   UNL     1     -12.952   8.244 129.454  0.00  0.00    +0.000 A 
ATOM     21  C   UNL     1     -12.169   7.999 128.320  0.00  0.00    +0.000 A 
ATOM     22  C   UNL     1     -11.108   7.143 128.409  0.00  0.00    +0.000 A 
ATOM     23  C   UNL     1     -10.839   6.579 129.640  0.00  0.00    +0.000 A 
ATOM     24  C   UNL     1      -9.668   5.762 129.677  0.00  0.00    +0.000 A 
ATOM     25  O   UNL     1      -8.987   5.541 128.657  0.00  0.00    +0.000 OA
ATOM     26  H   UNL     1     -11.821   6.231 132.816  0.00  0.00    +0.000 HD
ENDBRANCH  12  15
ENDBRANCH   6  11
BRANCH   3  27
ATOM     27  C   UNL     1      -6.883  -0.929 126.127  0.00  0.00    +0.000 C 
ATOM     28  C   UNL     1      -5.484  -0.527 125.597  0.00  0.00    +0.000 C 
ATOM     29  C   UNL     1      -6.756  -2.283 126.864  0.00  0.00    +0.000 C 
ATOM     30  C   UNL     1      -7.759  -1.175 124.901  0.00  0.00    +0.000 C 
ENDBRANCH   3  27
BRANCH   4  31
ATOM     31  O   UNL     1      -7.752   2.121 125.588  0.00  0.00    +0.000 OA
ATOM     32  H   UNL     1      -8.498   2.704 125.440  0.00  0.00    +0.000 HD
ENDBRANCH   4  31
TORSDOF 5
ENDMDL
MODEL 4
REMARK VINA RESULT:      -8.4      4.106      7.803
REMARK  Name = Ivacaftor
REMARK  11 active torsions:
REMARK  status: ('A' for Active; 'I' for Inactive)
REMARK    1  A    between atoms: C_1  and  C_2
REMARK    2  A    between atoms: C_2  and  C_3
REMARK    3  A    between atoms: C_2  and  C_4
REMARK    4  A    between atoms: C_2  and  C_5
REMARK    5  A    between atoms: C_7  and  C_26
REMARK    6  A    between atoms: C_8  and  O_9
REMARK    7  A    between atoms: C_11  and  N_12
REMARK    8  A    between atoms: C_13  and  C_15
REMARK    9  A    between atoms: C_26  and  C_27
REMARK   10  A    between atoms: C_26  and  C_28
REMARK   11  A    between atoms: C_26  and  C_29
REMARK                            x       y       z     vdW  Elec       q    Type
REMARK                         _______ _______ _______ _____ _____    ______ ____
ROOT
ATOM      1  C   UNL     1      -7.582  -1.403 127.690  0.00  0.00    +0.000 A 
ATOM      2  C   UNL     1      -7.730  -2.019 126.422  0.00  0.00    +0.000 A 
ATOM      3  C   UNL     1      -7.690  -1.340 125.189  0.00  0.00    +0.000 A 
ATOM      4  C   UNL     1      -7.509   0.047 125.286  0.00  0.00    +0.000 A 
ATOM      5  C   UNL     1      -7.417   0.694 126.535  0.00  0.00    +0.000 A 
ATOM      6  C   UNL     1      -7.531   0.011 127.752  0.00  0.00    +0.000 A 
ENDROOT
BRANCH   1   8
ATOM      7  C   UNL     1      -8.058  -1.856 130.217  0.00  0.00    +0.000 C 
ATOM      8  C   UNL     1      -7.486  -2.360 128.890  0.00  0.00    +0.000 C 
ATOM      9  C   UNL     1      -5.967  -2.634 129.061  0.00  0.00    +0.000 C 
ATOM     10  C   UNL     1      -8.443  -3.548 128.732  0.00  0.00    +0.000 C 
ENDBRANCH   1   8
BRANCH   6  11
ATOM     11  N   UNL     1      -7.507   0.821 128.941  0.00  0.00    +0.000 N 
ATOM     12  C   UNL     1      -8.446   1.779 129.343  0.00  0.00    +0.000 C 
ATOM     13  O   UNL     1      -9.217   2.457 128.687  0.00  0.00    +0.000 OA
ATOM     14  H   UNL     1      -6.705   0.700 129.553  0.00  0.00    +0.000 HD
BRANCH  12  15
ATOM     15  C   UNL     1      -8.575   1.993 130.790  0.00  0.00    +0.000 A 
ATOM     16  C   UNL     1      -9.678   1.878 131.576  0.00  0.00    +0.000 A 
ATOM     17  N   UNL     1      -9.797   2.503 132.809  0.00  0.00    +0.000 N 
ATOM     18  C   UNL     1      -8.806   3.416 133.201  0.00  0.00    +0.000 A 
ATOM     19  C   UNL     1      -8.842   4.111 134.394  0.00  0.00    +0.000 A 
ATOM     20  C   UNL     1      -7.743   4.909 134.759  0.00  0.00    +0.000 A 
ATOM     21  C   UNL     1      -6.615   5.038 133.940  0.00  0.00    +0.000 A 
ATOM     22  C   UNL     1      -6.572   4.374 132.747  0.00  0.00    +0.000 A 
ATOM     23  C   UNL     1      -7.646   3.570 132.420  0.00  0.00    +0.000 A 
ATOM     24  C   UNL     1      -7.495   2.843 131.200  0.00  0.00    +0.000 A 
ATOM     25  O   UNL     1      -6.492   2.977 130.473  0.00  0.00    +0.000 OA
ATOM     26  H   UNL     1     -10.702   2.524 133.279  0.00  0.00    +0.000 HD
ENDBRANCH  12  15
ENDBRANCH   6  11
BRANCH   3  27
ATOM     27  C   UNL     1      -7.814  -2.223 123.930  0.00  0.00    +0.000 C 
ATOM     28  C   UNL     1      -6.522  -2.144 123.080  0.00  0.00    +0.000 C 
ATOM     29  C   UNL     1      -8.053  -3.700 124.321  0.00  0.00    +0.000 C 
ATOM     30  C   UNL     1      -8.965  -1.820 123.009  0.00  0.00    +0.000 C 
ENDBRANCH   3  27
BRANCH   4  31
ATOM     31  O   UNL     1      -7.414   0.951 124.266  0.00  0.00    +0.000 OA
ATOM     32  H   UNL     1      -7.899   1.761 124.431  0.00  0.00    +0.000 HD
ENDBRANCH   4  31
TORSDOF 5
ENDMDL
MODEL 5
REMARK VINA RESULT:      -8.2      5.066      6.899
REMARK  Name = Ivacaftor
REMARK  11 active torsions:
REMARK  status: ('A' for Active; 'I' for Inactive)
REMARK    1  A    between atoms: C_1  and  C_2
REMARK    2  A    between atoms: C_2  and  C_3
REMARK    3  A    between atoms: C_2  and  C_4
REMARK    4  A    between atoms: C_2  and  C_5
REMARK    5  A    between atoms: C_7  and  C_26
REMARK    6  A    between atoms: C_8  and  O_9
REMARK    7  A    between atoms: C_11  and  N_12
REMARK    8  A    between atoms: C_13  and  C_15
REMARK    9  A    between atoms: C_26  and  C_27
REMARK   10  A    between atoms: C_26  and  C_28
REMARK   11  A    between atoms: C_26  and  C_29
REMARK                            x       y       z     vdW  Elec       q    Type
REMARK                         _______ _______ _______ _____ _____    ______ ____
ROOT
ATOM      1  C   UNL     1      -6.216   1.199 125.305  0.00  0.00    +0.000 A 
ATOM      2  C   UNL     1      -6.318   0.020 124.526  0.00  0.00    +0.000 A 
ATOM      3  C   UNL     1      -6.057  -1.280 124.998  0.00  0.00    +0.000 A 
ATOM      4  C   UNL     1      -5.651  -1.349 126.338  0.00  0.00    +0.000 A 
ATOM      5  C   UNL     1      -5.486  -0.189 127.121  0.00  0.00    +0.000 A 
ATOM      6  C   UNL     1      -5.681   1.101 126.612  0.00  0.00    +0.000 A 
ENDROOT
BRANCH   1   8
ATOM      7  C   UNL     1      -5.690   3.609 124.449  0.00  0.00    +0.000 C 
ATOM      8  C   UNL     1      -6.716   2.489 124.632  0.00  0.00    +0.000 C 
ATOM      9  C   UNL     1      -7.867   2.995 125.544  0.00  0.00    +0.000 C 
ATOM     10  C   UNL     1      -6.993   2.266 123.140  0.00  0.00    +0.000 C 
ENDBRANCH   1   8
BRANCH   6  11
ATOM     11  N   UNL     1      -5.385   2.189 127.506  0.00  0.00    +0.000 N 
ATOM     12  C   UNL     1      -4.200   2.931 127.589  0.00  0.00    +0.000 C 
ATOM     13  O   UNL     1      -3.056   2.631 127.295  0.00  0.00    +0.000 OA
ATOM     14  H   UNL     1      -6.113   2.438 128.169  0.00  0.00    +0.000 HD
BRANCH  12  15
ATOM     15  C   UNL     1      -4.333   4.313 128.064  0.00  0.00    +0.000 A 
ATOM     16  C   UNL     1      -4.003   5.471 127.432  0.00  0.00    +0.000 A 
ATOM     17  N   UNL     1      -3.764   6.660 128.105  0.00  0.00    +0.000 N 
ATOM     18  C   UNL     1      -3.708   6.642 129.507  0.00  0.00    +0.000 A 
ATOM     19  C   UNL     1      -3.450   7.763 130.272  0.00  0.00    +0.000 A 
ATOM     20  C   UNL     1      -3.539   7.675 131.672  0.00  0.00    +0.000 A 
ATOM     21  C   UNL     1      -3.863   6.479 132.323  0.00  0.00    +0.000 A 
ATOM     22  C   UNL     1      -4.100   5.355 131.582  0.00  0.00    +0.000 A 
ATOM     23  C   UNL     1      -4.040   5.468 130.207  0.00  0.00    +0.000 A 
ATOM     24  C   UNL     1      -4.381   4.276 129.498  0.00  0.00    +0.000 A 
ATOM     25  O   UNL     1      -4.654   3.213 130.088  0.00  0.00    +0.000 OA
ATOM     26  H   UNL     1      -3.358   7.450 127.604  0.00  0.00    +0.000 HD
ENDBRANCH  12  15
ENDBRANCH   6  11
BRANCH   3  27
ATOM     27  C   UNL     1      -6.291  -2.424 123.989  0.00  0.00    +0.000 C 
ATOM     28  C   UNL     1      -6.776  -1.861 122.630  0.00  0.00    +0.000 C 
ATOM     29  C   UNL     1      -4.984  -3.218 123.752  0.00  0.00    +0.000 C 
ATOM     30  C   UNL     1      -7.343  -3.435 124.441  0.00  0.00    +0.000 C 
ENDBRANCH   3  27
BRANCH   4  31
ATOM     31  O   UNL     1      -5.351  -2.467 127.064  0.00  0.00    +0.000 OA
ATOM     32  H   UNL     1      -5.887  -2.563 127.853  0.00  0.00    +0.000 HD
ENDBRANCH   4  31
TORSDOF 5
ENDMDL
MODEL 6
REMARK VINA RESULT:      -8.0      4.480      5.973
REMARK  Name = Ivacaftor
REMARK  11 active torsions:
REMARK  status: ('A' for Active; 'I' for Inactive)
REMARK    1  A    between atoms: C_1  and  C_2
REMARK    2  A    between atoms: C_2  and  C_3
REMARK    3  A    between atoms: C_2  and  C_4
REMARK    4  A    between atoms: C_2  and  C_5
REMARK    5  A    between atoms: C_7  and  C_26
REMARK    6  A    between atoms: C_8  and  O_9
REMARK    7  A    between atoms: C_11  and  N_12
REMARK    8  A    between atoms: C_13  and  C_15
REMARK    9  A    between atoms: C_26  and  C_27
REMARK   10  A    between atoms: C_26  and  C_28
REMARK   11  A    between atoms: C_26  and  C_29
REMARK                            x       y       z     vdW  Elec       q    Type
REMARK                         _______ _______ _______ _____ _____    ______ ____
ROOT
ATOM      1  C   UNL     1      -5.843   4.076 129.712  0.00  0.00    +0.000 A 
ATOM      2  C   UNL     1      -6.209   4.184 131.077  0.00  0.00    +0.000 A 
ATOM      3  C   UNL     1      -7.534   4.236 131.552  0.00  0.00    +0.000 A 
ATOM      4  C   UNL     1      -8.518   4.194 130.555  0.00  0.00    +0.000 A 
ATOM      5  C   UNL     1      -8.183   4.144 129.187  0.00  0.00    +0.000 A 
ATOM      6  C   UNL     1      -6.859   4.166 128.731  0.00  0.00    +0.000 A 
ENDROOT
BRANCH   1   8
ATOM      7  C   UNL     1      -3.707   4.756 128.374  0.00  0.00    +0.000 C 
ATOM      8  C   UNL     1      -4.345   3.860 129.439  0.00  0.00    +0.000 C 
ATOM      9  C   UNL     1      -4.229   2.377 128.993  0.00  0.00    +0.000 C 
ATOM     10  C   UNL     1      -3.488   4.354 130.611  0.00  0.00    +0.000 C 
ENDBRANCH   1   8
BRANCH   6  11
ATOM     11  N   UNL     1      -6.679   4.201 127.304  0.00  0.00    +0.000 N 
ATOM     12  C   UNL     1      -6.857   3.153 126.392  0.00  0.00    +0.000 C 
ATOM     13  O   UNL     1      -6.781   1.946 126.547  0.00  0.00    +0.000 OA
ATOM     14  H   UNL     1      -6.367   5.084 126.911  0.00  0.00    +0.000 HD
BRANCH  12  15
ATOM     15  C   UNL     1      -7.241   3.538 125.029  0.00  0.00    +0.000 A 
ATOM     16  C   UNL     1      -8.318   3.142 124.299  0.00  0.00    +0.000 A 
ATOM     17  N   UNL     1      -8.362   3.214 122.915  0.00  0.00    +0.000 N 
ATOM     18  C   UNL     1      -7.195   3.565 122.220  0.00  0.00    +0.000 A 
ATOM     19  C   UNL     1      -7.124   3.639 120.843  0.00  0.00    +0.000 A 
ATOM     20  C   UNL     1      -5.949   4.122 120.239  0.00  0.00    +0.000 A 
ATOM     21  C   UNL     1      -4.835   4.514 120.992  0.00  0.00    +0.000 A 
ATOM     22  C   UNL     1      -4.882   4.427 122.354  0.00  0.00    +0.000 A 
ATOM     23  C   UNL     1      -6.055   3.981 122.930  0.00  0.00    +0.000 A 
ATOM     24  C   UNL     1      -6.059   3.996 124.358  0.00  0.00    +0.000 A 
ATOM     25  O   UNL     1      -5.056   4.334 125.017  0.00  0.00    +0.000 OA
ATOM     26  H   UNL     1      -9.118   2.751 122.410  0.00  0.00    +0.000 HD
ENDBRANCH  12  15
ENDBRANCH   6  11
BRANCH   3  27
ATOM     27  C   UNL     1      -7.698   4.294 133.086  0.00  0.00    +0.000 C 
ATOM     28  C   UNL     1      -6.335   4.079 133.788  0.00  0.00    +0.000 C 
ATOM     29  C   UNL     1      -8.263   5.666 133.522  0.00  0.00    +0.000 C 
ATOM     30  C   UNL     1      -8.645   3.232 133.640  0.00  0.00    +0.000 C 
ENDBRANCH   3  27
BRANCH   4  31
ATOM     31  O   UNL     1      -9.875   4.210 130.719  0.00  0.00    +0.000 OA
ATOM     32  H   UNL     1     -10.305   3.415 130.401  0.00  0.00    +0.000 HD
ENDBRANCH   4  31
TORSDOF 5
ENDMDL
MODEL 7
REMARK VINA RESULT:      -7.8      4.436      7.230
REMARK  Name = Ivacaftor
REMARK  11 active torsions:
REMARK  status: ('A' for Active; 'I' for Inactive)
REMARK    1  A    between atoms: C_1  and  C_2
REMARK    2  A    between atoms: C_2  and  C_3
REMARK    3  A    between atoms: C_2  and  C_4
REMARK    4  A    between atoms: C_2  and  C_5
REMARK    5  A    between atoms: C_7  and  C_26
REMARK    6  A    between atoms: C_8  and  O_9
REMARK    7  A    between atoms: C_11  and  N_12
REMARK    8  A    between atoms: C_13  and  C_15
REMARK    9  A    between atoms: C_26  and  C_27
REMARK   10  A    between atoms: C_26  and  C_28
REMARK   11  A    between atoms: C_26  and  C_29
REMARK                            x       y       z     vdW  Elec       q    Type
REMARK                         _______ _______ _______ _____ _____    ______ ____
ROOT
ATOM      1  C   UNL     1      -4.802   2.564 129.474  0.00  0.00    +0.000 A 
ATOM      2  C   UNL     1      -4.071   3.641 130.035  0.00  0.00    +0.000 A 
ATOM      3  C   UNL     1      -3.897   4.898 129.425  0.00  0.00    +0.000 A 
ATOM      4  C   UNL     1      -4.496   5.028 128.165  0.00  0.00    +0.000 A 
ATOM      5  C   UNL     1      -5.180   3.956 127.557  0.00  0.00    +0.000 A 
ATOM      6  C   UNL     1      -5.281   2.691 128.148  0.00  0.00    +0.000 A 
ENDROOT
BRANCH   1   8
ATOM      7  C   UNL     1      -4.490   0.002 129.872  0.00  0.00    +0.000 C 
ATOM      8  C   UNL     1      -5.006   1.346 130.391  0.00  0.00    +0.000 C 
ATOM      9  C   UNL     1      -6.542   1.256 130.601  0.00  0.00    +0.000 C 
ATOM     10  C   UNL     1      -4.091   1.416 131.620  0.00  0.00    +0.000 C 
ENDBRANCH   1   8
BRANCH   6  11
ATOM     11  N   UNL     1      -5.931   1.674 127.365  0.00  0.00    +0.000 N 
ATOM     12  C   UNL     1      -7.226   1.701 126.831  0.00  0.00    +0.000 C 
ATOM     13  O   UNL     1      -8.221   2.302 127.196  0.00  0.00    +0.000 OA
ATOM     14  H   UNL     1      -5.398   0.826 127.195  0.00  0.00    +0.000 HD
BRANCH  12  15
ATOM     15  C   UNL     1      -7.437   0.922 125.605  0.00  0.00    +0.000 A 
ATOM     16  C   UNL     1      -7.921   1.333 124.403  0.00  0.00    +0.000 A 
ATOM     17  N   UNL     1      -8.477   0.467 123.474  0.00  0.00    +0.000 N 
ATOM     18  C   UNL     1      -8.693  -0.870 123.843  0.00  0.00    +0.000 A 
ATOM     19  C   UNL     1      -9.265  -1.807 123.005  0.00  0.00    +0.000 A 
ATOM     20  C   UNL     1      -9.326  -3.151 123.415  0.00  0.00    +0.000 A 
ATOM     21  C   UNL     1      -8.842  -3.569 124.660  0.00  0.00    +0.000 A 
ATOM     22  C   UNL     1      -8.292  -2.651 125.510  0.00  0.00    +0.000 A 
ATOM     23  C   UNL     1      -8.212  -1.343 125.077  0.00  0.00    +0.000 A 
ATOM     24  C   UNL     1      -7.551  -0.457 125.982  0.00  0.00    +0.000 A 
ATOM     25  O   UNL     1      -7.137  -0.839 127.093  0.00  0.00    +0.000 OA
ATOM     26  H   UNL     1      -8.976   0.843 122.667  0.00  0.00    +0.000 HD
ENDBRANCH  12  15
ENDBRANCH   6  11
BRANCH   3  27
ATOM     27  C   UNL     1      -3.113   5.943 130.247  0.00  0.00    +0.000 C 
ATOM     28  C   UNL     1      -2.556   5.308 131.546  0.00  0.00    +0.000 C 
ATOM     29  C   UNL     1      -1.926   6.501 129.427  0.00  0.00    +0.000 C 
ATOM     30  C   UNL     1      -3.955   7.143 130.676  0.00  0.00    +0.000 C 
ENDBRANCH   3  27
BRANCH   4  31
ATOM     31  O   UNL     1      -4.508   6.129 127.355  0.00  0.00    +0.000 OA
ATOM     32  H   UNL     1      -3.993   6.860 127.700  0.00  0.00    +0.000 HD
ENDBRANCH   4  31
TORSDOF 5
ENDMDL
MODEL 8
REMARK VINA RESULT:      -7.8      4.727      7.323
REMARK  Name = Ivacaftor
REMARK  11 active torsions:
REMARK  status: ('A' for Active; 'I' for Inactive)
REMARK    1  A    between atoms: C_1  and  C_2
REMARK    2  A    between atoms: C_2  and  C_3
REMARK    3  A    between atoms: C_2  and  C_4
REMARK    4  A    between atoms: C_2  and  C_5
REMARK    5  A    between atoms: C_7  and  C_26
REMARK    6  A    between atoms: C_8  and  O_9
REMARK    7  A    between atoms: C_11  and  N_12
REMARK    8  A    between atoms: C_13  and  C_15
REMARK    9  A    between atoms: C_26  and  C_27
REMARK   10  A    between atoms: C_26  and  C_28
REMARK   11  A    between atoms: C_26  and  C_29
REMARK                            x       y       z     vdW  Elec       q    Type
REMARK                         _______ _______ _______ _____ _____    ______ ____
ROOT
ATOM      1  C   UNL     1      -3.817   3.180 128.609  0.00  0.00    +0.000 A 
ATOM      2  C   UNL     1      -3.462   4.016 129.697  0.00  0.00    +0.000 A 
ATOM      3  C   UNL     1      -3.537   3.645 131.053  0.00  0.00    +0.000 A 
ATOM      4  C   UNL     1      -4.024   2.352 131.283  0.00  0.00    +0.000 A 
ATOM      5  C   UNL     1      -4.439   1.518 130.224  0.00  0.00    +0.000 A 
ATOM      6  C   UNL     1      -4.424   1.931 128.886  0.00  0.00    +0.000 A 
ENDROOT
BRANCH   1   8
ATOM      7  C   UNL     1      -4.558   3.536 126.131  0.00  0.00    +0.000 C 
ATOM      8  C   UNL     1      -3.490   3.729 127.210  0.00  0.00    +0.000 C 
ATOM      9  C   UNL     1      -2.193   2.990 126.782  0.00  0.00    +0.000 C 
ATOM     10  C   UNL     1      -3.511   5.263 127.196  0.00  0.00    +0.000 C 
ENDBRANCH   1   8
BRANCH   6  11
ATOM     11  N   UNL     1      -4.963   1.003 127.929  0.00  0.00    +0.000 N 
ATOM     12  C   UNL     1      -6.311   0.721 127.674  0.00  0.00    +0.000 C 
ATOM     13  O   UNL     1      -7.290   0.816 128.393  0.00  0.00    +0.000 OA
ATOM     14  H   UNL     1      -4.288   0.473 127.385  0.00  0.00    +0.000 HD
BRANCH  12  15
ATOM     15  C   UNL     1      -6.634   0.278 126.312  0.00  0.00    +0.000 A 
ATOM     16  C   UNL     1      -7.124   1.002 125.271  0.00  0.00    +0.000 A 
ATOM     17  N   UNL     1      -7.787   0.430 124.196  0.00  0.00    +0.000 N 
ATOM     18  C   UNL     1      -8.105  -0.936 124.249  0.00  0.00    +0.000 A 
ATOM     19  C   UNL     1      -8.785  -1.598 123.246  0.00  0.00    +0.000 A 
ATOM     20  C   UNL     1      -8.948  -2.992 123.329  0.00  0.00    +0.000 A 
ATOM     21  C   UNL     1      -8.456  -3.734 124.409  0.00  0.00    +0.000 A 
ATOM     22  C   UNL     1      -7.799  -3.092 125.420  0.00  0.00    +0.000 A 
ATOM     23  C   UNL     1      -7.621  -1.728 125.307  0.00  0.00    +0.000 A 
ATOM     24  C   UNL     1      -6.854  -1.138 126.357  0.00  0.00    +0.000 A 
ATOM     25  O   UNL     1      -6.434  -1.807 127.321  0.00  0.00    +0.000 OA
ATOM     26  H   UNL     1      -8.281   1.026 123.531  0.00  0.00    +0.000 HD
ENDBRANCH  12  15
ENDBRANCH   6  11
BRANCH   3  27
ATOM     27  C   UNL     1      -3.041   4.697 132.067  0.00  0.00    +0.000 C 
ATOM     28  C   UNL     1      -1.788   4.183 132.817  0.00  0.00    +0.000 C 
ATOM     29  C   UNL     1      -2.674   6.017 131.348  0.00  0.00    +0.000 C 
ATOM     30  C   UNL     1      -4.073   5.052 133.136  0.00  0.00    +0.000 C 
ENDBRANCH   3  27
BRANCH   4  31
ATOM     31  O   UNL     1      -4.187   1.721 132.485  0.00  0.00    +0.000 OA
ATOM     32  H   UNL     1      -4.059   0.773 132.437  0.00  0.00    +0.000 HD
ENDBRANCH   4  31
TORSDOF 5
ENDMDL
MODEL 9
REMARK VINA RESULT:      -7.7      4.566      7.550
REMARK  Name = Ivacaftor
REMARK  11 active torsions:
REMARK  status: ('A' for Active; 'I' for Inactive)
REMARK    1  A    between atoms: C_1  and  C_2
REMARK    2  A    between atoms: C_2  and  C_3
REMARK    3  A    between atoms: C_2  and  C_4
REMARK    4  A    between atoms: C_2  and  C_5
REMARK    5  A    between atoms: C_7  and  C_26
REMARK    6  A    between atoms: C_8  and  O_9
REMARK    7  A    between atoms: C_11  and  N_12
REMARK    8  A    between atoms: C_13  and  C_15
REMARK    9  A    between atoms: C_26  and  C_27
REMARK   10  A    between atoms: C_26  and  C_28
REMARK   11  A    between atoms: C_26  and  C_29
REMARK                            x       y       z     vdW  Elec       q    Type
REMARK                         _______ _______ _______ _____ _____    ______ ____
ROOT
ATOM      1  C   UNL     1      -5.028   2.686 129.554  0.00  0.00    +0.000 A 
ATOM      2  C   UNL     1      -4.180   3.678 130.106  0.00  0.00    +0.000 A 
ATOM      3  C   UNL     1      -3.906   4.923 129.510  0.00  0.00    +0.000 A 
ATOM      4  C   UNL     1      -4.530   5.134 128.273  0.00  0.00    +0.000 A 
ATOM      5  C   UNL     1      -5.333   4.144 127.672  0.00  0.00    +0.000 A 
ATOM      6  C   UNL     1      -5.536   2.883 128.246  0.00  0.00    +0.000 A 
ENDROOT
BRANCH   1   8
ATOM      7  C   UNL     1      -5.111   1.679 131.961  0.00  0.00    +0.000 C 
ATOM      8  C   UNL     1      -5.319   1.476 130.458  0.00  0.00    +0.000 C 
ATOM      9  C   UNL     1      -4.361   0.362 129.956  0.00  0.00    +0.000 C 
ATOM     10  C   UNL     1      -6.823   1.186 130.532  0.00  0.00    +0.000 C 
ENDBRANCH   1   8
BRANCH   6  11
ATOM     11  N   UNL     1      -6.306   1.947 127.471  0.00  0.00    +0.000 N 
ATOM     12  C   UNL     1      -5.831   0.874 126.706  0.00  0.00    +0.000 C 
ATOM     13  O   UNL     1      -4.753   0.702 126.165  0.00  0.00    +0.000 OA
ATOM     14  H   UNL     1      -7.311   2.091 127.459  0.00  0.00    +0.000 HD
BRANCH  12  15
ATOM     15  C   UNL     1      -6.745  -0.264 126.550  0.00  0.00    +0.000 A 
ATOM     16  C   UNL     1      -6.670  -1.504 127.104  0.00  0.00    +0.000 A 
ATOM     17  N   UNL     1      -7.314  -2.611 126.573  0.00  0.00    +0.000 N 
ATOM     18  C   UNL     1      -7.947  -2.489 125.326  0.00  0.00    +0.000 A 
ATOM     19  C   UNL     1      -8.593  -3.535 124.697  0.00  0.00    +0.000 A 
ATOM     20  C   UNL     1      -9.306  -3.289 123.510  0.00  0.00    +0.000 A 
ATOM     21  C   UNL     1      -9.369  -2.016 122.932  0.00  0.00    +0.000 A 
ATOM     22  C   UNL     1      -8.718  -0.974 123.531  0.00  0.00    +0.000 A 
ATOM     23  C   UNL     1      -8.049  -1.228 124.712  0.00  0.00    +0.000 A 
ATOM     24  C   UNL     1      -7.465  -0.077 125.324  0.00  0.00    +0.000 A 
ATOM     25  O   UNL     1      -7.515   1.048 124.792  0.00  0.00    +0.000 OA
ATOM     26  H   UNL     1      -7.090  -3.542 126.925  0.00  0.00    +0.000 HD
ENDBRANCH  12  15
ENDBRANCH   6  11
BRANCH   3  27
ATOM     27  C   UNL     1      -2.999   5.873 130.321  0.00  0.00    +0.000 C 
ATOM     28  C   UNL     1      -2.371   5.130 131.526  0.00  0.00    +0.000 C 
ATOM     29  C   UNL     1      -1.856   6.423 129.435  0.00  0.00    +0.000 C 
ATOM     30  C   UNL     1      -3.734   7.084 130.892  0.00  0.00    +0.000 C 
ENDBRANCH   3  27
BRANCH   4  31
ATOM     31  O   UNL     1      -4.462   6.246 127.481  0.00  0.00    +0.000 OA
ATOM     32  H   UNL     1      -5.143   6.274 126.807  0.00  0.00    +0.000 HD
ENDBRANCH   4  31
TORSDOF 5
ENDMDL
