MODEL 1
REMARK VINA RESULT:      -8.9      0.000      0.000
REMARK  Name = Ivosidenib
REMARK  7 active torsions:
REMARK  status: ('A' for Active; 'I' for Inactive)
REMARK    1  A    between atoms: C_2  and  N_3
REMARK    2  A    between atoms: C_2  and  C_28
REMARK    3  A    between atoms: C_2  and  C_37
REMARK    4  A    between atoms: N_3  and  C_21
REMARK    5  A    between atoms: C_4  and  C_6
REMARK    6  A    between atoms: C_17  and  C_19
REMARK    7  A    between atoms: N_30  and  C_31
REMARK                            x       y       z     vdW  Elec       q    Type
REMARK                         _______ _______ _______ _____ _____    ______ ____
ROOT
ATOM      1  N   UNL     1      -4.826   4.622 131.238  0.00  0.00    +0.000 N 
ATOM      2  C   UNL     1      -4.631   3.277 131.568  0.00  0.00    +0.000 C 
ATOM      3  O   UNL     1      -4.053   2.495 130.799  0.00  0.00    +0.000 OA
ENDROOT
BRANCH   2   4
ATOM      4  C   UNL     1      -5.033   2.700 132.909  0.00  0.00    +0.000 C 
ATOM      5  C   UNL     1      -3.848   1.915 133.436  0.00  0.00    +0.000 C 
ATOM      6  C   UNL     1      -4.515   1.020 134.475  0.00  0.00    +0.000 C 
ATOM      7  C   UNL     1      -5.846   0.735 133.907  0.00  0.00    +0.000 C 
ATOM      8  O   UNL     1      -6.558  -0.173 134.292  0.00  0.00    +0.000 OA
ATOM      9  N   UNL     1      -6.078   1.716 132.966  0.00  0.00    +0.000 N 
ATOM     10  C   UNL     1      -7.339   2.054 132.528  0.00  0.00    +0.000 A 
ATOM     11  N   UNL     1      -8.378   2.184 133.370  0.00  0.00    +0.000 NA
ATOM     12  C   UNL     1      -9.587   2.367 132.801  0.00  0.00    +0.000 A 
ATOM     13  C   UNL     1      -9.784   2.439 131.431  0.00  0.00    +0.000 A 
ATOM     14  C   UNL     1      -8.677   2.348 130.605  0.00  0.00    +0.000 A 
ATOM     15  C   UNL     1      -7.438   2.168 131.163  0.00  0.00    +0.000 A 
BRANCH  14  16
ATOM     16  C   UNL     1      -8.776   2.379 129.174  0.00  0.00    +0.000 C 
ATOM     17  N   UNL     1      -8.858   2.365 128.033  0.00  0.00    +0.000 NA
ENDBRANCH  14  16
ENDBRANCH   2   4
BRANCH   1  18
ATOM     18  C   UNL     1      -4.519   4.922 129.838  0.00  0.00    +0.000 A 
ATOM     19  C   UNL     1      -3.309   5.461 129.422  0.00  0.00    +0.000 A 
ATOM     20  C   UNL     1      -3.088   5.736 128.070  0.00  0.00    +0.000 A 
ATOM     21  F   UNL     1      -1.974   6.374 127.688  0.00  0.00    +0.000 F 
ATOM     22  C   UNL     1      -4.034   5.370 127.134  0.00  0.00    +0.000 A 
ATOM     23  N   UNL     1      -5.201   4.793 127.473  0.00  0.00    +0.000 NA
ATOM     24  C   UNL     1      -5.413   4.598 128.800  0.00  0.00    +0.000 A 
ENDBRANCH   1  18
BRANCH   1  25
ATOM     25  C   UNL     1      -5.396   5.756 132.124  0.00  0.00    +0.000 C 
BRANCH  25  26
ATOM     26  C   UNL     1      -4.276   6.618 132.770  0.00  0.00    +0.000 A 
ATOM     27  C   UNL     1      -3.980   6.594 134.151  0.00  0.00    +0.000 A 
ATOM     28 CL   UNL     1      -4.979   5.910 135.379  0.00  0.00    +0.000 Cl
ATOM     29  C   UNL     1      -2.916   7.317 134.692  0.00  0.00    +0.000 A 
ATOM     30  C   UNL     1      -2.242   8.250 133.927  0.00  0.00    +0.000 A 
ATOM     31  C   UNL     1      -2.562   8.381 132.587  0.00  0.00    +0.000 A 
ATOM     32  C   UNL     1      -3.503   7.524 132.002  0.00  0.00    +0.000 A 
ENDBRANCH  25  26
BRANCH  25  33
ATOM     33  C   UNL     1      -6.552   6.670 131.480  0.00  0.00    +0.000 C 
ATOM     34  O   UNL     1      -6.368   7.474 130.565  0.00  0.00    +0.000 OA
ATOM     35  N   UNL     1      -7.873   6.411 131.868  0.00  0.00    +0.000 N 
ATOM     36  H   UNL     1      -7.998   5.680 132.560  0.00  0.00    +0.000 HD
BRANCH  35  37
ATOM     37  C   UNL     1      -9.032   6.823 130.933  0.00  0.00    +0.000 C 
ATOM     38  C   UNL     1      -9.451   5.866 129.700  0.00  0.00    +0.000 C 
ATOM     39  C   UNL     1     -10.881   6.235 130.047  0.00  0.00    +0.000 C 
ATOM     40  F   UNL     1     -11.756   5.257 129.751  0.00  0.00    +0.000 F 
ATOM     41  F   UNL     1     -11.328   7.369 129.454  0.00  0.00    +0.000 F 
ATOM     42  C   UNL     1     -10.374   6.373 131.496  0.00  0.00    +0.000 C 
ENDBRANCH  35  37
ENDBRANCH  25  33
ENDBRANCH   1  25
TORSDOF 7
ENDMDL
MODEL 2
REMARK VINA RESULT:      -8.7      5.015      8.021
REMARK  Name = Ivosidenib
REMARK  7 active torsions:
REMARK  status: ('A' for Active; 'I' for Inactive)
REMARK    1  A    between atoms: C_2  and  N_3
REMARK    2  A    between atoms: C_2  and  C_28
REMARK    3  A    between atoms: C_2  and  C_37
REMARK    4  A    between atoms: N_3  and  C_21
REMARK    5  A    between atoms: C_4  and  C_6
REMARK    6  A    between atoms: C_17  and  C_19
REMARK    7  A    between atoms: N_30  and  C_31
REMARK                            x       y       z     vdW  Elec       q    Type
REMARK                         _______ _______ _______ _____ _____    ______ ____
ROOT
ATOM      1  N   UNL     1      -6.564   1.977 128.771  0.00  0.00    +0.000 N 
ATOM      2  C   UNL     1      -7.461   2.311 127.752  0.00  0.00    +0.000 C 
ATOM      3  O   UNL     1      -8.637   2.619 127.995  0.00  0.00    +0.000 OA
ENDROOT
BRANCH   2   4
ATOM      4  C   UNL     1      -7.046   2.402 126.298  0.00  0.00    +0.000 C 
ATOM      5  C   UNL     1      -7.772   3.589 125.695  0.00  0.00    +0.000 C 
ATOM      6  C   UNL     1      -7.675   3.279 124.205  0.00  0.00    +0.000 C 
ATOM      7  C   UNL     1      -7.745   1.807 124.136  0.00  0.00    +0.000 C 
ATOM      8  O   UNL     1      -7.995   1.196 123.113  0.00  0.00    +0.000 OA
ATOM      9  N   UNL     1      -7.418   1.349 125.394  0.00  0.00    +0.000 N 
ATOM     10  C   UNL     1      -6.961   0.071 125.633  0.00  0.00    +0.000 A 
ATOM     11  N   UNL     1      -6.054  -0.525 124.843  0.00  0.00    +0.000 NA
ATOM     12  C   UNL     1      -5.807  -1.826 125.095  0.00  0.00    +0.000 A 
ATOM     13  C   UNL     1      -6.422  -2.538 126.113  0.00  0.00    +0.000 A 
ATOM     14  C   UNL     1      -7.314  -1.868 126.933  0.00  0.00    +0.000 A 
ATOM     15  C   UNL     1      -7.575  -0.543 126.697  0.00  0.00    +0.000 A 
BRANCH  14  16
ATOM     16  C   UNL     1      -8.027  -2.520 127.994  0.00  0.00    +0.000 C 
ATOM     17  N   UNL     1      -8.599  -3.071 128.818  0.00  0.00    +0.000 NA
ENDBRANCH  14  16
ENDBRANCH   2   4
BRANCH   1  18
ATOM     18  C   UNL     1      -7.213   1.784 130.069  0.00  0.00    +0.000 A 
ATOM     19  C   UNL     1      -7.757   0.573 130.477  0.00  0.00    +0.000 A 
ATOM     20  C   UNL     1      -8.376   0.464 131.726  0.00  0.00    +0.000 A 
ATOM     21  F   UNL     1      -9.013  -0.665 132.062  0.00  0.00    +0.000 F 
ATOM     22  C   UNL     1      -8.349   1.533 132.597  0.00  0.00    +0.000 A 
ATOM     23  N   UNL     1      -7.787   2.712 132.280  0.00  0.00    +0.000 NA
ATOM     24  C   UNL     1      -7.251   2.807 131.035  0.00  0.00    +0.000 A 
ENDBRANCH   1  18
BRANCH   1  25
ATOM     25  C   UNL     1      -5.044   1.705 128.663  0.00  0.00    +0.000 C 
BRANCH  25  26
ATOM     26  C   UNL     1      -4.204   3.010 128.766  0.00  0.00    +0.000 A 
ATOM     27  C   UNL     1      -3.468   3.543 127.685  0.00  0.00    +0.000 A 
ATOM     28 CL   UNL     1      -3.089   2.713 126.222  0.00  0.00    +0.000 Cl
ATOM     29  C   UNL     1      -2.789   4.758 127.782  0.00  0.00    +0.000 A 
ATOM     30  C   UNL     1      -2.638   5.381 129.007  0.00  0.00    +0.000 A 
ATOM     31  C   UNL     1      -3.261   4.842 130.118  0.00  0.00    +0.000 A 
ATOM     32  C   UNL     1      -4.094   3.725 129.984  0.00  0.00    +0.000 A 
ENDBRANCH  25  26
BRANCH  25  33
ATOM     33  C   UNL     1      -4.446   0.538 129.594  0.00  0.00    +0.000 C 
ATOM     34  O   UNL     1      -4.138   0.688 130.777  0.00  0.00    +0.000 OA
ATOM     35  N   UNL     1      -4.435  -0.762 129.074  0.00  0.00    +0.000 N 
ATOM     36  H   UNL     1      -4.779  -0.865 128.126  0.00  0.00    +0.000 HD
BRANCH  35  37
ATOM     37  C   UNL     1      -4.415  -1.965 130.044  0.00  0.00    +0.000 C 
ATOM     38  C   UNL     1      -5.785  -2.456 130.748  0.00  0.00    +0.000 C 
ATOM     39  C   UNL     1      -5.265  -3.863 130.523  0.00  0.00    +0.000 C 
ATOM     40  F   UNL     1      -6.252  -4.760 130.346  0.00  0.00    +0.000 F 
ATOM     41  F   UNL     1      -4.467  -4.331 131.513  0.00  0.00    +0.000 F 
ATOM     42  C   UNL     1      -4.552  -3.279 129.286  0.00  0.00    +0.000 C 
ENDBRANCH  35  37
ENDBRANCH  25  33
ENDBRANCH   1  25
TORSDOF 7
ENDMDL
MODEL 3
REMARK VINA RESULT:      -8.6      3.300      5.237
REMARK  Name = Ivosidenib
REMARK  7 active torsions:
REMARK  status: ('A' for Active; 'I' for Inactive)
REMARK    1  A    between atoms: C_2  and  N_3
REMARK    2  A    between atoms: C_2  and  C_28
REMARK    3  A    between atoms: C_2  and  C_37
REMARK    4  A    between atoms: N_3  and  C_21
REMARK    5  A    between atoms: C_4  and  C_6
REMARK    6  A    between atoms: C_17  and  C_19
REMARK    7  A    between atoms: N_30  and  C_31
REMARK                            x       y       z     vdW  Elec       q    Type
REMARK                         _______ _______ _______ _____ _____    ______ ____
ROOT
ATOM      1  N   UNL     1      -6.643   2.917 129.033  0.00  0.00    +0.000 N 
ATOM      2  C   UNL     1      -6.365   1.659 128.488  0.00  0.00    +0.000 C 
ATOM      3  O   UNL     1      -5.210   1.318 128.194  0.00  0.00    +0.000 OA
ENDROOT
BRANCH   2   4
ATOM      4  C   UNL     1      -7.432   0.601 128.295  0.00  0.00    +0.000 C 
ATOM      5  C   UNL     1      -6.945  -0.659 128.983  0.00  0.00    +0.000 C 
ATOM      6  C   UNL     1      -7.813  -1.722 128.318  0.00  0.00    +0.000 C 
ATOM      7  C   UNL     1      -7.992  -1.232 126.938  0.00  0.00    +0.000 C 
ATOM      8  O   UNL     1      -8.372  -1.937 126.021  0.00  0.00    +0.000 OA
ATOM      9  N   UNL     1      -7.710   0.117 126.972  0.00  0.00    +0.000 N 
ATOM     10  C   UNL     1      -8.159   1.002 126.017  0.00  0.00    +0.000 A 
ATOM     11  N   UNL     1      -9.412   0.962 125.536  0.00  0.00    +0.000 NA
ATOM     12  C   UNL     1      -9.679   1.781 124.499  0.00  0.00    +0.000 A 
ATOM     13  C   UNL     1      -8.744   2.642 123.944  0.00  0.00    +0.000 A 
ATOM     14  C   UNL     1      -7.479   2.684 124.505  0.00  0.00    +0.000 A 
ATOM     15  C   UNL     1      -7.189   1.863 125.564  0.00  0.00    +0.000 A 
BRANCH  14  16
ATOM     16  C   UNL     1      -6.432   3.515 123.986  0.00  0.00    +0.000 C 
ATOM     17  N   UNL     1      -5.620   4.208 123.573  0.00  0.00    +0.000 NA
ENDBRANCH  14  16
ENDBRANCH   2   4
BRANCH   1  18
ATOM     18  C   UNL     1      -5.504   3.835 128.972  0.00  0.00    +0.000 A 
ATOM     19  C   UNL     1      -4.515   3.886 129.945  0.00  0.00    +0.000 A 
ATOM     20  C   UNL     1      -3.461   4.798 129.831  0.00  0.00    +0.000 A 
ATOM     21  F   UNL     1      -2.582   4.936 130.831  0.00  0.00    +0.000 F 
ATOM     22  C   UNL     1      -3.349   5.573 128.695  0.00  0.00    +0.000 A 
ATOM     23  N   UNL     1      -4.246   5.526 127.694  0.00  0.00    +0.000 NA
ATOM     24  C   UNL     1      -5.292   4.676 127.864  0.00  0.00    +0.000 A 
ENDBRANCH   1  18
BRANCH   1  25
ATOM     25  C   UNL     1      -7.989   3.451 129.580  0.00  0.00    +0.000 C 
BRANCH  25  26
ATOM     26  C   UNL     1      -7.971   3.618 131.126  0.00  0.00    +0.000 A 
ATOM     27  C   UNL     1      -8.406   2.613 132.017  0.00  0.00    +0.000 A 
ATOM     28 CL   UNL     1      -9.323   1.218 131.586  0.00  0.00    +0.000 Cl
ATOM     29  C   UNL     1      -8.304   2.758 133.402  0.00  0.00    +0.000 A 
ATOM     30  C   UNL     1      -7.967   3.978 133.956  0.00  0.00    +0.000 A 
ATOM     31  C   UNL     1      -7.625   5.026 133.119  0.00  0.00    +0.000 A 
ATOM     32  C   UNL     1      -7.550   4.826 131.735  0.00  0.00    +0.000 A 
ENDBRANCH  25  26
BRANCH  25  33
ATOM     33  C   UNL     1      -8.608   4.744 128.850  0.00  0.00    +0.000 C 
ATOM     34  O   UNL     1      -8.546   4.949 127.638  0.00  0.00    +0.000 OA
ATOM     35  N   UNL     1      -9.410   5.598 129.618  0.00  0.00    +0.000 N 
ATOM     36  H   UNL     1      -9.513   5.351 130.596  0.00  0.00    +0.000 HD
BRANCH  35  37
ATOM     37  C   UNL     1     -10.453   6.494 128.913  0.00  0.00    +0.000 C 
ATOM     38  C   UNL     1     -11.880   6.775 129.616  0.00  0.00    +0.000 C 
ATOM     39  C   UNL     1     -11.733   8.191 129.092  0.00  0.00    +0.000 C 
ATOM     40  F   UNL     1     -12.335   9.102 129.879  0.00  0.00    +0.000 F 
ATOM     41  F   UNL     1     -12.200   8.375 127.833  0.00  0.00    +0.000 F 
ATOM     42  C   UNL     1     -10.215   7.964 129.234  0.00  0.00    +0.000 C 
ENDBRANCH  35  37
ENDBRANCH  25  33
ENDBRANCH   1  25
TORSDOF 7
ENDMDL
MODEL 4
REMARK VINA RESULT:      -8.6      4.384      6.493
REMARK  Name = Ivosidenib
REMARK  7 active torsions:
REMARK  status: ('A' for Active; 'I' for Inactive)
REMARK    1  A    between atoms: C_2  and  N_3
REMARK    2  A    between atoms: C_2  and  C_28
REMARK    3  A    between atoms: C_2  and  C_37
REMARK    4  A    between atoms: N_3  and  C_21
REMARK    5  A    between atoms: C_4  and  C_6
REMARK    6  A    between atoms: C_17  and  C_19
REMARK    7  A    between atoms: N_30  and  C_31
REMARK                            x       y       z     vdW  Elec       q    Type
REMARK                         _______ _______ _______ _____ _____    ______ ____
ROOT
ATOM      1  N   UNL     1      -6.746   2.157 127.771  0.00  0.00    +0.000 N 
ATOM      2  C   UNL     1      -7.819   1.991 128.653  0.00  0.00    +0.000 C 
ATOM      3  O   UNL     1      -8.987   1.903 128.248  0.00  0.00    +0.000 OA
ENDROOT
BRANCH   2   4
ATOM      4  C   UNL     1      -7.628   1.825 130.146  0.00  0.00    +0.000 C 
ATOM      5  C   UNL     1      -8.054   0.414 130.500  0.00  0.00    +0.000 C 
ATOM      6  C   UNL     1      -8.287   0.535 132.002  0.00  0.00    +0.000 C 
ATOM      7  C   UNL     1      -8.800   1.907 132.179  0.00  0.00    +0.000 C 
ATOM      8  O   UNL     1      -9.375   2.283 133.184  0.00  0.00    +0.000 OA
ATOM      9  N   UNL     1      -8.430   2.602 131.048  0.00  0.00    +0.000 N 
ATOM     10  C   UNL     1      -8.341   3.977 131.006  0.00  0.00    +0.000 A 
ATOM     11  N   UNL     1      -7.786   4.688 132.000  0.00  0.00    +0.000 NA
ATOM     12  C   UNL     1      -7.898   6.029 131.908  0.00  0.00    +0.000 A 
ATOM     13  C   UNL     1      -8.529   6.673 130.855  0.00  0.00    +0.000 A 
ATOM     14  C   UNL     1      -9.044   5.899 129.829  0.00  0.00    +0.000 A 
ATOM     15  C   UNL     1      -8.935   4.534 129.901  0.00  0.00    +0.000 A 
BRANCH  14  16
ATOM     16  C   UNL     1      -9.743   6.464 128.712  0.00  0.00    +0.000 C 
ATOM     17  N   UNL     1     -10.274   6.901 127.796  0.00  0.00    +0.000 NA
ENDBRANCH  14  16
ENDBRANCH   2   4
BRANCH   1  18
ATOM     18  C   UNL     1      -7.168   2.466 126.403  0.00  0.00    +0.000 A 
ATOM     19  C   UNL     1      -7.006   1.588 125.340  0.00  0.00    +0.000 A 
ATOM     20  C   UNL     1      -7.419   1.954 124.055  0.00  0.00    +0.000 A 
ATOM     21  F   UNL     1      -7.144   1.161 123.011  0.00  0.00    +0.000 F 
ATOM     22  C   UNL     1      -8.087   3.146 123.866  0.00  0.00    +0.000 A 
ATOM     23  N   UNL     1      -8.324   4.010 124.868  0.00  0.00    +0.000 NA
ATOM     24  C   UNL     1      -7.853   3.655 126.092  0.00  0.00    +0.000 A 
ENDBRANCH   1  18
BRANCH   1  25
ATOM     25  C   UNL     1      -5.231   2.147 128.087  0.00  0.00    +0.000 C 
BRANCH  25  26
ATOM     26  C   UNL     1      -4.678   3.573 128.366  0.00  0.00    +0.000 A 
ATOM     27  C   UNL     1      -3.459   4.048 127.833  0.00  0.00    +0.000 A 
ATOM     28 CL   UNL     1      -2.239   3.076 127.099  0.00  0.00    +0.000 Cl
ATOM     29  C   UNL     1      -3.026   5.359 128.034  0.00  0.00    +0.000 A 
ATOM     30  C   UNL     1      -3.673   6.180 128.938  0.00  0.00    +0.000 A 
ATOM     31  C   UNL     1      -4.820   5.724 129.562  0.00  0.00    +0.000 A 
ATOM     32  C   UNL     1      -5.357   4.476 129.220  0.00  0.00    +0.000 A 
ENDBRANCH  25  26
BRANCH  25  33
ATOM     33  C   UNL     1      -4.725   1.088 129.187  0.00  0.00    +0.000 C 
ATOM     34  O   UNL     1      -4.449   1.379 130.351  0.00  0.00    +0.000 OA
ATOM     35  N   UNL     1      -4.764  -0.270 128.843  0.00  0.00    +0.000 N 
ATOM     36  H   UNL     1      -5.082  -0.482 127.904  0.00  0.00    +0.000 HD
BRANCH  35  37
ATOM     37  C   UNL     1      -4.839  -1.332 129.963  0.00  0.00    +0.000 C 
ATOM     38  C   UNL     1      -6.028  -2.426 129.958  0.00  0.00    +0.000 C 
ATOM     39  C   UNL     1      -4.971  -3.412 130.420  0.00  0.00    +0.000 C 
ATOM     40  F   UNL     1      -5.215  -4.668 130.005  0.00  0.00    +0.000 F 
ATOM     41  F   UNL     1      -4.795  -3.457 131.763  0.00  0.00    +0.000 F 
ATOM     42  C   UNL     1      -3.976  -2.541 129.627  0.00  0.00    +0.000 C 
ENDBRANCH  35  37
ENDBRANCH  25  33
ENDBRANCH   1  25
TORSDOF 7
ENDMDL
MODEL 5
REMARK VINA RESULT:      -8.4      3.450      7.037
REMARK  Name = Ivosidenib
REMARK  7 active torsions:
REMARK  status: ('A' for Active; 'I' for Inactive)
REMARK    1  A    between atoms: C_2  and  N_3
REMARK    2  A    between atoms: C_2  and  C_28
REMARK    3  A    between atoms: C_2  and  C_37
REMARK    4  A    between atoms: N_3  and  C_21
REMARK    5  A    between atoms: C_4  and  C_6
REMARK    6  A    between atoms: C_17  and  C_19
REMARK    7  A    between atoms: N_30  and  C_31
REMARK                            x       y       z     vdW  Elec       q    Type
REMARK                         _______ _______ _______ _____ _____    ______ ____
ROOT
ATOM      1  N   UNL     1      -6.340   2.044 128.905  0.00  0.00    +0.000 N 
ATOM      2  C   UNL     1      -4.972   2.324 128.987  0.00  0.00    +0.000 C 
ATOM      3  O   UNL     1      -4.190   1.582 129.599  0.00  0.00    +0.000 OA
ENDROOT
BRANCH   2   4
ATOM      4  C   UNL     1      -4.337   3.498 128.271  0.00  0.00    +0.000 C 
ATOM      5  C   UNL     1      -3.142   2.967 127.505  0.00  0.00    +0.000 C 
ATOM      6  C   UNL     1      -2.343   4.243 127.264  0.00  0.00    +0.000 C 
ATOM      7  C   UNL     1      -2.593   5.059 128.468  0.00  0.00    +0.000 C 
ATOM      8  O   UNL     1      -1.905   6.012 128.786  0.00  0.00    +0.000 OA
ATOM      9  N   UNL     1      -3.739   4.551 129.043  0.00  0.00    +0.000 N 
ATOM     10  C   UNL     1      -4.527   5.274 129.912  0.00  0.00    +0.000 A 
ATOM     11  N   UNL     1      -4.836   6.562 129.696  0.00  0.00    +0.000 NA
ATOM     12  C   UNL     1      -5.484   7.196 130.695  0.00  0.00    +0.000 A 
ATOM     13  C   UNL     1      -5.841   6.581 131.885  0.00  0.00    +0.000 A 
ATOM     14  C   UNL     1      -5.544   5.238 132.043  0.00  0.00    +0.000 A 
ATOM     15  C   UNL     1      -4.891   4.574 131.037  0.00  0.00    +0.000 A 
BRANCH  14  16
ATOM     16  C   UNL     1      -5.842   4.518 133.247  0.00  0.00    +0.000 C 
ATOM     17  N   UNL     1      -6.044   3.951 134.220  0.00  0.00    +0.000 NA
ENDBRANCH  14  16
ENDBRANCH   2   4
BRANCH   1  18
ATOM     18  C   UNL     1      -6.761   0.968 129.805  0.00  0.00    +0.000 A 
ATOM     19  C   UNL     1      -6.982  -0.336 129.382  0.00  0.00    +0.000 A 
ATOM     20  C   UNL     1      -7.398  -1.311 130.294  0.00  0.00    +0.000 A 
ATOM     21  F   UNL     1      -7.736  -2.533 129.862  0.00  0.00    +0.000 F 
ATOM     22  C   UNL     1      -7.483  -1.000 131.636  0.00  0.00    +0.000 A 
ATOM     23  N   UNL     1      -7.226   0.231 132.111  0.00  0.00    +0.000 NA
ATOM     24  C   UNL     1      -6.887   1.172 131.192  0.00  0.00    +0.000 A 
ENDBRANCH   1  18
BRANCH   1  25
ATOM     25  C   UNL     1      -7.424   2.776 128.078  0.00  0.00    +0.000 C 
BRANCH  25  26
ATOM     26  C   UNL     1      -7.830   1.980 126.805  0.00  0.00    +0.000 A 
ATOM     27  C   UNL     1      -7.132   2.072 125.581  0.00  0.00    +0.000 A 
ATOM     28 CL   UNL     1      -5.974   3.283 125.174  0.00  0.00    +0.000 Cl
ATOM     29  C   UNL     1      -7.469   1.287 124.477  0.00  0.00    +0.000 A 
ATOM     30  C   UNL     1      -8.632   0.541 124.477  0.00  0.00    +0.000 A 
ATOM     31  C   UNL     1      -9.404   0.496 125.625  0.00  0.00    +0.000 A 
ATOM     32  C   UNL     1      -8.968   1.137 126.791  0.00  0.00    +0.000 A 
ENDBRANCH  25  26
BRANCH  25  33
ATOM     33  C   UNL     1      -8.711   3.311 128.879  0.00  0.00    +0.000 C 
ATOM     34  O   UNL     1      -9.623   2.589 129.285  0.00  0.00    +0.000 OA
ATOM     35  N   UNL     1      -8.709   4.653 129.284  0.00  0.00    +0.000 N 
ATOM     36  H   UNL     1      -7.900   5.199 129.008  0.00  0.00    +0.000 HD
BRANCH  35  37
ATOM     37  C   UNL     1      -9.585   5.083 130.481  0.00  0.00    +0.000 C 
ATOM     38  C   UNL     1      -9.240   4.548 131.967  0.00  0.00    +0.000 C 
ATOM     39  C   UNL     1      -9.609   5.943 132.434  0.00  0.00    +0.000 C 
ATOM     40  F   UNL     1      -8.933   6.319 133.535  0.00  0.00    +0.000 F 
ATOM     41  F   UNL     1     -10.928   6.117 132.691  0.00  0.00    +0.000 F 
ATOM     42  C   UNL     1      -9.113   6.414 131.052  0.00  0.00    +0.000 C 
ENDBRANCH  35  37
ENDBRANCH  25  33
ENDBRANCH   1  25
TORSDOF 7
ENDMDL
MODEL 6
REMARK VINA RESULT:      -8.3      2.575      4.348
REMARK  Name = Ivosidenib
REMARK  7 active torsions:
REMARK  status: ('A' for Active; 'I' for Inactive)
REMARK    1  A    between atoms: C_2  and  N_3
REMARK    2  A    between atoms: C_2  and  C_28
REMARK    3  A    between atoms: C_2  and  C_37
REMARK    4  A    between atoms: N_3  and  C_21
REMARK    5  A    between atoms: C_4  and  C_6
REMARK    6  A    between atoms: C_17  and  C_19
REMARK    7  A    between atoms: N_30  and  C_31
REMARK                            x       y       z     vdW  Elec       q    Type
REMARK                         _______ _______ _______ _____ _____    ______ ____
ROOT
ATOM      1  N   UNL     1      -6.020   3.596 129.865  0.00  0.00    +0.000 N 
ATOM      2  C   UNL     1      -5.245   2.432 129.890  0.00  0.00    +0.000 C 
ATOM      3  O   UNL     1      -4.012   2.468 129.762  0.00  0.00    +0.000 OA
ENDROOT
BRANCH   2   4
ATOM      4  C   UNL     1      -5.837   1.065 130.157  0.00  0.00    +0.000 C 
ATOM      5  C   UNL     1      -7.113   0.959 129.345  0.00  0.00    +0.000 C 
ATOM      6  C   UNL     1      -7.831  -0.183 130.054  0.00  0.00    +0.000 C 
ATOM      7  C   UNL     1      -7.449  -0.027 131.471  0.00  0.00    +0.000 C 
ATOM      8  O   UNL     1      -8.046  -0.560 132.388  0.00  0.00    +0.000 OA
ATOM      9  N   UNL     1      -6.310   0.748 131.476  0.00  0.00    +0.000 N 
ATOM     10  C   UNL     1      -5.420   0.769 132.527  0.00  0.00    +0.000 A 
ATOM     11  N   UNL     1      -5.033  -0.351 133.160  0.00  0.00    +0.000 NA
ATOM     12  C   UNL     1      -4.281  -0.181 134.266  0.00  0.00    +0.000 A 
ATOM     13  C   UNL     1      -3.895   1.061 134.745  0.00  0.00    +0.000 A 
ATOM     14  C   UNL     1      -4.277   2.185 134.032  0.00  0.00    +0.000 A 
ATOM     15  C   UNL     1      -5.037   2.034 132.901  0.00  0.00    +0.000 A 
BRANCH  14  16
ATOM     16  C   UNL     1      -3.957   3.516 134.460  0.00  0.00    +0.000 C 
ATOM     17  N   UNL     1      -3.668   4.575 134.783  0.00  0.00    +0.000 NA
ENDBRANCH  14  16
ENDBRANCH   2   4
BRANCH   1  18
ATOM     18  C   UNL     1      -5.273   4.776 129.425  0.00  0.00    +0.000 A 
ATOM     19  C   UNL     1      -4.813   5.754 130.297  0.00  0.00    +0.000 A 
ATOM     20  C   UNL     1      -4.118   6.864 129.806  0.00  0.00    +0.000 A 
ATOM     21  F   UNL     1      -3.790   7.868 130.630  0.00  0.00    +0.000 F 
ATOM     22  C   UNL     1      -3.795   6.930 128.467  0.00  0.00    +0.000 A 
ATOM     23  N   UNL     1      -4.164   5.985 127.585  0.00  0.00    +0.000 NA
ATOM     24  C   UNL     1      -4.894   4.952 128.082  0.00  0.00    +0.000 A 
ENDBRANCH   1  18
BRANCH   1  25
ATOM     25  C   UNL     1      -7.535   3.748 130.145  0.00  0.00    +0.000 C 
BRANCH  25  26
ATOM     26  C   UNL     1      -7.839   3.921 131.660  0.00  0.00    +0.000 A 
ATOM     27  C   UNL     1      -8.863   3.214 132.328  0.00  0.00    +0.000 A 
ATOM     28 CL   UNL     1     -10.138   2.336 131.567  0.00  0.00    +0.000 Cl
ATOM     29  C   UNL     1      -9.062   3.328 133.705  0.00  0.00    +0.000 A 
ATOM     30  C   UNL     1      -8.398   4.298 134.431  0.00  0.00    +0.000 A 
ATOM     31  C   UNL     1      -7.452   5.084 133.798  0.00  0.00    +0.000 A 
ATOM     32  C   UNL     1      -7.121   4.844 132.459  0.00  0.00    +0.000 A 
ENDBRANCH  25  26
BRANCH  25  33
ATOM     33  C   UNL     1      -8.334   4.821 129.252  0.00  0.00    +0.000 C 
ATOM     34  O   UNL     1      -8.419   4.773 128.024  0.00  0.00    +0.000 OA
ATOM     35  N   UNL     1      -9.118   5.766 129.926  0.00  0.00    +0.000 N 
ATOM     36  H   UNL     1      -9.096   5.723 130.939  0.00  0.00    +0.000 HD
BRANCH  35  37
ATOM     37  C   UNL     1     -10.302   6.432 129.188  0.00  0.00    +0.000 C 
ATOM     38  C   UNL     1     -11.670   6.756 129.986  0.00  0.00    +0.000 C 
ATOM     39  C   UNL     1     -11.700   8.043 129.184  0.00  0.00    +0.000 C 
ATOM     40  F   UNL     1     -12.295   9.052 129.845  0.00  0.00    +0.000 F 
ATOM     41  F   UNL     1     -12.307   7.938 127.977  0.00  0.00    +0.000 F 
ATOM     42  C   UNL     1     -10.162   7.948 129.188  0.00  0.00    +0.000 C 
ENDBRANCH  35  37
ENDBRANCH  25  33
ENDBRANCH   1  25
TORSDOF 7
ENDMDL
MODEL 7
REMARK VINA RESULT:      -8.2      3.882      4.952
REMARK  Name = Ivosidenib
REMARK  7 active torsions:
REMARK  status: ('A' for Active; 'I' for Inactive)
REMARK    1  A    between atoms: C_2  and  N_3
REMARK    2  A    between atoms: C_2  and  C_28
REMARK    3  A    between atoms: C_2  and  C_37
REMARK    4  A    between atoms: N_3  and  C_21
REMARK    5  A    between atoms: C_4  and  C_6
REMARK    6  A    between atoms: C_17  and  C_19
REMARK    7  A    between atoms: N_30  and  C_31
REMARK                            x       y       z     vdW  Elec       q    Type
REMARK                         _______ _______ _______ _____ _____    ______ ____
ROOT
ATOM      1  N   UNL     1      -6.924   1.825 128.425  0.00  0.00    +0.000 N 
ATOM      2  C   UNL     1      -6.113   0.710 128.192  0.00  0.00    +0.000 C 
ATOM      3  O   UNL     1      -5.561   0.525 127.098  0.00  0.00    +0.000 OA
ENDROOT
BRANCH   2   4
ATOM      4  C   UNL     1      -5.785  -0.299 129.272  0.00  0.00    +0.000 C 
ATOM      5  C   UNL     1      -4.343  -0.069 129.681  0.00  0.00    +0.000 C 
ATOM      6  C   UNL     1      -4.005  -1.394 130.357  0.00  0.00    +0.000 C 
ATOM      7  C   UNL     1      -4.777  -2.395 129.598  0.00  0.00    +0.000 C 
ATOM      8  O   UNL     1      -4.549  -3.590 129.641  0.00  0.00    +0.000 OA
ATOM      9  N   UNL     1      -5.771  -1.698 128.946  0.00  0.00    +0.000 N 
ATOM     10  C   UNL     1      -6.930  -2.289 128.491  0.00  0.00    +0.000 A 
ATOM     11  N   UNL     1      -7.611  -3.185 129.224  0.00  0.00    +0.000 NA
ATOM     12  C   UNL     1      -8.639  -3.801 128.606  0.00  0.00    +0.000 A 
ATOM     13  C   UNL     1      -9.011  -3.541 127.296  0.00  0.00    +0.000 A 
ATOM     14  C   UNL     1      -8.309  -2.574 126.596  0.00  0.00    +0.000 A 
ATOM     15  C   UNL     1      -7.265  -1.931 127.208  0.00  0.00    +0.000 A 
BRANCH  14  16
ATOM     16  C   UNL     1      -8.593  -2.253 125.228  0.00  0.00    +0.000 C 
ATOM     17  N   UNL     1      -8.794  -2.022 124.125  0.00  0.00    +0.000 NA
ENDBRANCH  14  16
ENDBRANCH   2   4
BRANCH   1  18
ATOM     18  C   UNL     1      -7.243   2.571 127.206  0.00  0.00    +0.000 A 
ATOM     19  C   UNL     1      -6.517   3.673 126.776  0.00  0.00    +0.000 A 
ATOM     20  C   UNL     1      -6.886   4.347 125.608  0.00  0.00    +0.000 A 
ATOM     21  F   UNL     1      -6.267   5.485 125.265  0.00  0.00    +0.000 F 
ATOM     22  C   UNL     1      -7.907   3.850 124.825  0.00  0.00    +0.000 A 
ATOM     23  N   UNL     1      -8.608   2.753 125.161  0.00  0.00    +0.000 NA
ATOM     24  C   UNL     1      -8.268   2.158 126.334  0.00  0.00    +0.000 A 
ENDBRANCH   1  18
BRANCH   1  25
ATOM     25  C   UNL     1      -7.571   2.282 129.755  0.00  0.00    +0.000 C 
BRANCH  25  26
ATOM     26  C   UNL     1      -6.515   2.761 130.790  0.00  0.00    +0.000 A 
ATOM     27  C   UNL     1      -6.665   2.591 132.184  0.00  0.00    +0.000 A 
ATOM     28 CL   UNL     1      -8.128   2.164 132.990  0.00  0.00    +0.000 Cl
ATOM     29  C   UNL     1      -5.665   2.958 133.085  0.00  0.00    +0.000 A 
ATOM     30  C   UNL     1      -4.575   3.695 132.661  0.00  0.00    +0.000 A 
ATOM     31  C   UNL     1      -4.432   3.972 131.313  0.00  0.00    +0.000 A 
ATOM     32  C   UNL     1      -5.341   3.445 130.387  0.00  0.00    +0.000 A 
ENDBRANCH  25  26
BRANCH  25  33
ATOM     33  C   UNL     1      -8.806   3.307 129.648  0.00  0.00    +0.000 C 
ATOM     34  O   UNL     1      -9.989   2.975 129.728  0.00  0.00    +0.000 OA
ATOM     35  N   UNL     1      -8.510   4.676 129.632  0.00  0.00    +0.000 N 
ATOM     36  H   UNL     1      -7.526   4.919 129.656  0.00  0.00    +0.000 HD
BRANCH  35  37
ATOM     37  C   UNL     1      -9.586   5.689 130.084  0.00  0.00    +0.000 C 
ATOM     38  C   UNL     1      -9.190   7.239 130.312  0.00  0.00    +0.000 C 
ATOM     39  C   UNL     1     -10.532   7.558 129.683  0.00  0.00    +0.000 C 
ATOM     40  F   UNL     1     -10.531   8.731 129.024  0.00  0.00    +0.000 F 
ATOM     41  F   UNL     1     -11.569   7.587 130.556  0.00  0.00    +0.000 F 
ATOM     42  C   UNL     1     -10.342   6.252 128.887  0.00  0.00    +0.000 C 
ENDBRANCH  35  37
ENDBRANCH  25  33
ENDBRANCH   1  25
TORSDOF 7
ENDMDL
MODEL 8
REMARK VINA RESULT:      -8.2      3.096      5.707
REMARK  Name = Ivosidenib
REMARK  7 active torsions:
REMARK  status: ('A' for Active; 'I' for Inactive)
REMARK    1  A    between atoms: C_2  and  N_3
REMARK    2  A    between atoms: C_2  and  C_28
REMARK    3  A    between atoms: C_2  and  C_37
REMARK    4  A    between atoms: N_3  and  C_21
REMARK    5  A    between atoms: C_4  and  C_6
REMARK    6  A    between atoms: C_17  and  C_19
REMARK    7  A    between atoms: N_30  and  C_31
REMARK                            x       y       z     vdW  Elec       q    Type
REMARK                         _______ _______ _______ _____ _____    ______ ____
ROOT
ATOM      1  N   UNL     1      -6.953   2.499 129.453  0.00  0.00    +0.000 N 
ATOM      2  C   UNL     1      -5.659   2.897 129.100  0.00  0.00    +0.000 C 
ATOM      3  O   UNL     1      -4.841   2.100 128.619  0.00  0.00    +0.000 OA
ENDROOT
BRANCH   2   4
ATOM      4  C   UNL     1      -5.194   4.335 129.199  0.00  0.00    +0.000 C 
ATOM      5  C   UNL     1      -4.837   4.790 127.797  0.00  0.00    +0.000 C 
ATOM      6  C   UNL     1      -3.954   6.000 128.087  0.00  0.00    +0.000 C 
ATOM      7  C   UNL     1      -3.247   5.643 129.331  0.00  0.00    +0.000 C 
ATOM      8  O   UNL     1      -2.246   6.215 129.721  0.00  0.00    +0.000 OA
ATOM      9  N   UNL     1      -3.986   4.635 129.914  0.00  0.00    +0.000 N 
ATOM     10  C   UNL     1      -3.910   4.327 131.255  0.00  0.00    +0.000 A 
ATOM     11  N   UNL     1      -3.877   5.275 132.206  0.00  0.00    +0.000 NA
ATOM     12  C   UNL     1      -3.648   4.849 133.465  0.00  0.00    +0.000 A 
ATOM     13  C   UNL     1      -3.468   3.515 133.800  0.00  0.00    +0.000 A 
ATOM     14  C   UNL     1      -3.559   2.570 132.793  0.00  0.00    +0.000 A 
ATOM     15  C   UNL     1      -3.797   2.982 131.507  0.00  0.00    +0.000 A 
BRANCH  14  16
ATOM     16  C   UNL     1      -3.357   1.170 133.028  0.00  0.00    +0.000 C 
ATOM     17  N   UNL     1      -3.187   0.048 133.178  0.00  0.00    +0.000 NA
ENDBRANCH  14  16
ENDBRANCH   2   4
BRANCH   1  18
ATOM     18  C   UNL     1      -7.131   1.046 129.438  0.00  0.00    +0.000 A 
ATOM     19  C   UNL     1      -7.572   0.344 128.324  0.00  0.00    +0.000 A 
ATOM     20  C   UNL     1      -7.734  -1.043 128.384  0.00  0.00    +0.000 A 
ATOM     21  F   UNL     1      -8.282  -1.699 127.353  0.00  0.00    +0.000 F 
ATOM     22  C   UNL     1      -7.352  -1.727 129.519  0.00  0.00    +0.000 A 
ATOM     23  N   UNL     1      -6.866  -1.107 130.608  0.00  0.00    +0.000 NA
ATOM     24  C   UNL     1      -6.781   0.247 130.542  0.00  0.00    +0.000 A 
ENDBRANCH   1  18
BRANCH   1  25
ATOM     25  C   UNL     1      -8.133   3.379 129.930  0.00  0.00    +0.000 C 
BRANCH  25  26
ATOM     26  C   UNL     1      -8.005   3.773 131.429  0.00  0.00    +0.000 A 
ATOM     27  C   UNL     1      -8.551   3.004 132.480  0.00  0.00    +0.000 A 
ATOM     28 CL   UNL     1      -9.707   1.737 132.301  0.00  0.00    +0.000 Cl
ATOM     29  C   UNL     1      -8.353   3.338 133.821  0.00  0.00    +0.000 A 
ATOM     30  C   UNL     1      -7.790   4.552 134.164  0.00  0.00    +0.000 A 
ATOM     31  C   UNL     1      -7.326   5.388 133.164  0.00  0.00    +0.000 A 
ATOM     32  C   UNL     1      -7.359   4.969 131.828  0.00  0.00    +0.000 A 
ENDBRANCH  25  26
BRANCH  25  33
ATOM     33  C   UNL     1      -8.513   4.645 129.014  0.00  0.00    +0.000 C 
ATOM     34  O   UNL     1      -8.308   4.706 127.801  0.00  0.00    +0.000 OA
ATOM     35  N   UNL     1      -9.272   5.665 129.602  0.00  0.00    +0.000 N 
ATOM     36  H   UNL     1      -9.499   5.541 130.582  0.00  0.00    +0.000 HD
BRANCH  35  37
ATOM     37  C   UNL     1     -10.122   6.590 128.702  0.00  0.00    +0.000 C 
ATOM     38  C   UNL     1     -11.688   6.817 129.031  0.00  0.00    +0.000 C 
ATOM     39  C   UNL     1     -11.445   8.262 128.639  0.00  0.00    +0.000 C 
ATOM     40  F   UNL     1     -12.249   9.120 129.293  0.00  0.00    +0.000 F 
ATOM     41  F   UNL     1     -11.581   8.513 127.313  0.00  0.00    +0.000 F 
ATOM     42  C   UNL     1     -10.008   8.041 129.151  0.00  0.00    +0.000 C 
ENDBRANCH  35  37
ENDBRANCH  25  33
ENDBRANCH   1  25
TORSDOF 7
ENDMDL
MODEL 9
REMARK VINA RESULT:      -8.1      3.195      3.978
REMARK  Name = Ivosidenib
REMARK  7 active torsions:
REMARK  status: ('A' for Active; 'I' for Inactive)
REMARK    1  A    between atoms: C_2  and  N_3
REMARK    2  A    between atoms: C_2  and  C_28
REMARK    3  A    between atoms: C_2  and  C_37
REMARK    4  A    between atoms: N_3  and  C_21
REMARK    5  A    between atoms: C_4  and  C_6
REMARK    6  A    between atoms: C_17  and  C_19
REMARK    7  A    between atoms: N_30  and  C_31
REMARK                            x       y       z     vdW  Elec       q    Type
REMARK                         _______ _______ _______ _____ _____    ______ ____
ROOT
ATOM      1  N   UNL     1      -6.004   2.453 129.824  0.00  0.00    +0.000 N 
ATOM      2  C   UNL     1      -5.037   1.493 130.142  0.00  0.00    +0.000 C 
ATOM      3  O   UNL     1      -3.968   1.415 129.519  0.00  0.00    +0.000 OA
ENDROOT
BRANCH   2   4
ATOM      4  C   UNL     1      -5.186   0.544 131.312  0.00  0.00    +0.000 C 
ATOM      5  C   UNL     1      -3.964   0.719 132.193  0.00  0.00    +0.000 C 
ATOM      6  C   UNL     1      -3.987  -0.573 133.004  0.00  0.00    +0.000 C 
ATOM      7  C   UNL     1      -4.521  -1.579 132.066  0.00  0.00    +0.000 C 
ATOM      8  O   UNL     1      -4.416  -2.779 132.240  0.00  0.00    +0.000 OA
ATOM      9  N   UNL     1      -5.168  -0.872 131.075  0.00  0.00    +0.000 N 
ATOM     10  C   UNL     1      -6.137  -1.427 130.268  0.00  0.00    +0.000 A 
ATOM     11  N   UNL     1      -7.099  -2.230 130.752  0.00  0.00    +0.000 NA
ATOM     12  C   UNL     1      -7.891  -2.828 129.839  0.00  0.00    +0.000 A 
ATOM     13  C   UNL     1      -7.761  -2.637 128.472  0.00  0.00    +0.000 A 
ATOM     14  C   UNL     1      -6.786  -1.763 128.023  0.00  0.00    +0.000 A 
ATOM     15  C   UNL     1      -5.974  -1.140 128.934  0.00  0.00    +0.000 A 
BRANCH  14  16
ATOM     16  C   UNL     1      -6.549  -1.521 126.629  0.00  0.00    +0.000 C 
ATOM     17  N   UNL     1      -6.325  -1.313 125.526  0.00  0.00    +0.000 NA
ENDBRANCH  14  16
ENDBRANCH   2   4
BRANCH   1  18
ATOM     18  C   UNL     1      -5.734   3.145 128.562  0.00  0.00    +0.000 A 
ATOM     19  C   UNL     1      -6.009   2.593 127.317  0.00  0.00    +0.000 A 
ATOM     20  C   UNL     1      -5.713   3.305 126.151  0.00  0.00    +0.000 A 
ATOM     21  F   UNL     1      -5.857   2.721 124.954  0.00  0.00    +0.000 F 
ATOM     22  C   UNL     1      -5.246   4.600 126.240  0.00  0.00    +0.000 A 
ATOM     23  N   UNL     1      -5.015   5.206 127.418  0.00  0.00    +0.000 NA
ATOM     24  C   UNL     1      -5.252   4.466 128.533  0.00  0.00    +0.000 A 
ENDBRANCH   1  18
BRANCH   1  25
ATOM     25  C   UNL     1      -7.317   2.780 130.574  0.00  0.00    +0.000 C 
BRANCH  25  26
ATOM     26  C   UNL     1      -7.055   3.423 131.966  0.00  0.00    +0.000 A 
ATOM     27  C   UNL     1      -7.913   3.245 133.073  0.00  0.00    +0.000 A 
ATOM     28 CL   UNL     1      -9.515   2.610 133.010  0.00  0.00    +0.000 Cl
ATOM     29  C   UNL     1      -7.612   3.767 134.332  0.00  0.00    +0.000 A 
ATOM     30  C   UNL     1      -6.566   4.656 134.491  0.00  0.00    +0.000 A 
ATOM     31  C   UNL     1      -5.752   4.939 133.408  0.00  0.00    +0.000 A 
ATOM     32  C   UNL     1      -5.944   4.272 132.191  0.00  0.00    +0.000 A 
ENDBRANCH  25  26
BRANCH  25  33
ATOM     33  C   UNL     1      -8.444   3.581 129.753  0.00  0.00    +0.000 C 
ATOM     34  O   UNL     1      -9.288   3.044 129.033  0.00  0.00    +0.000 OA
ATOM     35  N   UNL     1      -8.575   4.953 130.004  0.00  0.00    +0.000 N 
ATOM     36  H   UNL     1      -7.920   5.348 130.670  0.00  0.00    +0.000 HD
BRANCH  35  37
ATOM     37  C   UNL     1      -9.922   5.650 129.710  0.00  0.00    +0.000 C 
ATOM     38  C   UNL     1     -11.215   5.327 130.625  0.00  0.00    +0.000 C 
ATOM     39  C   UNL     1     -11.525   6.808 130.512  0.00  0.00    +0.000 C 
ATOM     40  F   UNL     1     -12.172   7.287 131.590  0.00  0.00    +0.000 F 
ATOM     41  F   UNL     1     -12.253   7.147 129.421  0.00  0.00    +0.000 F 
ATOM     42  C   UNL     1     -10.000   7.003 130.405  0.00  0.00    +0.000 C 
ENDBRANCH  35  37
ENDBRANCH  25  33
ENDBRANCH   1  25
TORSDOF 7
ENDMDL
