MODEL 1
REMARK VINA RESULT:      -8.8      0.000      0.000
REMARK  Name = Ixabepilone
REMARK  11 active torsions:
REMARK  status: ('A' for Active; 'I' for Inactive)
REMARK    1  A    between atoms: C_4  and  C_28
REMARK    2  A    between atoms: C_9  and  O_10
REMARK    3  A    between atoms: C_11  and  C_12
REMARK    4  A    between atoms: C_11  and  C_13
REMARK    5  A    between atoms: C_16  and  C_17
REMARK    6  A    between atoms: C_18  and  O_19
REMARK    7  A    between atoms: C_20  and  C_21
REMARK    8  A    between atoms: C_25  and  C_26
REMARK    9  A    between atoms: C_28  and  C_29
REMARK   10  A    between atoms: C_30  and  C_31
REMARK   11  A    between atoms: C_34  and  C_35
REMARK                            x       y       z     vdW  Elec       q    Type
REMARK                         _______ _______ _______ _____ _____    ______ ____
ROOT
ATOM      1  C   UNL     1      -4.564   2.231 128.480  0.00  0.00    +0.000 C 
ATOM      2  C   UNL     1      -5.437   1.252 129.384  0.00  0.00    +0.000 C 
ATOM      3  C   UNL     1      -5.050  -0.317 129.289  0.00  0.00    +0.000 C 
ATOM      4  N   UNL     1      -6.071  -1.031 128.557  0.00  0.00    +0.000 N 
ATOM      5  C   UNL     1      -5.811  -2.201 127.861  0.00  0.00    +0.000 C 
ATOM      6  O   UNL     1      -4.841  -2.895 128.002  0.00  0.00    +0.000 OA
ATOM      7  C   UNL     1      -6.903  -2.558 126.870  0.00  0.00    +0.000 C 
ATOM      8  C   UNL     1      -6.935  -1.581 125.699  0.00  0.00    +0.000 C 
ATOM      9  C   UNL     1      -7.867  -1.840 124.418  0.00  0.00    +0.000 C 
ATOM     10  C   UNL     1      -9.107  -2.547 123.719  0.00  0.00    +0.000 C 
ATOM     11  C   UNL     1      -7.131  -3.209 124.292  0.00  0.00    +0.000 C 
ATOM     12  C   UNL     1      -8.342  -0.336 124.059  0.00  0.00    +0.000 C 
ATOM     13  O   UNL     1      -9.558  -0.055 124.047  0.00  0.00    +0.000 OA
ATOM     14  C   UNL     1      -7.417   0.862 124.146  0.00  0.00    +0.000 C 
ATOM     15  C   UNL     1      -7.751   1.644 125.443  0.00  0.00    +0.000 C 
ATOM     16  C   UNL     1      -7.485   1.878 122.985  0.00  0.00    +0.000 C 
ATOM     17  C   UNL     1      -6.399   2.963 123.211  0.00  0.00    +0.000 C 
ATOM     18  C   UNL     1      -6.102   3.675 121.901  0.00  0.00    +0.000 C 
ATOM     19  C   UNL     1      -6.789   4.049 124.262  0.00  0.00    +0.000 C 
ATOM     20  C   UNL     1      -5.605   4.403 125.136  0.00  0.00    +0.000 C 
ATOM     21  C   UNL     1      -5.872   4.356 126.684  0.00  0.00    +0.000 C 
ATOM     22  C   UNL     1      -4.693   3.667 127.406  0.00  0.00    +0.000 C 
ATOM     23  C   UNL     1      -3.438   4.487 127.027  0.00  0.00    +0.000 C 
ATOM     24  O   UNL     1      -4.900   3.585 128.804  0.00  0.00    +0.000 OA
ATOM     25  H   UNL     1      -7.027  -0.731 128.660  0.00  0.00    +0.000 HD
ENDROOT
BRANCH   3  26
ATOM     26  C   UNL     1      -4.792  -1.141 130.589  0.00  0.00    +0.000 C 
ATOM     27  C   UNL     1      -6.010  -1.273 131.470  0.00  0.00    +0.000 C 
ATOM     28  C   UNL     1      -3.572  -1.554 131.041  0.00  0.00    +0.000 C 
BRANCH  28  29
ATOM     29  C   UNL     1      -3.294  -2.211 132.283  0.00  0.00    +0.000 A 
ATOM     30  C   UNL     1      -2.980  -1.583 133.471  0.00  0.00    +0.000 A 
ATOM     31  S   UNL     1      -2.844  -2.763 134.717  0.00  0.00    +0.000 S 
ATOM     32  C   UNL     1      -3.172  -3.997 133.567  0.00  0.00    +0.000 A 
ATOM     33  C   UNL     1      -3.272  -5.425 133.971  0.00  0.00    +0.000 C 
ATOM     34  N   UNL     1      -3.334  -3.587 132.329  0.00  0.00    +0.000 NA
ENDBRANCH  28  29
ENDBRANCH   3  26
BRANCH   8  35
ATOM     35  O   UNL     1      -7.175  -0.414 126.405  0.00  0.00    +0.000 OA
ATOM     36  H   UNL     1      -7.843   0.073 125.901  0.00  0.00    +0.000 HD
ENDBRANCH   8  35
BRANCH  16  37
ATOM     37  O   UNL     1      -8.747   2.525 122.846  0.00  0.00    +0.000 OA
ATOM     38  H   UNL     1      -9.428   2.015 123.314  0.00  0.00    +0.000 HD
ENDBRANCH  16  37
TORSDOF 4
ENDMDL
MODEL 2
REMARK VINA RESULT:      -8.7      3.365      6.603
REMARK  Name = Ixabepilone
REMARK  11 active torsions:
REMARK  status: ('A' for Active; 'I' for Inactive)
REMARK    1  A    between atoms: C_4  and  C_28
REMARK    2  A    between atoms: C_9  and  O_10
REMARK    3  A    between atoms: C_11  and  C_12
REMARK    4  A    between atoms: C_11  and  C_13
REMARK    5  A    between atoms: C_16  and  C_17
REMARK    6  A    between atoms: C_18  and  O_19
REMARK    7  A    between atoms: C_20  and  C_21
REMARK    8  A    between atoms: C_25  and  C_26
REMARK    9  A    between atoms: C_28  and  C_29
REMARK   10  A    between atoms: C_30  and  C_31
REMARK   11  A    between atoms: C_34  and  C_35
REMARK                            x       y       z     vdW  Elec       q    Type
REMARK                         _______ _______ _______ _____ _____    ______ ____
ROOT
ATOM      1  C   UNL     1      -7.537   3.457 125.514  0.00  0.00    +0.000 C 
ATOM      2  C   UNL     1      -7.655   3.664 127.089  0.00  0.00    +0.000 C 
ATOM      3  C   UNL     1      -6.302   3.384 127.934  0.00  0.00    +0.000 C 
ATOM      4  N   UNL     1      -6.432   2.151 128.675  0.00  0.00    +0.000 N 
ATOM      5  C   UNL     1      -5.339   1.381 129.042  0.00  0.00    +0.000 C 
ATOM      6  O   UNL     1      -4.197   1.753 129.053  0.00  0.00    +0.000 OA
ATOM      7  C   UNL     1      -5.717  -0.029 129.456  0.00  0.00    +0.000 C 
ATOM      8  C   UNL     1      -6.204  -0.849 128.265  0.00  0.00    +0.000 C 
ATOM      9  C   UNL     1      -6.485  -2.424 128.393  0.00  0.00    +0.000 C 
ATOM     10  C   UNL     1      -6.782  -3.719 129.265  0.00  0.00    +0.000 C 
ATOM     11  C   UNL     1      -5.011  -2.539 128.889  0.00  0.00    +0.000 C 
ATOM     12  C   UNL     1      -7.781  -2.596 127.441  0.00  0.00    +0.000 C 
ATOM     13  O   UNL     1      -8.843  -3.051 127.913  0.00  0.00    +0.000 OA
ATOM     14  C   UNL     1      -7.939  -1.859 126.125  0.00  0.00    +0.000 C 
ATOM     15  C   UNL     1      -8.924  -0.681 126.340  0.00  0.00    +0.000 C 
ATOM     16  C   UNL     1      -8.479  -2.677 124.931  0.00  0.00    +0.000 C 
ATOM     17  C   UNL     1      -8.469  -1.776 123.668  0.00  0.00    +0.000 C 
ATOM     18  C   UNL     1      -8.516  -2.641 122.419  0.00  0.00    +0.000 C 
ATOM     19  C   UNL     1      -9.658  -0.767 123.591  0.00  0.00    +0.000 C 
ATOM     20  C   UNL     1      -9.191   0.577 123.075  0.00  0.00    +0.000 C 
ATOM     21  C   UNL     1      -9.611   1.815 123.947  0.00  0.00    +0.000 C 
ATOM     22  C   UNL     1      -8.419   2.787 124.099  0.00  0.00    +0.000 C 
ATOM     23  C   UNL     1      -8.007   3.166 122.657  0.00  0.00    +0.000 C 
ATOM     24  O   UNL     1      -8.746   3.910 124.895  0.00  0.00    +0.000 OA
ATOM     25  H   UNL     1      -7.339   1.910 129.041  0.00  0.00    +0.000 HD
ENDROOT
BRANCH   3  26
ATOM     26  C   UNL     1      -5.779   4.447 128.949  0.00  0.00    +0.000 C 
ATOM     27  C   UNL     1      -6.789   4.821 130.006  0.00  0.00    +0.000 C 
ATOM     28  C   UNL     1      -4.616   5.154 128.834  0.00  0.00    +0.000 C 
BRANCH  28  29
ATOM     29  C   UNL     1      -4.166   6.212 129.688  0.00  0.00    +0.000 A 
ATOM     30  C   UNL     1      -3.517   6.049 130.895  0.00  0.00    +0.000 A 
ATOM     31  S   UNL     1      -3.065   7.591 131.509  0.00  0.00    +0.000 S 
ATOM     32  C   UNL     1      -3.801   8.335 130.146  0.00  0.00    +0.000 A 
ATOM     33  C   UNL     1      -3.757   9.809 129.952  0.00  0.00    +0.000 C 
ATOM     34  N   UNL     1      -4.385   7.515 129.301  0.00  0.00    +0.000 NA
ENDBRANCH  28  29
ENDBRANCH   3  26
BRANCH   8  35
ATOM     35  O   UNL     1      -7.282  -0.063 127.894  0.00  0.00    +0.000 OA
ATOM     36  H   UNL     1      -7.244   0.728 128.451  0.00  0.00    +0.000 HD
ENDBRANCH   8  35
BRANCH  16  37
ATOM     37  O   UNL     1      -9.800  -3.179 125.115  0.00  0.00    +0.000 OA
ATOM     38  H   UNL     1      -9.765  -4.016 125.607  0.00  0.00    +0.000 HD
ENDBRANCH  16  37
TORSDOF 4
ENDMDL
MODEL 3
REMARK VINA RESULT:      -8.6      1.659      1.763
REMARK  Name = Ixabepilone
REMARK  11 active torsions:
REMARK  status: ('A' for Active; 'I' for Inactive)
REMARK    1  A    between atoms: C_4  and  C_28
REMARK    2  A    between atoms: C_9  and  O_10
REMARK    3  A    between atoms: C_11  and  C_12
REMARK    4  A    between atoms: C_11  and  C_13
REMARK    5  A    between atoms: C_16  and  C_17
REMARK    6  A    between atoms: C_18  and  O_19
REMARK    7  A    between atoms: C_20  and  C_21
REMARK    8  A    between atoms: C_25  and  C_26
REMARK    9  A    between atoms: C_28  and  C_29
REMARK   10  A    between atoms: C_30  and  C_31
REMARK   11  A    between atoms: C_34  and  C_35
REMARK                            x       y       z     vdW  Elec       q    Type
REMARK                         _______ _______ _______ _____ _____    ______ ____
ROOT
ATOM      1  C   UNL     1      -6.291   2.176 129.036  0.00  0.00    +0.000 C 
ATOM      2  C   UNL     1      -7.329   1.192 129.736  0.00  0.00    +0.000 C 
ATOM      3  C   UNL     1      -6.882  -0.362 129.805  0.00  0.00    +0.000 C 
ATOM      4  N   UNL     1      -7.666  -1.140 128.873  0.00  0.00    +0.000 N 
ATOM      5  C   UNL     1      -7.204  -2.321 128.313  0.00  0.00    +0.000 C 
ATOM      6  O   UNL     1      -6.278  -2.970 128.718  0.00  0.00    +0.000 OA
ATOM      7  C   UNL     1      -8.003  -2.754 127.098  0.00  0.00    +0.000 C 
ATOM      8  C   UNL     1      -7.773  -1.818 125.916  0.00  0.00    +0.000 C 
ATOM      9  C   UNL     1      -8.348  -2.157 124.456  0.00  0.00    +0.000 C 
ATOM     10  C   UNL     1      -9.351  -2.935 123.501  0.00  0.00    +0.000 C 
ATOM     11  C   UNL     1      -7.561  -3.497 124.573  0.00  0.00    +0.000 C 
ATOM     12  C   UNL     1      -8.766  -0.685 123.927  0.00  0.00    +0.000 C 
ATOM     13  O   UNL     1      -9.948  -0.455 123.604  0.00  0.00    +0.000 OA
ATOM     14  C   UNL     1      -7.930   0.552 124.191  0.00  0.00    +0.000 C 
ATOM     15  C   UNL     1      -8.600   1.361 125.331  0.00  0.00    +0.000 C 
ATOM     16  C   UNL     1      -7.738   1.526 123.008  0.00  0.00    +0.000 C 
ATOM     17  C   UNL     1      -6.778   2.661 123.452  0.00  0.00    +0.000 C 
ATOM     18  C   UNL     1      -6.186   3.341 122.227  0.00  0.00    +0.000 C 
ATOM     19  C   UNL     1      -7.451   3.764 124.327  0.00  0.00    +0.000 C 
ATOM     20  C   UNL     1      -6.533   4.194 125.451  0.00  0.00    +0.000 C 
ATOM     21  C   UNL     1      -7.176   4.186 126.886  0.00  0.00    +0.000 C 
ATOM     22  C   UNL     1      -6.193   3.570 127.905  0.00  0.00    +0.000 C 
ATOM     23  C   UNL     1      -4.909   4.428 127.815  0.00  0.00    +0.000 C 
ATOM     24  O   UNL     1      -6.739   3.525 129.210  0.00  0.00    +0.000 OA
ATOM     25  H   UNL     1      -8.626  -0.877 128.724  0.00  0.00    +0.000 HD
ENDROOT
BRANCH   3  26
ATOM     26  C   UNL     1      -6.930  -1.132 131.161  0.00  0.00    +0.000 C 
ATOM     27  C   UNL     1      -8.215  -0.925 131.926  0.00  0.00    +0.000 C 
ATOM     28  C   UNL     1      -5.881  -1.778 131.749  0.00  0.00    +0.000 C 
BRANCH  28  29
ATOM     29  C   UNL     1      -5.866  -2.394 133.041  0.00  0.00    +0.000 A 
ATOM     30  C   UNL     1      -5.519  -1.773 134.224  0.00  0.00    +0.000 A 
ATOM     31  S   UNL     1      -5.761  -2.866 135.530  0.00  0.00    +0.000 S 
ATOM     32  C   UNL     1      -6.264  -4.071 134.413  0.00  0.00    +0.000 A 
ATOM     33  C   UNL     1      -6.721  -5.410 134.873  0.00  0.00    +0.000 C 
ATOM     34  N   UNL     1      -6.223  -3.720 133.148  0.00  0.00    +0.000 NA
ENDBRANCH  28  29
ENDBRANCH   3  26
BRANCH   8  35
ATOM     35  O   UNL     1      -8.217  -0.639 126.491  0.00  0.00    +0.000 OA
ATOM     36  H   UNL     1      -7.507   0.007 126.364  0.00  0.00    +0.000 HD
ENDBRANCH   8  35
BRANCH  16  37
ATOM     37  O   UNL     1      -8.945   2.116 122.535  0.00  0.00    +0.000 OA
ATOM     38  H   UNL     1      -9.135   2.922 123.042  0.00  0.00    +0.000 HD
ENDBRANCH  16  37
TORSDOF 4
ENDMDL
MODEL 4
REMARK VINA RESULT:      -8.5      6.331      9.320
REMARK  Name = Ixabepilone
REMARK  11 active torsions:
REMARK  status: ('A' for Active; 'I' for Inactive)
REMARK    1  A    between atoms: C_4  and  C_28
REMARK    2  A    between atoms: C_9  and  O_10
REMARK    3  A    between atoms: C_11  and  C_12
REMARK    4  A    between atoms: C_11  and  C_13
REMARK    5  A    between atoms: C_16  and  C_17
REMARK    6  A    between atoms: C_18  and  O_19
REMARK    7  A    between atoms: C_20  and  C_21
REMARK    8  A    between atoms: C_25  and  C_26
REMARK    9  A    between atoms: C_28  and  C_29
REMARK   10  A    between atoms: C_30  and  C_31
REMARK   11  A    between atoms: C_34  and  C_35
REMARK                            x       y       z     vdW  Elec       q    Type
REMARK                         _______ _______ _______ _____ _____    ______ ____
ROOT
ATOM      1  C   UNL     1      -2.575   5.453 129.083  0.00  0.00    +0.000 C 
ATOM      2  C   UNL     1      -2.929   6.750 129.937  0.00  0.00    +0.000 C 
ATOM      3  C   UNL     1      -2.728   6.609 131.538  0.00  0.00    +0.000 C 
ATOM      4  N   UNL     1      -4.015   6.543 132.190  0.00  0.00    +0.000 N 
ATOM      5  C   UNL     1      -4.203   5.911 133.410  0.00  0.00    +0.000 C 
ATOM      6  O   UNL     1      -3.331   5.611 134.180  0.00  0.00    +0.000 OA
ATOM      7  C   UNL     1      -5.662   5.626 133.714  0.00  0.00    +0.000 C 
ATOM      8  C   UNL     1      -6.222   4.546 132.792  0.00  0.00    +0.000 C 
ATOM      9  C   UNL     1      -7.682   3.923 133.027  0.00  0.00    +0.000 C 
ATOM     10  C   UNL     1      -9.142   3.992 133.651  0.00  0.00    +0.000 C 
ATOM     11  C   UNL     1      -7.184   3.565 134.460  0.00  0.00    +0.000 C 
ATOM     12  C   UNL     1      -8.192   3.720 131.504  0.00  0.00    +0.000 C 
ATOM     13  O   UNL     1      -9.232   4.288 131.116  0.00  0.00    +0.000 OA
ATOM     14  C   UNL     1      -7.284   3.236 130.391  0.00  0.00    +0.000 C 
ATOM     15  C   UNL     1      -6.881   4.456 129.523  0.00  0.00    +0.000 C 
ATOM     16  C   UNL     1      -7.868   2.179 129.428  0.00  0.00    +0.000 C 
ATOM     17  C   UNL     1      -6.757   1.746 128.434  0.00  0.00    +0.000 C 
ATOM     18  C   UNL     1      -7.118   0.406 127.814  0.00  0.00    +0.000 C 
ATOM     19  C   UNL     1      -6.510   2.755 127.270  0.00  0.00    +0.000 C 
ATOM     20  C   UNL     1      -5.030   2.894 126.983  0.00  0.00    +0.000 C 
ATOM     21  C   UNL     1      -4.488   4.369 126.935  0.00  0.00    +0.000 C 
ATOM     22  C   UNL     1      -3.145   4.467 127.693  0.00  0.00    +0.000 C 
ATOM     23  C   UNL     1      -2.206   3.448 127.006  0.00  0.00    +0.000 C 
ATOM     24  O   UNL     1      -2.630   5.785 127.691  0.00  0.00    +0.000 OA
ATOM     25  H   UNL     1      -4.773   7.080 131.802  0.00  0.00    +0.000 HD
ENDROOT
BRANCH   3  26
ATOM     26  C   UNL     1      -1.900   7.675 132.320  0.00  0.00    +0.000 C 
ATOM     27  C   UNL     1      -0.545   7.180 132.762  0.00  0.00    +0.000 C 
ATOM     28  C   UNL     1      -2.368   8.877 132.766  0.00  0.00    +0.000 C 
BRANCH  28  29
ATOM     29  C   UNL     1      -1.665   9.824 133.580  0.00  0.00    +0.000 A 
ATOM     30  C   UNL     1      -1.725   9.899 134.957  0.00  0.00    +0.000 A 
ATOM     31  S   UNL     1      -0.631  11.108 135.506  0.00  0.00    +0.000 S 
ATOM     32  C   UNL     1      -0.209  11.449 133.875  0.00  0.00    +0.000 A 
ATOM     33  C   UNL     1       0.828  12.461 133.540  0.00  0.00    +0.000 C 
ATOM     34  N   UNL     1      -0.854  10.753 132.967  0.00  0.00    +0.000 NA
ENDBRANCH  28  29
ENDBRANCH   3  26
BRANCH   8  35
ATOM     35  O   UNL     1      -6.013   5.176 131.577  0.00  0.00    +0.000 OA
ATOM     36  H   UNL     1      -5.946   6.122 131.772  0.00  0.00    +0.000 HD
ENDBRANCH   8  35
BRANCH  16  37
ATOM     37  O   UNL     1      -8.993   2.630 128.677  0.00  0.00    +0.000 OA
ATOM     38  H   UNL     1      -8.754   2.693 127.738  0.00  0.00    +0.000 HD
ENDBRANCH  16  37
TORSDOF 4
ENDMDL
MODEL 5
REMARK VINA RESULT:      -8.4      4.907      9.308
REMARK  Name = Ixabepilone
REMARK  11 active torsions:
REMARK  status: ('A' for Active; 'I' for Inactive)
REMARK    1  A    between atoms: C_4  and  C_28
REMARK    2  A    between atoms: C_9  and  O_10
REMARK    3  A    between atoms: C_11  and  C_12
REMARK    4  A    between atoms: C_11  and  C_13
REMARK    5  A    between atoms: C_16  and  C_17
REMARK    6  A    between atoms: C_18  and  O_19
REMARK    7  A    between atoms: C_20  and  C_21
REMARK    8  A    between atoms: C_25  and  C_26
REMARK    9  A    between atoms: C_28  and  C_29
REMARK   10  A    between atoms: C_30  and  C_31
REMARK   11  A    between atoms: C_34  and  C_35
REMARK                            x       y       z     vdW  Elec       q    Type
REMARK                         _______ _______ _______ _____ _____    ______ ____
ROOT
ATOM      1  C   UNL     1      -7.454   1.305 127.678  0.00  0.00    +0.000 C 
ATOM      2  C   UNL     1      -8.677   1.743 128.600  0.00  0.00    +0.000 C 
ATOM      3  C   UNL     1      -8.358   2.910 129.676  0.00  0.00    +0.000 C 
ATOM      4  N   UNL     1      -8.313   2.351 131.007  0.00  0.00    +0.000 N 
ATOM      5  C   UNL     1      -7.573   2.921 132.032  0.00  0.00    +0.000 C 
ATOM      6  O   UNL     1      -7.135   4.039 132.037  0.00  0.00    +0.000 OA
ATOM      7  C   UNL     1      -7.358   1.981 133.203  0.00  0.00    +0.000 C 
ATOM      8  C   UNL     1      -6.421   0.835 132.835  0.00  0.00    +0.000 C 
ATOM      9  C   UNL     1      -5.879  -0.191 133.943  0.00  0.00    +0.000 C 
ATOM     10  C   UNL     1      -5.983  -0.883 135.371  0.00  0.00    +0.000 C 
ATOM     11  C   UNL     1      -5.341   1.066 134.692  0.00  0.00    +0.000 C 
ATOM     12  C   UNL     1      -5.870  -1.582 133.116  0.00  0.00    +0.000 C 
ATOM     13  O   UNL     1      -6.546  -2.549 133.520  0.00  0.00    +0.000 OA
ATOM     14  C   UNL     1      -5.443  -1.672 131.664  0.00  0.00    +0.000 C 
ATOM     15  C   UNL     1      -6.716  -1.781 130.785  0.00  0.00    +0.000 C 
ATOM     16  C   UNL     1      -4.534  -2.860 131.280  0.00  0.00    +0.000 C 
ATOM     17  C   UNL     1      -4.130  -2.714 129.789  0.00  0.00    +0.000 C 
ATOM     18  C   UNL     1      -2.890  -3.547 129.509  0.00  0.00    +0.000 C 
ATOM     19  C   UNL     1      -5.236  -3.157 128.780  0.00  0.00    +0.000 C 
ATOM     20  C   UNL     1      -5.301  -2.208 127.602  0.00  0.00    +0.000 C 
ATOM     21  C   UNL     1      -6.732  -1.654 127.262  0.00  0.00    +0.000 C 
ATOM     22  C   UNL     1      -6.659  -0.140 126.964  0.00  0.00    +0.000 C 
ATOM     23  C   UNL     1      -5.654   0.004 125.796  0.00  0.00    +0.000 C 
ATOM     24  O   UNL     1      -7.932   0.406 126.671  0.00  0.00    +0.000 OA
ATOM     25  H   UNL     1      -8.938   1.593 131.225  0.00  0.00    +0.000 HD
ENDROOT
BRANCH   3  26
ATOM     26  C   UNL     1      -9.277   4.167 129.764  0.00  0.00    +0.000 C 
ATOM     27  C   UNL     1      -8.557   5.462 129.479  0.00  0.00    +0.000 C 
ATOM     28  C   UNL     1     -10.557   4.186 130.239  0.00  0.00    +0.000 C 
BRANCH  28  29
ATOM     29  C   UNL     1     -11.384   5.340 130.435  0.00  0.00    +0.000 A 
ATOM     30  C   UNL     1     -11.570   6.000 131.633  0.00  0.00    +0.000 A 
ATOM     31  S   UNL     1     -12.547   7.391 131.367  0.00  0.00    +0.000 S 
ATOM     32  C   UNL     1     -12.667   6.973 129.704  0.00  0.00    +0.000 A 
ATOM     33  C   UNL     1     -13.400   7.838 128.741  0.00  0.00    +0.000 C 
ATOM     34  N   UNL     1     -12.065   5.859 129.357  0.00  0.00    +0.000 NA
ENDBRANCH  28  29
ENDBRANCH   3  26
BRANCH   8  35
ATOM     35  O   UNL     1      -7.158   0.284 131.799  0.00  0.00    +0.000 OA
ATOM     36  H   UNL     1      -8.058   0.628 131.896  0.00  0.00    +0.000 HD
ENDBRANCH   8  35
BRANCH  16  37
ATOM     37  O   UNL     1      -5.137  -4.139 131.460  0.00  0.00    +0.000 OA
ATOM     38  H   UNL     1      -4.859  -4.734 130.745  0.00  0.00    +0.000 HD
ENDBRANCH  16  37
TORSDOF 4
ENDMDL
MODEL 6
REMARK VINA RESULT:      -8.1      2.122      4.574
REMARK  Name = Ixabepilone
REMARK  11 active torsions:
REMARK  status: ('A' for Active; 'I' for Inactive)
REMARK    1  A    between atoms: C_4  and  C_28
REMARK    2  A    between atoms: C_9  and  O_10
REMARK    3  A    between atoms: C_11  and  C_12
REMARK    4  A    between atoms: C_11  and  C_13
REMARK    5  A    between atoms: C_16  and  C_17
REMARK    6  A    between atoms: C_18  and  O_19
REMARK    7  A    between atoms: C_20  and  C_21
REMARK    8  A    between atoms: C_25  and  C_26
REMARK    9  A    between atoms: C_28  and  C_29
REMARK   10  A    between atoms: C_30  and  C_31
REMARK   11  A    between atoms: C_34  and  C_35
REMARK                            x       y       z     vdW  Elec       q    Type
REMARK                         _______ _______ _______ _____ _____    ______ ____
ROOT
ATOM      1  C   UNL     1      -6.189  -2.555 126.648  0.00  0.00    +0.000 C 
ATOM      2  C   UNL     1      -5.289  -2.170 127.904  0.00  0.00    +0.000 C 
ATOM      3  C   UNL     1      -6.073  -2.049 129.316  0.00  0.00    +0.000 C 
ATOM      4  N   UNL     1      -6.176  -0.661 129.703  0.00  0.00    +0.000 N 
ATOM      5  C   UNL     1      -7.193  -0.187 130.518  0.00  0.00    +0.000 C 
ATOM      6  O   UNL     1      -7.907  -0.864 131.206  0.00  0.00    +0.000 OA
ATOM      7  C   UNL     1      -7.331   1.324 130.477  0.00  0.00    +0.000 C 
ATOM      8  C   UNL     1      -7.858   1.799 129.127  0.00  0.00    +0.000 C 
ATOM      9  C   UNL     1      -8.275   3.330 128.884  0.00  0.00    +0.000 C 
ATOM     10  C   UNL     1      -8.217   4.869 129.279  0.00  0.00    +0.000 C 
ATOM     11  C   UNL     1      -9.239   3.149 130.096  0.00  0.00    +0.000 C 
ATOM     12  C   UNL     1      -7.782   3.558 127.360  0.00  0.00    +0.000 C 
ATOM     13  O   UNL     1      -6.946   4.447 127.104  0.00  0.00    +0.000 OA
ATOM     14  C   UNL     1      -7.937   2.506 126.280  0.00  0.00    +0.000 C 
ATOM     15  C   UNL     1      -6.559   1.831 126.054  0.00  0.00    +0.000 C 
ATOM     16  C   UNL     1      -8.423   2.995 124.898  0.00  0.00    +0.000 C 
ATOM     17  C   UNL     1      -8.611   1.763 123.974  0.00  0.00    +0.000 C 
ATOM     18  C   UNL     1      -9.525   2.125 122.814  0.00  0.00    +0.000 C 
ATOM     19  C   UNL     1      -7.283   1.203 123.374  0.00  0.00    +0.000 C 
ATOM     20  C   UNL     1      -7.289  -0.310 123.371  0.00  0.00    +0.000 C 
ATOM     21  C   UNL     1      -6.022  -0.989 124.008  0.00  0.00    +0.000 C 
ATOM     22  C   UNL     1      -6.448  -2.167 124.913  0.00  0.00    +0.000 C 
ATOM     23  C   UNL     1      -7.258  -3.118 124.001  0.00  0.00    +0.000 C 
ATOM     24  O   UNL     1      -5.337  -2.796 125.523  0.00  0.00    +0.000 OA
ATOM     25  H   UNL     1      -5.413  -0.045 129.472  0.00  0.00    +0.000 HD
ENDROOT
BRANCH   3  26
ATOM     26  C   UNL     1      -5.547  -2.812 130.571  0.00  0.00    +0.000 C 
ATOM     27  C   UNL     1      -6.411  -3.983 130.971  0.00  0.00    +0.000 C 
ATOM     28  C   UNL     1      -4.534  -2.399 131.388  0.00  0.00    +0.000 C 
BRANCH  28  29
ATOM     29  C   UNL     1      -4.105  -3.019 132.606  0.00  0.00    +0.000 A 
ATOM     30  C   UNL     1      -4.400  -2.576 133.880  0.00  0.00    +0.000 A 
ATOM     31  S   UNL     1      -3.776  -3.696 135.027  0.00  0.00    +0.000 S 
ATOM     32  C   UNL     1      -3.140  -4.641 133.741  0.00  0.00    +0.000 A 
ATOM     33  C   UNL     1      -2.434  -5.924 134.000  0.00  0.00    +0.000 C 
ATOM     34  N   UNL     1      -3.331  -4.155 132.536  0.00  0.00    +0.000 NA
ENDBRANCH  28  29
ENDBRANCH   3  26
BRANCH   8  35
ATOM     35  O   UNL     1      -6.848   1.304 128.319  0.00  0.00    +0.000 OA
ATOM     36  H   UNL     1      -7.241   1.178 127.443  0.00  0.00    +0.000 HD
ENDBRANCH   8  35
BRANCH  16  37
ATOM     37  O   UNL     1      -7.538   3.909 124.255  0.00  0.00    +0.000 OA
ATOM     38  H   UNL     1      -7.773   4.818 124.501  0.00  0.00    +0.000 HD
ENDBRANCH  16  37
TORSDOF 4
ENDMDL
MODEL 7
REMARK VINA RESULT:      -8.0      3.687      5.320
REMARK  Name = Ixabepilone
REMARK  11 active torsions:
REMARK  status: ('A' for Active; 'I' for Inactive)
REMARK    1  A    between atoms: C_4  and  C_28
REMARK    2  A    between atoms: C_9  and  O_10
REMARK    3  A    between atoms: C_11  and  C_12
REMARK    4  A    between atoms: C_11  and  C_13
REMARK    5  A    between atoms: C_16  and  C_17
REMARK    6  A    between atoms: C_18  and  O_19
REMARK    7  A    between atoms: C_20  and  C_21
REMARK    8  A    between atoms: C_25  and  C_26
REMARK    9  A    between atoms: C_28  and  C_29
REMARK   10  A    between atoms: C_30  and  C_31
REMARK   11  A    between atoms: C_34  and  C_35
REMARK                            x       y       z     vdW  Elec       q    Type
REMARK                         _______ _______ _______ _____ _____    ______ ____
ROOT
ATOM      1  C   UNL     1      -6.862   3.314 126.981  0.00  0.00    +0.000 C 
ATOM      2  C   UNL     1      -7.845   3.255 128.233  0.00  0.00    +0.000 C 
ATOM      3  C   UNL     1      -7.244   2.550 129.561  0.00  0.00    +0.000 C 
ATOM      4  N   UNL     1      -7.864   1.260 129.755  0.00  0.00    +0.000 N 
ATOM      5  C   UNL     1      -7.237   0.224 130.431  0.00  0.00    +0.000 C 
ATOM      6  O   UNL     1      -6.284   0.339 131.153  0.00  0.00    +0.000 OA
ATOM      7  C   UNL     1      -7.884  -1.125 130.183  0.00  0.00    +0.000 C 
ATOM      8  C   UNL     1      -7.659  -1.598 128.750  0.00  0.00    +0.000 C 
ATOM      9  C   UNL     1      -8.075  -3.075 128.282  0.00  0.00    +0.000 C 
ATOM     10  C   UNL     1      -8.910  -4.414 128.474  0.00  0.00    +0.000 C 
ATOM     11  C   UNL     1      -7.164  -3.585 129.440  0.00  0.00    +0.000 C 
ATOM     12  C   UNL     1      -8.600  -2.798 126.777  0.00  0.00    +0.000 C 
ATOM     13  O   UNL     1      -9.770  -3.096 126.463  0.00  0.00    +0.000 OA
ATOM     14  C   UNL     1      -7.922  -1.821 125.836  0.00  0.00    +0.000 C 
ATOM     15  C   UNL     1      -8.765  -0.520 125.793  0.00  0.00    +0.000 C 
ATOM     16  C   UNL     1      -7.738  -2.279 124.373  0.00  0.00    +0.000 C 
ATOM     17  C   UNL     1      -6.941  -1.189 123.608  0.00  0.00    +0.000 C 
ATOM     18  C   UNL     1      -6.327  -1.788 122.353  0.00  0.00    +0.000 C 
ATOM     19  C   UNL     1      -7.796   0.044 123.176  0.00  0.00    +0.000 C 
ATOM     20  C   UNL     1      -7.022   1.330 123.372  0.00  0.00    +0.000 C 
ATOM     21  C   UNL     1      -7.775   2.452 124.175  0.00  0.00    +0.000 C 
ATOM     22  C   UNL     1      -6.819   3.108 125.197  0.00  0.00    +0.000 C 
ATOM     23  C   UNL     1      -5.629   3.644 124.365  0.00  0.00    +0.000 C 
ATOM     24  O   UNL     1      -7.462   4.114 125.957  0.00  0.00    +0.000 OA
ATOM     25  H   UNL     1      -8.831   1.153 129.497  0.00  0.00    +0.000 HD
ENDROOT
BRANCH   3  26
ATOM     26  C   UNL     1      -7.322   3.280 130.938  0.00  0.00    +0.000 C 
ATOM     27  C   UNL     1      -8.543   4.154 131.089  0.00  0.00    +0.000 C 
ATOM     28  C   UNL     1      -6.327   3.328 131.872  0.00  0.00    +0.000 C 
BRANCH  28  29
ATOM     29  C   UNL     1      -6.328   4.080 133.091  0.00  0.00    +0.000 A 
ATOM     30  C   UNL     1      -7.196   3.896 134.147  0.00  0.00    +0.000 A 
ATOM     31  S   UNL     1      -6.749   4.943 135.437  0.00  0.00    +0.000 S 
ATOM     32  C   UNL     1      -5.476   5.571 134.470  0.00  0.00    +0.000 A 
ATOM     33  C   UNL     1      -4.534   6.593 134.999  0.00  0.00    +0.000 C 
ATOM     34  N   UNL     1      -5.396   5.080 133.254  0.00  0.00    +0.000 NA
ENDBRANCH  28  29
ENDBRANCH   3  26
BRANCH   8  35
ATOM     35  O   UNL     1      -8.269  -0.549 128.083  0.00  0.00    +0.000 OA
ATOM     36  H   UNL     1      -7.667   0.205 128.158  0.00  0.00    +0.000 HD
ENDBRANCH   8  35
BRANCH  16  37
ATOM     37  O   UNL     1      -8.959  -2.517 123.676  0.00  0.00    +0.000 OA
ATOM     38  H   UNL     1      -9.437  -1.680 123.562  0.00  0.00    +0.000 HD
ENDBRANCH  16  37
TORSDOF 4
ENDMDL
MODEL 8
REMARK VINA RESULT:      -7.9      6.683     10.092
REMARK  Name = Ixabepilone
REMARK  11 active torsions:
REMARK  status: ('A' for Active; 'I' for Inactive)
REMARK    1  A    between atoms: C_4  and  C_28
REMARK    2  A    between atoms: C_9  and  O_10
REMARK    3  A    between atoms: C_11  and  C_12
REMARK    4  A    between atoms: C_11  and  C_13
REMARK    5  A    between atoms: C_16  and  C_17
REMARK    6  A    between atoms: C_18  and  O_19
REMARK    7  A    between atoms: C_20  and  C_21
REMARK    8  A    between atoms: C_25  and  C_26
REMARK    9  A    between atoms: C_28  and  C_29
REMARK   10  A    between atoms: C_30  and  C_31
REMARK   11  A    between atoms: C_34  and  C_35
REMARK                            x       y       z     vdW  Elec       q    Type
REMARK                         _______ _______ _______ _____ _____    ______ ____
ROOT
ATOM      1  C   UNL     1      -5.060   6.082 134.289  0.00  0.00    +0.000 C 
ATOM      2  C   UNL     1      -3.511   6.216 133.942  0.00  0.00    +0.000 C 
ATOM      3  C   UNL     1      -3.154   7.196 132.704  0.00  0.00    +0.000 C 
ATOM      4  N   UNL     1      -2.743   6.414 131.561  0.00  0.00    +0.000 N 
ATOM      5  C   UNL     1      -2.886   6.864 130.258  0.00  0.00    +0.000 C 
ATOM      6  O   UNL     1      -3.083   8.003 129.932  0.00  0.00    +0.000 OA
ATOM      7  C   UNL     1      -2.758   5.756 129.230  0.00  0.00    +0.000 C 
ATOM      8  C   UNL     1      -3.945   4.800 129.289  0.00  0.00    +0.000 C 
ATOM      9  C   UNL     1      -4.152   3.653 128.185  0.00  0.00    +0.000 C 
ATOM     10  C   UNL     1      -3.590   2.709 127.036  0.00  0.00    +0.000 C 
ATOM     11  C   UNL     1      -4.109   4.805 127.134  0.00  0.00    +0.000 C 
ATOM     12  C   UNL     1      -4.739   2.444 129.085  0.00  0.00    +0.000 C 
ATOM     13  O   UNL     1      -4.135   1.354 129.132  0.00  0.00    +0.000 OA
ATOM     14  C   UNL     1      -5.734   2.663 130.208  0.00  0.00    +0.000 C 
ATOM     15  C   UNL     1      -4.975   2.581 131.557  0.00  0.00    +0.000 C 
ATOM     16  C   UNL     1      -6.910   1.665 130.298  0.00  0.00    +0.000 C 
ATOM     17  C   UNL     1      -7.859   2.120 131.438  0.00  0.00    +0.000 C 
ATOM     18  C   UNL     1      -9.228   1.486 131.250  0.00  0.00    +0.000 C 
ATOM     19  C   UNL     1      -7.361   1.753 132.871  0.00  0.00    +0.000 C 
ATOM     20  C   UNL     1      -7.624   2.886 133.839  0.00  0.00    +0.000 C 
ATOM     21  C   UNL     1      -6.387   3.339 134.697  0.00  0.00    +0.000 C 
ATOM     22  C   UNL     1      -6.314   4.882 134.753  0.00  0.00    +0.000 C 
ATOM     23  C   UNL     1      -7.669   5.339 135.344  0.00  0.00    +0.000 C 
ATOM     24  O   UNL     1      -5.202   5.335 135.502  0.00  0.00    +0.000 OA
ATOM     25  H   UNL     1      -2.224   5.567 131.727  0.00  0.00    +0.000 HD
ENDROOT
BRANCH   3  26
ATOM     26  C   UNL     1      -2.078   8.313 132.875  0.00  0.00    +0.000 C 
ATOM     27  C   UNL     1      -0.662   7.792 132.875  0.00  0.00    +0.000 C 
ATOM     28  C   UNL     1      -2.327   9.617 133.197  0.00  0.00    +0.000 C 
BRANCH  28  29
ATOM     29  C   UNL     1      -1.357  10.635 133.470  0.00  0.00    +0.000 A 
ATOM     30  C   UNL     1      -0.896  10.990 134.721  0.00  0.00    +0.000 A 
ATOM     31  S   UNL     1       0.342  12.173 134.554  0.00  0.00    +0.000 S 
ATOM     32  C   UNL     1       0.129  12.137 132.849  0.00  0.00    +0.000 A 
ATOM     33  C   UNL     1       0.981  12.955 131.946  0.00  0.00    +0.000 C 
ATOM     34  N   UNL     1      -0.820  11.338 132.416  0.00  0.00    +0.000 NA
ENDBRANCH  28  29
ENDBRANCH   3  26
BRANCH   8  35
ATOM     35  O   UNL     1      -3.807   4.371 130.598  0.00  0.00    +0.000 OA
ATOM     36  H   UNL     1      -3.840   3.404 130.570  0.00  0.00    +0.000 HD
ENDBRANCH   8  35
BRANCH  16  37
ATOM     37  O   UNL     1      -6.517   0.319 130.550  0.00  0.00    +0.000 OA
ATOM     38  H   UNL     1      -6.525  -0.184 129.719  0.00  0.00    +0.000 HD
ENDBRANCH  16  37
TORSDOF 4
ENDMDL
MODEL 9
REMARK VINA RESULT:      -7.9      5.125     10.414
REMARK  Name = Ixabepilone
REMARK  11 active torsions:
REMARK  status: ('A' for Active; 'I' for Inactive)
REMARK    1  A    between atoms: C_4  and  C_28
REMARK    2  A    between atoms: C_9  and  O_10
REMARK    3  A    between atoms: C_11  and  C_12
REMARK    4  A    between atoms: C_11  and  C_13
REMARK    5  A    between atoms: C_16  and  C_17
REMARK    6  A    between atoms: C_18  and  O_19
REMARK    7  A    between atoms: C_20  and  C_21
REMARK    8  A    between atoms: C_25  and  C_26
REMARK    9  A    between atoms: C_28  and  C_29
REMARK   10  A    between atoms: C_30  and  C_31
REMARK   11  A    between atoms: C_34  and  C_35
REMARK                            x       y       z     vdW  Elec       q    Type
REMARK                         _______ _______ _______ _____ _____    ______ ____
ROOT
ATOM      1  C   UNL     1      -7.446  -0.416 129.616  0.00  0.00    +0.000 C 
ATOM      2  C   UNL     1      -8.494   0.568 130.302  0.00  0.00    +0.000 C 
ATOM      3  C   UNL     1      -7.923   2.030 130.699  0.00  0.00    +0.000 C 
ATOM      4  N   UNL     1      -7.779   2.128 132.133  0.00  0.00    +0.000 N 
ATOM      5  C   UNL     1      -6.863   2.978 132.735  0.00  0.00    +0.000 C 
ATOM      6  O   UNL     1      -6.310   3.899 132.199  0.00  0.00    +0.000 OA
ATOM      7  C   UNL     1      -6.612   2.643 134.193  0.00  0.00    +0.000 C 
ATOM      8  C   UNL     1      -5.856   1.326 134.340  0.00  0.00    +0.000 C 
ATOM      9  C   UNL     1      -5.297   0.837 135.764  0.00  0.00    +0.000 C 
ATOM     10  C   UNL     1      -5.303   0.884 137.352  0.00  0.00    +0.000 C 
ATOM     11  C   UNL     1      -4.541   2.199 135.816  0.00  0.00    +0.000 C 
ATOM     12  C   UNL     1      -5.539  -0.760 135.671  0.00  0.00    +0.000 C 
ATOM     13  O   UNL     1      -6.261  -1.329 136.513  0.00  0.00    +0.000 OA
ATOM     14  C   UNL     1      -5.301  -1.555 134.402  0.00  0.00    +0.000 C 
ATOM     15  C   UNL     1      -6.675  -1.853 133.748  0.00  0.00    +0.000 C 
ATOM     16  C   UNL     1      -4.580  -2.912 134.557  0.00  0.00    +0.000 C 
ATOM     17  C   UNL     1      -4.345  -3.513 133.146  0.00  0.00    +0.000 C 
ATOM     18  C   UNL     1      -3.245  -4.560 133.209  0.00  0.00    +0.000 C 
ATOM     19  C   UNL     1      -5.605  -4.188 132.520  0.00  0.00    +0.000 C 
ATOM     20  C   UNL     1      -5.709  -3.871 131.044  0.00  0.00    +0.000 C 
ATOM     21  C   UNL     1      -7.103  -3.319 130.570  0.00  0.00    +0.000 C 
ATOM     22  C   UNL     1      -6.904  -2.130 129.604  0.00  0.00    +0.000 C 
ATOM     23  C   UNL     1      -6.037  -2.678 128.445  0.00  0.00    +0.000 C 
ATOM     24  O   UNL     1      -8.136  -1.588 129.166  0.00  0.00    +0.000 OA
ATOM     25  H   UNL     1      -8.452   1.652 132.712  0.00  0.00    +0.000 HD
ENDROOT
BRANCH   3  26
ATOM     26  C   UNL     1      -8.684   3.316 130.250  0.00  0.00    +0.000 C 
ATOM     27  C   UNL     1      -7.967   4.099 129.178  0.00  0.00    +0.000 C 
ATOM     28  C   UNL     1      -9.785   3.844 130.862  0.00  0.00    +0.000 C 
BRANCH  28  29
ATOM     29  C   UNL     1     -10.436   5.079 130.541  0.00  0.00    +0.000 A 
ATOM     30  C   UNL     1     -10.022   6.333 130.944  0.00  0.00    +0.000 A 
ATOM     31  S   UNL     1     -11.038   7.522 130.228  0.00  0.00    +0.000 S 
ATOM     32  C   UNL     1     -11.955   6.273 129.485  0.00  0.00    +0.000 A 
ATOM     33  C   UNL     1     -13.092   6.584 128.577  0.00  0.00    +0.000 C 
ATOM     34  N   UNL     1     -11.575   5.048 129.769  0.00  0.00    +0.000 NA
ENDBRANCH  28  29
ENDBRANCH   3  26
BRANCH   8  35
ATOM     35  O   UNL     1      -6.767   0.488 133.719  0.00  0.00    +0.000 OA
ATOM     36  H   UNL     1      -7.287   1.048 133.125  0.00  0.00    +0.000 HD
ENDBRANCH   8  35
BRANCH  16  37
ATOM     37  O   UNL     1      -5.290  -3.867 135.341  0.00  0.00    +0.000 OA
ATOM     38  H   UNL     1      -4.811  -4.030 136.169  0.00  0.00    +0.000 HD
ENDBRANCH  16  37
TORSDOF 4
ENDMDL
