MODEL 1
REMARK VINA RESULT:      -7.8      0.000      0.000
REMARK  Name = Kanamycin
REMARK  17 active torsions:
REMARK  status: ('A' for Active; 'I' for Inactive)
REMARK    1  A    between atoms: N_1  and  C_2
REMARK    2  A    between atoms: C_2  and  C_3
REMARK    3  A    between atoms: C_5  and  O_6
REMARK    4  A    between atoms: O_6  and  C_7
REMARK    5  A    between atoms: C_8  and  N_9
REMARK    6  A    between atoms: C_11  and  N_12
REMARK    7  A    between atoms: C_13  and  O_14
REMARK    8  A    between atoms: O_14  and  C_15
REMARK    9  A    between atoms: C_17  and  C_18
REMARK   10  A    between atoms: C_18  and  O_19
REMARK   11  A    between atoms: C_20  and  O_21
REMARK   12  A    between atoms: C_22  and  N_23
REMARK   13  A    between atoms: C_24  and  O_25
REMARK   14  A    between atoms: C_26  and  O_27
REMARK   15  A    between atoms: C_28  and  O_29
REMARK   16  A    between atoms: C_30  and  O_31
REMARK   17  A    between atoms: C_32  and  O_33
REMARK                            x       y       z     vdW  Elec       q    Type
REMARK                         _______ _______ _______ _____ _____    ______ ____
ROOT
ATOM      1  C   UNL     1      -9.923   3.463 130.910  0.00  0.00    +0.000 C 
ATOM      2  C   UNL     1      -9.134   3.713 132.436  0.00  0.00    +0.000 C 
ATOM      3  C   UNL     1      -7.461   4.176 132.361  0.00  0.00    +0.000 C 
ATOM      4  C   UNL     1      -6.751   3.535 131.131  0.00  0.00    +0.000 C 
ATOM      5  C   UNL     1      -7.576   3.120 129.794  0.00  0.00    +0.000 C 
ATOM      6  C   UNL     1      -9.012   2.551 130.043  0.00  0.00    +0.000 C 
ENDROOT
BRANCH   2   7
ATOM      7  N   UNL     1      -9.124   2.634 133.416  0.00  0.00    +0.000 NA
ATOM      8  H   UNL     1      -9.431   1.756 133.034  0.00  0.00    +0.000 HD
ATOM      9  H   UNL     1      -9.665   2.860 134.244  0.00  0.00    +0.000 HD
ENDBRANCH   2   7
BRANCH   4  10
ATOM     10  N   UNL     1      -6.083   2.445 131.824  0.00  0.00    +0.000 NA
ATOM     11  H   UNL     1      -5.921   2.742 132.776  0.00  0.00    +0.000 HD
ATOM     12  H   UNL     1      -5.131   2.411 131.436  0.00  0.00    +0.000 HD
ENDBRANCH   4  10
BRANCH   6  13
ATOM     13  O   UNL     1      -8.920   1.255 130.655  0.00  0.00    +0.000 OA
ATOM     14  H   UNL     1      -8.938   1.386 131.609  0.00  0.00    +0.000 HD
ENDBRANCH   6  13
BRANCH   5  15
ATOM     15  O   UNL     1      -7.738   4.034 128.669  0.00  0.00    +0.000 OA
BRANCH  15  16
ATOM     16  C   UNL     1      -7.287   3.728 127.366  0.00  0.00    +0.000 C 
ATOM     17  O   UNL     1      -8.161   4.408 126.511  0.00  0.00    +0.000 OA
ATOM     18  C   UNL     1      -7.915   4.135 125.138  0.00  0.00    +0.000 C 
ATOM     19  C   UNL     1      -6.482   4.552 124.732  0.00  0.00    +0.000 C 
ATOM     20  C   UNL     1      -5.417   3.817 125.548  0.00  0.00    +0.000 C 
ATOM     21  C   UNL     1      -5.763   4.078 127.015  0.00  0.00    +0.000 C 
BRANCH  20  22
ATOM     22  N   UNL     1      -5.319   2.378 125.242  0.00  0.00    +0.000 NA
ATOM     23  H   UNL     1      -4.725   1.919 125.945  0.00  0.00    +0.000 HD
ATOM     24  H   UNL     1      -4.840   2.187 124.366  0.00  0.00    +0.000 HD
ENDBRANCH  20  22
BRANCH  19  25
ATOM     25  O   UNL     1      -6.334   5.977 124.914  0.00  0.00    +0.000 OA
ATOM     26  H   UNL     1      -6.551   6.426 124.076  0.00  0.00    +0.000 HD
ENDBRANCH  19  25
BRANCH  21  27
ATOM     27  O   UNL     1      -5.343   5.386 127.399  0.00  0.00    +0.000 OA
ATOM     28  H   UNL     1      -4.441   5.531 127.078  0.00  0.00    +0.000 HD
ENDBRANCH  21  27
BRANCH  18  29
ATOM     29  C   UNL     1      -8.378   2.703 124.757  0.00  0.00    +0.000 C 
BRANCH  29  30
ATOM     30  O   UNL     1      -9.783   2.423 124.697  0.00  0.00    +0.000 OA
ATOM     31  H   UNL     1     -10.271   3.156 124.283  0.00  0.00    +0.000 HD
ENDBRANCH  29  30
ENDBRANCH  18  29
ENDBRANCH  15  16
ENDBRANCH   5  15
BRANCH   1  32
ATOM     32  O   UNL     1     -10.606   4.677 130.166  0.00  0.00    +0.000 OA
BRANCH  32  35
ATOM     33  C   UNL     1     -10.933   7.303 128.670  0.00  0.00    +0.000 C 
ATOM     34  O   UNL     1      -9.721   6.987 129.321  0.00  0.00    +0.000 OA
ATOM     35  C   UNL     1     -10.072   6.078 130.395  0.00  0.00    +0.000 C 
ATOM     36  C   UNL     1     -11.140   6.884 131.104  0.00  0.00    +0.000 C 
ATOM     37  C   UNL     1     -12.464   7.015 130.412  0.00  0.00    +0.000 C 
ATOM     38  C   UNL     1     -12.107   8.014 129.392  0.00  0.00    +0.000 C 
BRANCH  38  39
ATOM     39  O   UNL     1     -13.281   8.122 128.605  0.00  0.00    +0.000 OA
ATOM     40  H   UNL     1     -13.459   9.082 128.502  0.00  0.00    +0.000 HD
ENDBRANCH  38  39
BRANCH  37  41
ATOM     41  O   UNL     1     -13.500   7.331 131.351  0.00  0.00    +0.000 OA
ATOM     42  H   UNL     1     -13.167   7.939 132.032  0.00  0.00    +0.000 HD
ENDBRANCH  37  41
BRANCH  36  43
ATOM     43  O   UNL     1     -11.465   5.907 131.989  0.00  0.00    +0.000 OA
ATOM     44  H   UNL     1     -11.262   5.125 131.457  0.00  0.00    +0.000 HD
ENDBRANCH  36  43
BRANCH  33  45
ATOM     45  C   UNL     1     -10.928   7.526 127.199  0.00  0.00    +0.000 C 
BRANCH  45  46
ATOM     46  N   UNL     1     -10.040   6.517 126.601  0.00  0.00    +0.000 NA
ATOM     47  H   UNL     1      -9.220   6.969 126.215  0.00  0.00    +0.000 HD
ATOM     48  H   UNL     1      -9.630   5.919 127.336  0.00  0.00    +0.000 HD
ENDBRANCH  45  46
ENDBRANCH  33  45
ENDBRANCH  32  35
ENDBRANCH   1  32
TORSDOF 17
ENDMDL
MODEL 2
REMARK VINA RESULT:      -7.7      3.977      8.722
REMARK  Name = Kanamycin
REMARK  17 active torsions:
REMARK  status: ('A' for Active; 'I' for Inactive)
REMARK    1  A    between atoms: N_1  and  C_2
REMARK    2  A    between atoms: C_2  and  C_3
REMARK    3  A    between atoms: C_5  and  O_6
REMARK    4  A    between atoms: O_6  and  C_7
REMARK    5  A    between atoms: C_8  and  N_9
REMARK    6  A    between atoms: C_11  and  N_12
REMARK    7  A    between atoms: C_13  and  O_14
REMARK    8  A    between atoms: O_14  and  C_15
REMARK    9  A    between atoms: C_17  and  C_18
REMARK   10  A    between atoms: C_18  and  O_19
REMARK   11  A    between atoms: C_20  and  O_21
REMARK   12  A    between atoms: C_22  and  N_23
REMARK   13  A    between atoms: C_24  and  O_25
REMARK   14  A    between atoms: C_26  and  O_27
REMARK   15  A    between atoms: C_28  and  O_29
REMARK   16  A    between atoms: C_30  and  O_31
REMARK   17  A    between atoms: C_32  and  O_33
REMARK                            x       y       z     vdW  Elec       q    Type
REMARK                         _______ _______ _______ _____ _____    ______ ____
ROOT
ATOM      1  C   UNL     1      -8.795   1.854 123.952  0.00  0.00    +0.000 C 
ATOM      2  C   UNL     1      -8.005   2.583 122.589  0.00  0.00    +0.000 C 
ATOM      3  C   UNL     1      -6.340   3.022 122.819  0.00  0.00    +0.000 C 
ATOM      4  C   UNL     1      -6.066   3.453 124.290  0.00  0.00    +0.000 C 
ATOM      5  C   UNL     1      -6.975   2.903 125.520  0.00  0.00    +0.000 C 
ATOM      6  C   UNL     1      -8.496   2.727 125.202  0.00  0.00    +0.000 C 
ENDROOT
BRANCH   2   7
ATOM      7  N   UNL     1      -8.576   3.787 121.998  0.00  0.00    +0.000 NA
ATOM      8  H   UNL     1      -7.937   4.263 121.386  0.00  0.00    +0.000 HD
ATOM      9  H   UNL     1      -8.930   4.429 122.698  0.00  0.00    +0.000 HD
ENDBRANCH   2   7
BRANCH   4  10
ATOM     10  N   UNL     1      -6.081   4.893 124.088  0.00  0.00    +0.000 NA
ATOM     11  H   UNL     1      -7.009   5.224 124.311  0.00  0.00    +0.000 HD
ATOM     12  H   UNL     1      -6.033   5.032 123.071  0.00  0.00    +0.000 HD
ENDBRANCH   4  10
BRANCH   6  13
ATOM     13  O   UNL     1      -9.108   4.016 125.036  0.00  0.00    +0.000 OA
ATOM     14  H   UNL     1      -8.400   4.655 124.895  0.00  0.00    +0.000 HD
ENDBRANCH   6  13
BRANCH   5  15
ATOM     15  O   UNL     1      -6.620   1.704 126.270  0.00  0.00    +0.000 OA
BRANCH  15  16
ATOM     16  C   UNL     1      -6.657   1.647 127.681  0.00  0.00    +0.000 C 
ATOM     17  O   UNL     1      -7.712   0.779 127.980  0.00  0.00    +0.000 OA
ATOM     18  C   UNL     1      -7.962   0.674 129.375  0.00  0.00    +0.000 C 
ATOM     19  C   UNL     1      -6.720   0.142 130.130  0.00  0.00    +0.000 C 
ATOM     20  C   UNL     1      -5.504   1.050 129.944  0.00  0.00    +0.000 C 
ATOM     21  C   UNL     1      -5.316   1.193 128.432  0.00  0.00    +0.000 C 
BRANCH  20  22
ATOM     22  N   UNL     1      -5.625   2.354 130.620  0.00  0.00    +0.000 NA
ATOM     23  H   UNL     1      -5.653   2.210 131.639  0.00  0.00    +0.000 HD
ATOM     24  H   UNL     1      -6.502   2.827 130.424  0.00  0.00    +0.000 HD
ENDBRANCH  20  22
BRANCH  19  25
ATOM     25  O   UNL     1      -6.411  -1.186 129.653  0.00  0.00    +0.000 OA
ATOM     26  H   UNL     1      -5.534  -1.170 129.225  0.00  0.00    +0.000 HD
ENDBRANCH  19  25
BRANCH  21  27
ATOM     27  O   UNL     1      -4.693   0.026 127.897  0.00  0.00    +0.000 OA
ATOM     28  H   UNL     1      -4.413  -0.542 128.630  0.00  0.00    +0.000 HD
ENDBRANCH  21  27
BRANCH  18  29
ATOM     29  C   UNL     1      -8.634   1.961 129.925  0.00  0.00    +0.000 C 
BRANCH  29  30
ATOM     30  O   UNL     1      -8.577   2.223 131.333  0.00  0.00    +0.000 OA
ATOM     31  H   UNL     1      -8.905   1.465 131.847  0.00  0.00    +0.000 HD
ENDBRANCH  29  30
ENDBRANCH  18  29
ENDBRANCH  15  16
ENDBRANCH   5  15
BRANCH   1  32
ATOM     32  O   UNL     1      -8.726   0.290 124.162  0.00  0.00    +0.000 OA
BRANCH  32  35
ATOM     33  C   UNL     1      -6.960  -2.143 124.611  0.00  0.00    +0.000 C 
ATOM     34  O   UNL     1      -6.603  -1.152 123.670  0.00  0.00    +0.000 OA
ATOM     35  C   UNL     1      -7.846  -0.539 123.247  0.00  0.00    +0.000 C 
ATOM     36  C   UNL     1      -8.628  -1.764 122.817  0.00  0.00    +0.000 C 
ATOM     37  C   UNL     1      -9.126  -2.668 123.904  0.00  0.00    +0.000 C 
ATOM     38  C   UNL     1      -7.867  -3.349 124.249  0.00  0.00    +0.000 C 
BRANCH  38  39
ATOM     39  O   UNL     1      -8.216  -4.155 125.361  0.00  0.00    +0.000 OA
ATOM     40  H   UNL     1      -9.186  -4.065 125.476  0.00  0.00    +0.000 HD
ENDBRANCH  38  39
BRANCH  37  41
ATOM     41  O   UNL     1     -10.230  -3.457 123.445  0.00  0.00    +0.000 OA
ATOM     42  H   UNL     1     -10.170  -4.362 123.796  0.00  0.00    +0.000 HD
ENDBRANCH  37  41
BRANCH  36  43
ATOM     43  O   UNL     1      -9.780  -1.092 122.564  0.00  0.00    +0.000 OA
ATOM     44  H   UNL     1     -10.389  -1.836 122.462  0.00  0.00    +0.000 HD
ENDBRANCH  36  43
BRANCH  33  45
ATOM     45  C   UNL     1      -6.051  -2.416 125.756  0.00  0.00    +0.000 C 
BRANCH  45  46
ATOM     46  N   UNL     1      -6.751  -2.009 126.984  0.00  0.00    +0.000 NA
ATOM     47  H   UNL     1      -7.692  -2.383 126.982  0.00  0.00    +0.000 HD
ATOM     48  H   UNL     1      -6.336  -2.477 127.806  0.00  0.00    +0.000 HD
ENDBRANCH  45  46
ENDBRANCH  33  45
ENDBRANCH  32  35
ENDBRANCH   1  32
TORSDOF 17
ENDMDL
MODEL 3
REMARK VINA RESULT:      -7.6      2.518      4.548
REMARK  Name = Kanamycin
REMARK  17 active torsions:
REMARK  status: ('A' for Active; 'I' for Inactive)
REMARK    1  A    between atoms: N_1  and  C_2
REMARK    2  A    between atoms: C_2  and  C_3
REMARK    3  A    between atoms: C_5  and  O_6
REMARK    4  A    between atoms: O_6  and  C_7
REMARK    5  A    between atoms: C_8  and  N_9
REMARK    6  A    between atoms: C_11  and  N_12
REMARK    7  A    between atoms: C_13  and  O_14
REMARK    8  A    between atoms: O_14  and  C_15
REMARK    9  A    between atoms: C_17  and  C_18
REMARK   10  A    between atoms: C_18  and  O_19
REMARK   11  A    between atoms: C_20  and  O_21
REMARK   12  A    between atoms: C_22  and  N_23
REMARK   13  A    between atoms: C_24  and  O_25
REMARK   14  A    between atoms: C_26  and  O_27
REMARK   15  A    between atoms: C_28  and  O_29
REMARK   16  A    between atoms: C_30  and  O_31
REMARK   17  A    between atoms: C_32  and  O_33
REMARK                            x       y       z     vdW  Elec       q    Type
REMARK                         _______ _______ _______ _____ _____    ______ ____
ROOT
ATOM      1  C   UNL     1      -5.280   5.460 130.083  0.00  0.00    +0.000 C 
ATOM      2  C   UNL     1      -4.262   6.771 130.592  0.00  0.00    +0.000 C 
ATOM      3  C   UNL     1      -3.558   7.725 129.322  0.00  0.00    +0.000 C 
ATOM      4  C   UNL     1      -3.263   6.859 128.061  0.00  0.00    +0.000 C 
ATOM      5  C   UNL     1      -4.112   5.511 127.737  0.00  0.00    +0.000 C 
ATOM      6  C   UNL     1      -4.523   4.663 128.985  0.00  0.00    +0.000 C 
ENDROOT
BRANCH   2   7
ATOM      7  N   UNL     1      -3.120   6.490 131.453  0.00  0.00    +0.000 NA
ATOM      8  H   UNL     1      -2.341   6.099 130.954  0.00  0.00    +0.000 HD
ATOM      9  H   UNL     1      -3.365   5.894 132.236  0.00  0.00    +0.000 HD
ENDBRANCH   2   7
BRANCH   4  10
ATOM     10  N   UNL     1      -1.836   6.672 128.269  0.00  0.00    +0.000 NA
ATOM     11  H   UNL     1      -1.431   7.580 128.443  0.00  0.00    +0.000 HD
ATOM     12  H   UNL     1      -1.450   6.428 127.347  0.00  0.00    +0.000 HD
ENDBRANCH   4  10
BRANCH   6  13
ATOM     13  O   UNL     1      -3.357   4.055 129.562  0.00  0.00    +0.000 OA
ATOM     14  H   UNL     1      -2.935   4.716 130.123  0.00  0.00    +0.000 HD
ENDBRANCH   6  13
BRANCH   5  15
ATOM     15  O   UNL     1      -5.307   5.531 126.902  0.00  0.00    +0.000 OA
BRANCH  15  16
ATOM     16  C   UNL     1      -5.936   4.353 126.441  0.00  0.00    +0.000 C 
ATOM     17  O   UNL     1      -7.301   4.559 126.665  0.00  0.00    +0.000 OA
ATOM     18  C   UNL     1      -8.092   3.423 126.346  0.00  0.00    +0.000 C 
ATOM     19  C   UNL     1      -7.940   3.035 124.856  0.00  0.00    +0.000 C 
ATOM     20  C   UNL     1      -6.490   2.709 124.492  0.00  0.00    +0.000 C 
ATOM     21  C   UNL     1      -5.669   3.926 124.919  0.00  0.00    +0.000 C 
BRANCH  20  22
ATOM     22  N   UNL     1      -5.993   1.457 125.093  0.00  0.00    +0.000 NA
ATOM     23  H   UNL     1      -6.715   0.729 125.012  0.00  0.00    +0.000 HD
ATOM     24  H   UNL     1      -5.839   1.527 126.095  0.00  0.00    +0.000 HD
ENDBRANCH  20  22
BRANCH  19  25
ATOM     25  O   UNL     1      -8.411   4.125 124.033  0.00  0.00    +0.000 OA
ATOM     26  H   UNL     1      -9.376   4.037 123.918  0.00  0.00    +0.000 HD
ENDBRANCH  19  25
BRANCH  21  27
ATOM     27  O   UNL     1      -5.809   4.979 123.966  0.00  0.00    +0.000 OA
ATOM     28  H   UNL     1      -4.949   5.410 123.849  0.00  0.00    +0.000 HD
ENDBRANCH  21  27
BRANCH  18  29
ATOM     29  C   UNL     1      -7.909   2.296 127.399  0.00  0.00    +0.000 C 
BRANCH  29  30
ATOM     30  O   UNL     1      -9.042   1.888 128.177  0.00  0.00    +0.000 OA
ATOM     31  H   UNL     1      -8.945   0.972 128.489  0.00  0.00    +0.000 HD
ENDBRANCH  29  30
ENDBRANCH  18  29
ENDBRANCH  15  16
ENDBRANCH   5  15
BRANCH   1  32
ATOM     32  O   UNL     1      -6.819   5.708 129.829  0.00  0.00    +0.000 OA
BRANCH  32  35
ATOM     33  C   UNL     1      -8.399   4.825 132.270  0.00  0.00    +0.000 C 
ATOM     34  O   UNL     1      -7.909   3.879 131.345  0.00  0.00    +0.000 OA
ATOM     35  C   UNL     1      -7.800   4.579 130.080  0.00  0.00    +0.000 C 
ATOM     36  C   UNL     1      -9.204   5.131 129.946  0.00  0.00    +0.000 C 
ATOM     37  C   UNL     1      -9.578   6.264 130.855  0.00  0.00    +0.000 C 
ATOM     38  C   UNL     1      -9.780   5.515 132.106  0.00  0.00    +0.000 C 
BRANCH  38  39
ATOM     39  O   UNL     1     -10.030   6.528 133.065  0.00  0.00    +0.000 OA
ATOM     40  H   UNL     1      -9.655   7.357 132.698  0.00  0.00    +0.000 HD
ENDBRANCH  38  39
BRANCH  37  41
ATOM     41  O   UNL     1     -10.678   7.007 130.315  0.00  0.00    +0.000 OA
ATOM     42  H   UNL     1     -10.381   7.881 130.011  0.00  0.00    +0.000 HD
ENDBRANCH  37  41
BRANCH  36  43
ATOM     43  O   UNL     1      -8.949   5.846 128.820  0.00  0.00    +0.000 OA
ATOM     44  H   UNL     1      -9.833   5.860 128.427  0.00  0.00    +0.000 HD
ENDBRANCH  36  43
BRANCH  33  45
ATOM     45  C   UNL     1      -7.941   4.761 133.684  0.00  0.00    +0.000 C 
BRANCH  45  46
ATOM     46  N   UNL     1      -9.043   4.200 134.481  0.00  0.00    +0.000 NA
ATOM     47  H   UNL     1      -8.701   3.434 135.047  0.00  0.00    +0.000 HD
ATOM     48  H   UNL     1      -9.348   4.877 135.199  0.00  0.00    +0.000 HD
ENDBRANCH  45  46
ENDBRANCH  33  45
ENDBRANCH  32  35
ENDBRANCH   1  32
TORSDOF 17
ENDMDL
MODEL 4
REMARK VINA RESULT:      -7.5      2.496      4.291
REMARK  Name = Kanamycin
REMARK  17 active torsions:
REMARK  status: ('A' for Active; 'I' for Inactive)
REMARK    1  A    between atoms: N_1  and  C_2
REMARK    2  A    between atoms: C_2  and  C_3
REMARK    3  A    between atoms: C_5  and  O_6
REMARK    4  A    between atoms: O_6  and  C_7
REMARK    5  A    between atoms: C_8  and  N_9
REMARK    6  A    between atoms: C_11  and  N_12
REMARK    7  A    between atoms: C_13  and  O_14
REMARK    8  A    between atoms: O_14  and  C_15
REMARK    9  A    between atoms: C_17  and  C_18
REMARK   10  A    between atoms: C_18  and  O_19
REMARK   11  A    between atoms: C_20  and  O_21
REMARK   12  A    between atoms: C_22  and  N_23
REMARK   13  A    between atoms: C_24  and  O_25
REMARK   14  A    between atoms: C_26  and  O_27
REMARK   15  A    between atoms: C_28  and  O_29
REMARK   16  A    between atoms: C_30  and  O_31
REMARK   17  A    between atoms: C_32  and  O_33
REMARK                            x       y       z     vdW  Elec       q    Type
REMARK                         _______ _______ _______ _____ _____    ______ ____
ROOT
ATOM      1  C   UNL     1      -5.906   4.686 129.565  0.00  0.00    +0.000 C 
ATOM      2  C   UNL     1      -4.506   5.698 129.392  0.00  0.00    +0.000 C 
ATOM      3  C   UNL     1      -3.930   5.930 127.769  0.00  0.00    +0.000 C 
ATOM      4  C   UNL     1      -4.178   4.666 126.894  0.00  0.00    +0.000 C 
ATOM      5  C   UNL     1      -5.382   3.626 127.225  0.00  0.00    +0.000 C 
ATOM      6  C   UNL     1      -5.663   3.388 128.745  0.00  0.00    +0.000 C 
ENDROOT
BRANCH   2   7
ATOM      7  N   UNL     1      -3.289   5.358 130.118  0.00  0.00    +0.000 NA
ATOM      8  H   UNL     1      -2.454   5.555 129.596  0.00  0.00    +0.000 HD
ATOM      9  H   UNL     1      -3.284   4.393 130.430  0.00  0.00    +0.000 HD
ENDBRANCH   2   7
BRANCH   4  10
ATOM     10  N   UNL     1      -2.834   4.114 126.946  0.00  0.00    +0.000 NA
ATOM     11  H   UNL     1      -2.293   4.685 127.579  0.00  0.00    +0.000 HD
ATOM     12  H   UNL     1      -2.410   4.328 126.034  0.00  0.00    +0.000 HD
ENDBRANCH   4  10
BRANCH   6  13
ATOM     13  O   UNL     1      -4.574   2.657 129.330  0.00  0.00    +0.000 OA
ATOM     14  H   UNL     1      -4.953   1.914 129.812  0.00  0.00    +0.000 HD
ENDBRANCH   6  13
BRANCH   5  15
ATOM     15  O   UNL     1      -6.706   3.758 126.628  0.00  0.00    +0.000 OA
BRANCH  15  16
ATOM     16  C   UNL     1      -7.194   2.865 125.648  0.00  0.00    +0.000 C 
ATOM     17  O   UNL     1      -8.511   3.274 125.411  0.00  0.00    +0.000 OA
ATOM     18  C   UNL     1      -9.201   2.419 124.510  0.00  0.00    +0.000 C 
ATOM     19  C   UNL     1      -8.496   2.369 123.133  0.00  0.00    +0.000 C 
ATOM     20  C   UNL     1      -7.057   1.863 123.243  0.00  0.00    +0.000 C 
ATOM     21  C   UNL     1      -6.375   2.764 124.274  0.00  0.00    +0.000 C 
BRANCH  20  22
ATOM     22  N   UNL     1      -6.953   0.434 123.590  0.00  0.00    +0.000 NA
ATOM     23  H   UNL     1      -6.001   0.232 123.924  0.00  0.00    +0.000 HD
ATOM     24  H   UNL     1      -7.058  -0.182 122.789  0.00  0.00    +0.000 HD
ENDBRANCH  20  22
BRANCH  19  25
ATOM     25  O   UNL     1      -8.502   3.691 122.552  0.00  0.00    +0.000 OA
ATOM     26  H   UNL     1      -8.348   4.346 123.258  0.00  0.00    +0.000 HD
ENDBRANCH  19  25
BRANCH  21  27
ATOM     27  O   UNL     1      -6.029   4.018 123.687  0.00  0.00    +0.000 OA
ATOM     28  H   UNL     1      -5.502   3.854 122.890  0.00  0.00    +0.000 HD
ENDBRANCH  21  27
BRANCH  18  29
ATOM     29  C   UNL     1      -9.556   1.063 125.180  0.00  0.00    +0.000 C 
BRANCH  29  30
ATOM     30  O   UNL     1      -9.855  -0.063 124.344  0.00  0.00    +0.000 OA
ATOM     31  H   UNL     1     -10.504   0.170 123.657  0.00  0.00    +0.000 HD
ENDBRANCH  29  30
ENDBRANCH  18  29
ENDBRANCH  15  16
ENDBRANCH   5  15
BRANCH   1  32
ATOM     32  O   UNL     1      -7.352   5.313 129.464  0.00  0.00    +0.000 OA
BRANCH  32  35
ATOM     33  C   UNL     1      -9.021   4.585 131.897  0.00  0.00    +0.000 C 
ATOM     34  O   UNL     1      -8.791   3.645 130.870  0.00  0.00    +0.000 OA
ATOM     35  C   UNL     1      -8.560   4.420 129.666  0.00  0.00    +0.000 C 
ATOM     36  C   UNL     1      -9.801   5.288 129.652  0.00  0.00    +0.000 C 
ATOM     37  C   UNL     1      -9.876   6.384 130.673  0.00  0.00    +0.000 C 
ATOM     38  C   UNL     1     -10.208   5.584 131.863  0.00  0.00    +0.000 C 
BRANCH  38  39
ATOM     39  O   UNL     1     -10.189   6.531 132.918  0.00  0.00    +0.000 OA
ATOM     40  H   UNL     1      -9.578   7.246 132.638  0.00  0.00    +0.000 HD
ENDBRANCH  38  39
BRANCH  37  41
ATOM     41  O   UNL     1     -10.788   7.407 130.256  0.00  0.00    +0.000 OA
ATOM     42  H   UNL     1     -10.549   8.259 130.657  0.00  0.00    +0.000 HD
ENDBRANCH  37  41
BRANCH  36  43
ATOM     43  O   UNL     1      -9.420   6.030 128.580  0.00  0.00    +0.000 OA
ATOM     44  H   UNL     1      -9.086   5.330 128.002  0.00  0.00    +0.000 HD
ENDBRANCH  36  43
BRANCH  33  45
ATOM     45  C   UNL     1      -8.549   4.283 133.275  0.00  0.00    +0.000 C 
BRANCH  45  46
ATOM     46  N   UNL     1      -9.730   3.934 134.080  0.00  0.00    +0.000 NA
ATOM     47  H   UNL     1      -9.456   3.331 134.846  0.00  0.00    +0.000 HD
ATOM     48  H   UNL     1     -10.083   4.767 134.579  0.00  0.00    +0.000 HD
ENDBRANCH  45  46
ENDBRANCH  33  45
ENDBRANCH  32  35
ENDBRANCH   1  32
TORSDOF 17
ENDMDL
MODEL 5
REMARK VINA RESULT:      -7.4      2.655      6.764
REMARK  Name = Kanamycin
REMARK  17 active torsions:
REMARK  status: ('A' for Active; 'I' for Inactive)
REMARK    1  A    between atoms: N_1  and  C_2
REMARK    2  A    between atoms: C_2  and  C_3
REMARK    3  A    between atoms: C_5  and  O_6
REMARK    4  A    between atoms: O_6  and  C_7
REMARK    5  A    between atoms: C_8  and  N_9
REMARK    6  A    between atoms: C_11  and  N_12
REMARK    7  A    between atoms: C_13  and  O_14
REMARK    8  A    between atoms: O_14  and  C_15
REMARK    9  A    between atoms: C_17  and  C_18
REMARK   10  A    between atoms: C_18  and  O_19
REMARK   11  A    between atoms: C_20  and  O_21
REMARK   12  A    between atoms: C_22  and  N_23
REMARK   13  A    between atoms: C_24  and  O_25
REMARK   14  A    between atoms: C_26  and  O_27
REMARK   15  A    between atoms: C_28  and  O_29
REMARK   16  A    between atoms: C_30  and  O_31
REMARK   17  A    between atoms: C_32  and  O_33
REMARK                            x       y       z     vdW  Elec       q    Type
REMARK                         _______ _______ _______ _____ _____    ______ ____
ROOT
ATOM      1  C   UNL     1      -6.379   1.776 127.312  0.00  0.00    +0.000 C 
ATOM      2  C   UNL     1      -6.961   0.435 128.250  0.00  0.00    +0.000 C 
ATOM      3  C   UNL     1      -7.445   0.799 129.878  0.00  0.00    +0.000 C 
ATOM      4  C   UNL     1      -6.585   1.949 130.481  0.00  0.00    +0.000 C 
ATOM      5  C   UNL     1      -5.880   3.068 129.537  0.00  0.00    +0.000 C 
ATOM      6  C   UNL     1      -5.335   2.543 128.169  0.00  0.00    +0.000 C 
ENDROOT
BRANCH   2   7
ATOM      7  N   UNL     1      -6.107  -0.734 128.422  0.00  0.00    +0.000 NA
ATOM      8  H   UNL     1      -5.511  -0.903 127.631  0.00  0.00    +0.000 HD
ATOM      9  H   UNL     1      -6.638  -1.569 128.642  0.00  0.00    +0.000 HD
ENDBRANCH   2   7
BRANCH   4  10
ATOM     10  N   UNL     1      -5.682   1.134 131.277  0.00  0.00    +0.000 NA
ATOM     11  H   UNL     1      -5.193   0.515 130.647  0.00  0.00    +0.000 HD
ATOM     12  H   UNL     1      -6.282   0.487 131.805  0.00  0.00    +0.000 HD
ENDBRANCH   4  10
BRANCH   6  13
ATOM     13  O   UNL     1      -4.196   1.697 128.395  0.00  0.00    +0.000 OA
ATOM     14  H   UNL     1      -3.435   2.272 128.540  0.00  0.00    +0.000 HD
ENDBRANCH   6  13
BRANCH   5  15
ATOM     15  O   UNL     1      -6.537   4.328 129.206  0.00  0.00    +0.000 OA
BRANCH  15  16
ATOM     16  C   UNL     1      -7.658   4.814 129.916  0.00  0.00    +0.000 C 
ATOM     17  O   UNL     1      -7.283   6.089 130.353  0.00  0.00    +0.000 OA
ATOM     18  C   UNL     1      -8.265   6.701 131.178  0.00  0.00    +0.000 C 
ATOM     19  C   UNL     1      -9.607   6.865 130.425  0.00  0.00    +0.000 C 
ATOM     20  C   UNL     1     -10.168   5.522 129.954  0.00  0.00    +0.000 C 
ATOM     21  C   UNL     1      -9.055   4.869 129.133  0.00  0.00    +0.000 C 
BRANCH  20  22
ATOM     22  N   UNL     1     -10.640   4.656 131.050  0.00  0.00    +0.000 NA
ATOM     23  H   UNL     1     -10.541   5.154 131.945  0.00  0.00    +0.000 HD
ATOM     24  H   UNL     1     -10.069   3.825 131.177  0.00  0.00    +0.000 HD
ENDBRANCH  20  22
BRANCH  19  25
ATOM     25  O   UNL     1      -9.408   7.733 129.288  0.00  0.00    +0.000 OA
ATOM     26  H   UNL     1      -9.199   8.630 129.609  0.00  0.00    +0.000 HD
ENDBRANCH  19  25
BRANCH  21  27
ATOM     27  O   UNL     1      -8.992   5.450 127.831  0.00  0.00    +0.000 OA
ATOM     28  H   UNL     1      -9.845   5.865 127.634  0.00  0.00    +0.000 HD
ENDBRANCH  21  27
BRANCH  18  29
ATOM     29  C   UNL     1      -8.310   6.041 132.583  0.00  0.00    +0.000 C 
BRANCH  29  30
ATOM     30  O   UNL     1      -9.466   6.247 133.405  0.00  0.00    +0.000 OA
ATOM     31  H   UNL     1      -9.328   5.897 134.302  0.00  0.00    +0.000 HD
ENDBRANCH  29  30
ENDBRANCH  18  29
ENDBRANCH  15  16
ENDBRANCH   5  15
BRANCH   1  32
ATOM     32  O   UNL     1      -7.394   2.664 126.490  0.00  0.00    +0.000 OA
BRANCH  32  35
ATOM     33  C   UNL     1      -7.303   0.689 124.182  0.00  0.00    +0.000 C 
ATOM     34  O   UNL     1      -6.499   1.850 124.173  0.00  0.00    +0.000 OA
ATOM     35  C   UNL     1      -7.195   2.821 124.996  0.00  0.00    +0.000 C 
ATOM     36  C   UNL     1      -8.556   2.823 124.331  0.00  0.00    +0.000 C 
ATOM     37  C   UNL     1      -9.419   1.615 124.547  0.00  0.00    +0.000 C 
ATOM     38  C   UNL     1      -8.754   0.675 123.629  0.00  0.00    +0.000 C 
BRANCH  38  39
ATOM     39  O   UNL     1      -9.437  -0.547 123.849  0.00  0.00    +0.000 OA
ATOM     40  H   UNL     1     -10.364  -0.402 123.560  0.00  0.00    +0.000 HD
ENDBRANCH  38  39
BRANCH  37  41
ATOM     41  O   UNL     1     -10.799   1.929 124.326  0.00  0.00    +0.000 OA
ATOM     42  H   UNL     1     -10.963   2.873 124.491  0.00  0.00    +0.000 HD
ENDBRANCH  37  41
BRANCH  36  43
ATOM     43  O   UNL     1      -9.134   3.652 125.238  0.00  0.00    +0.000 OA
ATOM     44  H   UNL     1      -8.868   3.215 126.059  0.00  0.00    +0.000 HD
ENDBRANCH  36  43
BRANCH  33  45
ATOM     45  C   UNL     1      -6.649  -0.646 124.143  0.00  0.00    +0.000 C 
BRANCH  45  46
ATOM     46  N   UNL     1      -7.059  -1.375 125.352  0.00  0.00    +0.000 NA
ATOM     47  H   UNL     1      -6.352  -1.273 126.070  0.00  0.00    +0.000 HD
ATOM     48  H   UNL     1      -7.875  -0.916 125.789  0.00  0.00    +0.000 HD
ENDBRANCH  45  46
ENDBRANCH  33  45
ENDBRANCH  32  35
ENDBRANCH   1  32
TORSDOF 17
ENDMDL
MODEL 6
REMARK VINA RESULT:      -7.4      1.373      2.258
REMARK  Name = Kanamycin
REMARK  17 active torsions:
REMARK  status: ('A' for Active; 'I' for Inactive)
REMARK    1  A    between atoms: N_1  and  C_2
REMARK    2  A    between atoms: C_2  and  C_3
REMARK    3  A    between atoms: C_5  and  O_6
REMARK    4  A    between atoms: O_6  and  C_7
REMARK    5  A    between atoms: C_8  and  N_9
REMARK    6  A    between atoms: C_11  and  N_12
REMARK    7  A    between atoms: C_13  and  O_14
REMARK    8  A    between atoms: O_14  and  C_15
REMARK    9  A    between atoms: C_17  and  C_18
REMARK   10  A    between atoms: C_18  and  O_19
REMARK   11  A    between atoms: C_20  and  O_21
REMARK   12  A    between atoms: C_22  and  N_23
REMARK   13  A    between atoms: C_24  and  O_25
REMARK   14  A    between atoms: C_26  and  O_27
REMARK   15  A    between atoms: C_28  and  O_29
REMARK   16  A    between atoms: C_30  and  O_31
REMARK   17  A    between atoms: C_32  and  O_33
REMARK                            x       y       z     vdW  Elec       q    Type
REMARK                         _______ _______ _______ _____ _____    ______ ____
ROOT
ATOM      1  C   UNL     1      -9.559   3.433 130.455  0.00  0.00    +0.000 C 
ATOM      2  C   UNL     1      -8.355   3.773 131.658  0.00  0.00    +0.000 C 
ATOM      3  C   UNL     1      -6.793   4.244 131.059  0.00  0.00    +0.000 C 
ATOM      4  C   UNL     1      -6.470   3.542 129.707  0.00  0.00    +0.000 C 
ATOM      5  C   UNL     1      -7.648   3.048 128.703  0.00  0.00    +0.000 C 
ATOM      6  C   UNL     1      -8.928   2.482 129.400  0.00  0.00    +0.000 C 
ENDROOT
BRANCH   2   7
ATOM      7  N   UNL     1      -8.026   2.750 132.642  0.00  0.00    +0.000 NA
ATOM      8  H   UNL     1      -8.342   2.982 133.568  0.00  0.00    +0.000 HD
ATOM      9  H   UNL     1      -7.036   2.534 132.658  0.00  0.00    +0.000 HD
ENDBRANCH   2   7
BRANCH   4  10
ATOM     10  N   UNL     1      -5.598   2.498 130.221  0.00  0.00    +0.000 NA
ATOM     11  H   UNL     1      -4.646   2.766 130.016  0.00  0.00    +0.000 HD
ATOM     12  H   UNL     1      -5.741   1.688 129.604  0.00  0.00    +0.000 HD
ENDBRANCH   4  10
BRANCH   6  13
ATOM     13  O   UNL     1      -8.626   1.223 130.021  0.00  0.00    +0.000 OA
ATOM     14  H   UNL     1      -8.144   0.693 129.376  0.00  0.00    +0.000 HD
ENDBRANCH   6  13
BRANCH   5  15
ATOM     15  O   UNL     1      -8.161   3.896 127.634  0.00  0.00    +0.000 OA
BRANCH  15  16
ATOM     16  C   UNL     1      -7.806   3.716 126.278  0.00  0.00    +0.000 C 
ATOM     17  O   UNL     1      -6.501   3.213 126.310  0.00  0.00    +0.000 OA
ATOM     18  C   UNL     1      -5.936   3.059 125.016  0.00  0.00    +0.000 C 
ATOM     19  C   UNL     1      -6.769   2.081 124.153  0.00  0.00    +0.000 C 
ATOM     20  C   UNL     1      -8.212   2.556 123.977  0.00  0.00    +0.000 C 
ATOM     21  C   UNL     1      -8.754   2.778 125.390  0.00  0.00    +0.000 C 
BRANCH  20  22
ATOM     22  N   UNL     1      -8.344   3.756 123.130  0.00  0.00    +0.000 NA
ATOM     23  H   UNL     1      -7.411   4.148 122.945  0.00  0.00    +0.000 HD
ATOM     24  H   UNL     1      -8.833   4.519 123.589  0.00  0.00    +0.000 HD
ENDBRANCH  20  22
BRANCH  19  25
ATOM     25  O   UNL     1      -6.761   0.778 124.777  0.00  0.00    +0.000 OA
ATOM     26  H   UNL     1      -7.416   0.771 125.500  0.00  0.00    +0.000 HD
ENDBRANCH  19  25
BRANCH  21  27
ATOM     27  O   UNL     1      -9.099   1.531 125.990  0.00  0.00    +0.000 OA
ATOM     28  H   UNL     1      -8.424   1.303 126.647  0.00  0.00    +0.000 HD
ENDBRANCH  21  27
BRANCH  18  29
ATOM     29  C   UNL     1      -5.579   4.435 124.390  0.00  0.00    +0.000 C 
BRANCH  29  30
ATOM     30  O   UNL     1      -5.520   4.550 122.962  0.00  0.00    +0.000 OA
ATOM     31  H   UNL     1      -5.138   5.403 122.692  0.00  0.00    +0.000 HD
ENDBRANCH  29  30
ENDBRANCH  18  29
ENDBRANCH  15  16
ENDBRANCH   5  15
BRANCH   1  32
ATOM     32  O   UNL     1     -10.463   4.599 129.890  0.00  0.00    +0.000 OA
BRANCH  32  35
ATOM     33  C   UNL     1     -11.095   7.147 128.358  0.00  0.00    +0.000 C 
ATOM     34  O   UNL     1      -9.802   6.915 128.875  0.00  0.00    +0.000 OA
ATOM     35  C   UNL     1      -9.980   6.031 130.010  0.00  0.00    +0.000 C 
ATOM     36  C   UNL     1     -11.002   6.812 130.812  0.00  0.00    +0.000 C 
ATOM     37  C   UNL     1     -12.401   6.851 130.273  0.00  0.00    +0.000 C 
ATOM     38  C   UNL     1     -12.215   7.828 129.188  0.00  0.00    +0.000 C 
BRANCH  38  39
ATOM     39  O   UNL     1     -13.475   7.849 128.538  0.00  0.00    +0.000 OA
ATOM     40  H   UNL     1     -13.420   7.199 127.805  0.00  0.00    +0.000 HD
ENDBRANCH  38  39
BRANCH  37  41
ATOM     41  O   UNL     1     -13.339   7.152 131.315  0.00  0.00    +0.000 OA
ATOM     42  H   UNL     1     -12.996   6.858 132.175  0.00  0.00    +0.000 HD
ENDBRANCH  37  41
BRANCH  36  43
ATOM     43  O   UNL     1     -11.173   5.854 131.759  0.00  0.00    +0.000 OA
ATOM     44  H   UNL     1     -10.315   5.409 131.704  0.00  0.00    +0.000 HD
ENDBRANCH  36  43
BRANCH  33  45
ATOM     45  C   UNL     1     -11.269   7.314 126.890  0.00  0.00    +0.000 C 
BRANCH  45  46
ATOM     46  N   UNL     1     -10.265   6.469 126.226  0.00  0.00    +0.000 NA
ATOM     47  H   UNL     1     -10.586   6.221 125.298  0.00  0.00    +0.000 HD
ATOM     48  H   UNL     1      -9.414   7.017 126.019  0.00  0.00    +0.000 HD
ENDBRANCH  45  46
ENDBRANCH  33  45
ENDBRANCH  32  35
ENDBRANCH   1  32
TORSDOF 17
ENDMDL
MODEL 7
REMARK VINA RESULT:      -7.3      2.320      3.554
REMARK  Name = Kanamycin
REMARK  17 active torsions:
REMARK  status: ('A' for Active; 'I' for Inactive)
REMARK    1  A    between atoms: N_1  and  C_2
REMARK    2  A    between atoms: C_2  and  C_3
REMARK    3  A    between atoms: C_5  and  O_6
REMARK    4  A    between atoms: O_6  and  C_7
REMARK    5  A    between atoms: C_8  and  N_9
REMARK    6  A    between atoms: C_11  and  N_12
REMARK    7  A    between atoms: C_13  and  O_14
REMARK    8  A    between atoms: O_14  and  C_15
REMARK    9  A    between atoms: C_17  and  C_18
REMARK   10  A    between atoms: C_18  and  O_19
REMARK   11  A    between atoms: C_20  and  O_21
REMARK   12  A    between atoms: C_22  and  N_23
REMARK   13  A    between atoms: C_24  and  O_25
REMARK   14  A    between atoms: C_26  and  O_27
REMARK   15  A    between atoms: C_28  and  O_29
REMARK   16  A    between atoms: C_30  and  O_31
REMARK   17  A    between atoms: C_32  and  O_33
REMARK                            x       y       z     vdW  Elec       q    Type
REMARK                         _______ _______ _______ _____ _____    ______ ____
ROOT
ATOM      1  C   UNL     1      -6.204   4.558 129.502  0.00  0.00    +0.000 C 
ATOM      2  C   UNL     1      -4.811   5.593 129.525  0.00  0.00    +0.000 C 
ATOM      3  C   UNL     1      -4.108   5.959 127.979  0.00  0.00    +0.000 C 
ATOM      4  C   UNL     1      -4.265   4.767 126.989  0.00  0.00    +0.000 C 
ATOM      5  C   UNL     1      -5.476   3.693 127.137  0.00  0.00    +0.000 C 
ATOM      6  C   UNL     1      -5.876   3.332 128.605  0.00  0.00    +0.000 C 
ENDROOT
BRANCH   2   7
ATOM      7  N   UNL     1      -3.652   5.206 130.320  0.00  0.00    +0.000 NA
ATOM      8  H   UNL     1      -2.849   4.985 129.758  0.00  0.00    +0.000 HD
ATOM      9  H   UNL     1      -3.856   4.438 130.951  0.00  0.00    +0.000 HD
ENDBRANCH   2   7
BRANCH   4  10
ATOM     10  N   UNL     1      -2.922   4.223 127.108  0.00  0.00    +0.000 NA
ATOM     11  H   UNL     1      -2.301   4.826 126.587  0.00  0.00    +0.000 HD
ATOM     12  H   UNL     1      -2.920   3.362 126.546  0.00  0.00    +0.000 HD
ENDBRANCH   4  10
BRANCH   6  13
ATOM     13  O   UNL     1      -4.827   2.566 129.218  0.00  0.00    +0.000 OA
ATOM     14  H   UNL     1      -4.147   3.186 129.505  0.00  0.00    +0.000 HD
ENDBRANCH   6  13
BRANCH   5  15
ATOM     15  O   UNL     1      -6.749   3.861 126.445  0.00  0.00    +0.000 OA
BRANCH  15  16
ATOM     16  C   UNL     1      -7.220   2.944 125.480  0.00  0.00    +0.000 C 
ATOM     17  O   UNL     1      -8.569   3.269 125.300  0.00  0.00    +0.000 OA
ATOM     18  C   UNL     1      -9.240   2.376 124.421  0.00  0.00    +0.000 C 
ATOM     19  C   UNL     1      -8.591   2.377 123.017  0.00  0.00    +0.000 C 
ATOM     20  C   UNL     1      -7.120   1.963 123.064  0.00  0.00    +0.000 C 
ATOM     21  C   UNL     1      -6.454   2.900 124.073  0.00  0.00    +0.000 C 
BRANCH  20  22
ATOM     22  N   UNL     1      -6.912   0.542 123.397  0.00  0.00    +0.000 NA
ATOM     23  H   UNL     1      -7.469  -0.044 122.759  0.00  0.00    +0.000 HD
ATOM     24  H   UNL     1      -7.263   0.289 124.316  0.00  0.00    +0.000 HD
ENDBRANCH  20  22
BRANCH  19  25
ATOM     25  O   UNL     1      -8.703   3.700 122.445  0.00  0.00    +0.000 OA
ATOM     26  H   UNL     1      -7.932   3.861 121.871  0.00  0.00    +0.000 HD
ENDBRANCH  19  25
BRANCH  21  27
ATOM     27  O   UNL     1      -6.212   4.176 123.481  0.00  0.00    +0.000 OA
ATOM     28  H   UNL     1      -6.489   4.866 124.102  0.00  0.00    +0.000 HD
ENDBRANCH  21  27
BRANCH  18  29
ATOM     29  C   UNL     1      -9.481   0.998 125.095  0.00  0.00    +0.000 C 
BRANCH  29  30
ATOM     30  O   UNL     1      -9.746  -0.140 124.264  0.00  0.00    +0.000 OA
ATOM     31  H   UNL     1     -10.702  -0.300 124.180  0.00  0.00    +0.000 HD
ENDBRANCH  29  30
ENDBRANCH  18  29
ENDBRANCH  15  16
ENDBRANCH   5  15
BRANCH   1  32
ATOM     32  O   UNL     1      -7.646   5.179 129.333  0.00  0.00    +0.000 OA
BRANCH  32  35
ATOM     33  C   UNL     1     -10.005   7.084 129.550  0.00  0.00    +0.000 C 
ATOM     34  O   UNL     1      -8.855   7.260 130.351  0.00  0.00    +0.000 OA
ATOM     35  C   UNL     1      -8.260   5.945 130.488  0.00  0.00    +0.000 C 
ATOM     36  C   UNL     1      -9.446   5.156 131.005  0.00  0.00    +0.000 C 
ATOM     37  C   UNL     1     -10.543   4.860 130.028  0.00  0.00    +0.000 C 
ATOM     38  C   UNL     1     -11.191   6.181 129.982  0.00  0.00    +0.000 C 
BRANCH  38  39
ATOM     39  O   UNL     1     -12.187   6.031 128.984  0.00  0.00    +0.000 OA
ATOM     40  H   UNL     1     -11.865   5.334 128.373  0.00  0.00    +0.000 HD
ENDBRANCH  38  39
BRANCH  37  41
ATOM     41  O   UNL     1     -11.316   3.731 130.456  0.00  0.00    +0.000 OA
ATOM     42  H   UNL     1     -12.185   4.019 130.781  0.00  0.00    +0.000 HD
ENDBRANCH  37  41
BRANCH  36  43
ATOM     43  O   UNL     1      -8.815   3.954 130.978  0.00  0.00    +0.000 OA
ATOM     44  H   UNL     1      -9.084   3.644 130.102  0.00  0.00    +0.000 HD
ENDBRANCH  36  43
BRANCH  33  45
ATOM     45  C   UNL     1     -10.402   8.162 128.606  0.00  0.00    +0.000 C 
BRANCH  45  46
ATOM     46  N   UNL     1     -10.349   7.601 127.247  0.00  0.00    +0.000 NA
ATOM     47  H   UNL     1      -9.911   8.265 126.620  0.00  0.00    +0.000 HD
ATOM     48  H   UNL     1      -9.691   6.806 127.212  0.00  0.00    +0.000 HD
ENDBRANCH  45  46
ENDBRANCH  33  45
ENDBRANCH  32  35
ENDBRANCH   1  32
TORSDOF 17
ENDMDL
MODEL 8
REMARK VINA RESULT:      -7.3      3.117      6.152
REMARK  Name = Kanamycin
REMARK  17 active torsions:
REMARK  status: ('A' for Active; 'I' for Inactive)
REMARK    1  A    between atoms: N_1  and  C_2
REMARK    2  A    between atoms: C_2  and  C_3
REMARK    3  A    between atoms: C_5  and  O_6
REMARK    4  A    between atoms: O_6  and  C_7
REMARK    5  A    between atoms: C_8  and  N_9
REMARK    6  A    between atoms: C_11  and  N_12
REMARK    7  A    between atoms: C_13  and  O_14
REMARK    8  A    between atoms: O_14  and  C_15
REMARK    9  A    between atoms: C_17  and  C_18
REMARK   10  A    between atoms: C_18  and  O_19
REMARK   11  A    between atoms: C_20  and  O_21
REMARK   12  A    between atoms: C_22  and  N_23
REMARK   13  A    between atoms: C_24  and  O_25
REMARK   14  A    between atoms: C_26  and  O_27
REMARK   15  A    between atoms: C_28  and  O_29
REMARK   16  A    between atoms: C_30  and  O_31
REMARK   17  A    between atoms: C_32  and  O_33
REMARK                            x       y       z     vdW  Elec       q    Type
REMARK                         _______ _______ _______ _____ _____    ______ ____
ROOT
ATOM      1  C   UNL     1      -8.775   3.910 129.519  0.00  0.00    +0.000 C 
ATOM      2  C   UNL     1     -10.239   4.717 129.989  0.00  0.00    +0.000 C 
ATOM      3  C   UNL     1     -10.046   6.289 130.703  0.00  0.00    +0.000 C 
ATOM      4  C   UNL     1      -8.725   6.380 131.523  0.00  0.00    +0.000 C 
ATOM      5  C   UNL     1      -7.442   5.444 131.175  0.00  0.00    +0.000 C 
ATOM      6  C   UNL     1      -7.780   3.990 130.711  0.00  0.00    +0.000 C 
ENDROOT
BRANCH   2   7
ATOM      7  N   UNL     1     -11.150   4.054 130.913  0.00  0.00    +0.000 NA
ATOM      8  H   UNL     1     -10.993   4.314 131.871  0.00  0.00    +0.000 HD
ATOM      9  H   UNL     1     -11.127   3.044 130.819  0.00  0.00    +0.000 HD
ENDBRANCH   2   7
BRANCH   4  10
ATOM     10  N   UNL     1      -9.293   6.204 132.849  0.00  0.00    +0.000 NA
ATOM     11  H   UNL     1      -9.922   6.976 133.017  0.00  0.00    +0.000 HD
ATOM     12  H   UNL     1      -8.526   6.393 133.508  0.00  0.00    +0.000 HD
ENDBRANCH   4  10
BRANCH   6  13
ATOM     13  O   UNL     1      -8.306   3.239 131.816  0.00  0.00    +0.000 OA
ATOM     14  H   UNL     1      -7.761   3.439 132.585  0.00  0.00    +0.000 HD
ENDBRANCH   6  13
BRANCH   5  15
ATOM     15  O   UNL     1      -6.390   5.880 130.264  0.00  0.00    +0.000 OA
BRANCH  15  16
ATOM     16  C   UNL     1      -5.041   6.014 130.663  0.00  0.00    +0.000 C 
ATOM     17  O   UNL     1      -4.353   5.027 129.949  0.00  0.00    +0.000 OA
ATOM     18  C   UNL     1      -2.979   4.948 130.300  0.00  0.00    +0.000 C 
ATOM     19  C   UNL     1      -2.251   6.285 130.024  0.00  0.00    +0.000 C 
ATOM     20  C   UNL     1      -2.865   7.445 130.811  0.00  0.00    +0.000 C 
ATOM     21  C   UNL     1      -4.354   7.447 130.459  0.00  0.00    +0.000 C 
BRANCH  20  22
ATOM     22  N   UNL     1      -2.632   7.368 132.264  0.00  0.00    +0.000 NA
ATOM     23  H   UNL     1      -2.630   6.382 132.558  0.00  0.00    +0.000 HD
ATOM     24  H   UNL     1      -3.383   7.777 132.813  0.00  0.00    +0.000 HD
ENDBRANCH  20  22
BRANCH  19  25
ATOM     25  O   UNL     1      -2.312   6.574 128.610  0.00  0.00    +0.000 OA
ATOM     26  H   UNL     1      -2.496   5.746 128.128  0.00  0.00    +0.000 HD
ENDBRANCH  19  25
BRANCH  21  27
ATOM     27  O   UNL     1      -4.560   8.035 129.175  0.00  0.00    +0.000 OA
ATOM     28  H   UNL     1      -3.867   8.694 129.019  0.00  0.00    +0.000 HD
ENDBRANCH  21  27
BRANCH  18  29
ATOM     29  C   UNL     1      -2.792   4.310 131.703  0.00  0.00    +0.000 C 
BRANCH  29  30
ATOM     30  O   UNL     1      -1.567   4.543 132.411  0.00  0.00    +0.000 OA
ATOM     31  H   UNL     1      -0.806   4.176 131.929  0.00  0.00    +0.000 HD
ENDBRANCH  29  30
ENDBRANCH  18  29
ENDBRANCH  15  16
ENDBRANCH   5  15
BRANCH   1  32
ATOM     32  O   UNL     1      -8.164   4.154 128.084  0.00  0.00    +0.000 OA
BRANCH  32  35
ATOM     33  C   UNL     1      -7.648   2.480 125.600  0.00  0.00    +0.000 C 
ATOM     34  O   UNL     1      -7.138   2.087 126.857  0.00  0.00    +0.000 OA
ATOM     35  C   UNL     1      -6.993   3.308 127.626  0.00  0.00    +0.000 C 
ATOM     36  C   UNL     1      -6.149   4.134 126.678  0.00  0.00    +0.000 C 
ATOM     37  C   UNL     1      -6.828   4.664 125.450  0.00  0.00    +0.000 C 
ATOM     38  C   UNL     1      -6.875   3.431 124.647  0.00  0.00    +0.000 C 
BRANCH  38  39
ATOM     39  O   UNL     1      -7.612   3.809 123.497  0.00  0.00    +0.000 OA
ATOM     40  H   UNL     1      -7.955   4.712 123.671  0.00  0.00    +0.000 HD
ENDBRANCH  38  39
BRANCH  37  41
ATOM     41  O   UNL     1      -6.124   5.798 124.928  0.00  0.00    +0.000 OA
ATOM     42  H   UNL     1      -6.391   6.608 125.393  0.00  0.00    +0.000 HD
ENDBRANCH  37  41
BRANCH  36  43
ATOM     43  O   UNL     1      -6.182   5.261 127.434  0.00  0.00    +0.000 OA
ATOM     44  H   UNL     1      -5.363   5.684 127.140  0.00  0.00    +0.000 HD
ENDBRANCH  36  43
BRANCH  33  45
ATOM     45  C   UNL     1      -8.594   1.581 124.888  0.00  0.00    +0.000 C 
BRANCH  45  46
ATOM     46  N   UNL     1      -9.823   2.347 124.630  0.00  0.00    +0.000 NA
ATOM     47  H   UNL     1     -10.421   1.831 123.995  0.00  0.00    +0.000 HD
ATOM     48  H   UNL     1     -10.404   2.391 125.482  0.00  0.00    +0.000 HD
ENDBRANCH  45  46
ENDBRANCH  33  45
ENDBRANCH  32  35
ENDBRANCH   1  32
TORSDOF 17
ENDMDL
MODEL 9
REMARK VINA RESULT:      -7.3      1.560      2.397
REMARK  Name = Kanamycin
REMARK  17 active torsions:
REMARK  status: ('A' for Active; 'I' for Inactive)
REMARK    1  A    between atoms: N_1  and  C_2
REMARK    2  A    between atoms: C_2  and  C_3
REMARK    3  A    between atoms: C_5  and  O_6
REMARK    4  A    between atoms: O_6  and  C_7
REMARK    5  A    between atoms: C_8  and  N_9
REMARK    6  A    between atoms: C_11  and  N_12
REMARK    7  A    between atoms: C_13  and  O_14
REMARK    8  A    between atoms: O_14  and  C_15
REMARK    9  A    between atoms: C_17  and  C_18
REMARK   10  A    between atoms: C_18  and  O_19
REMARK   11  A    between atoms: C_20  and  O_21
REMARK   12  A    between atoms: C_22  and  N_23
REMARK   13  A    between atoms: C_24  and  O_25
REMARK   14  A    between atoms: C_26  and  O_27
REMARK   15  A    between atoms: C_28  and  O_29
REMARK   16  A    between atoms: C_30  and  O_31
REMARK   17  A    between atoms: C_32  and  O_33
REMARK                            x       y       z     vdW  Elec       q    Type
REMARK                         _______ _______ _______ _____ _____    ______ ____
ROOT
ATOM      1  C   UNL     1      -9.386   3.541 130.840  0.00  0.00    +0.000 C 
ATOM      2  C   UNL     1      -7.986   3.960 131.778  0.00  0.00    +0.000 C 
ATOM      3  C   UNL     1      -6.458   3.839 130.959  0.00  0.00    +0.000 C 
ATOM      4  C   UNL     1      -6.467   2.687 129.912  0.00  0.00    +0.000 C 
ATOM      5  C   UNL     1      -7.845   2.184 129.211  0.00  0.00    +0.000 C 
ATOM      6  C   UNL     1      -9.105   2.184 130.138  0.00  0.00    +0.000 C 
ENDROOT
BRANCH   2   7
ATOM      7  N   UNL     1      -7.735   3.258 133.030  0.00  0.00    +0.000 NA
ATOM      8  H   UNL     1      -8.143   2.340 133.053  0.00  0.00    +0.000 HD
ATOM      9  H   UNL     1      -8.037   3.792 133.838  0.00  0.00    +0.000 HD
ENDBRANCH   2   7
BRANCH   4  10
ATOM     10  N   UNL     1      -5.757   1.690 130.696  0.00  0.00    +0.000 NA
ATOM     11  H   UNL     1      -4.823   1.614 130.322  0.00  0.00    +0.000 HD
ATOM     12  H   UNL     1      -6.174   0.786 130.440  0.00  0.00    +0.000 HD
ENDBRANCH   4  10
BRANCH   6  13
ATOM     13  O   UNL     1      -8.976   1.156 131.132  0.00  0.00    +0.000 OA
ATOM     14  H   UNL     1      -8.558   1.553 131.904  0.00  0.00    +0.000 HD
ENDBRANCH   6  13
BRANCH   5  15
ATOM     15  O   UNL     1      -8.321   2.741 127.951  0.00  0.00    +0.000 OA
BRANCH  15  16
ATOM     16  C   UNL     1      -8.230   2.044 126.725  0.00  0.00    +0.000 C 
ATOM     17  O   UNL     1      -9.355   1.213 126.698  0.00  0.00    +0.000 OA
ATOM     18  C   UNL     1      -9.381   0.354 125.566  0.00  0.00    +0.000 C 
ATOM     19  C   UNL     1      -9.394   1.164 124.248  0.00  0.00    +0.000 C 
ATOM     20  C   UNL     1      -8.167   2.068 124.117  0.00  0.00    +0.000 C 
ATOM     21  C   UNL     1      -8.139   2.921 125.387  0.00  0.00    +0.000 C 
BRANCH  20  22
ATOM     22  N   UNL     1      -6.906   1.334 123.907  0.00  0.00    +0.000 NA
ATOM     23  H   UNL     1      -6.463   1.147 124.817  0.00  0.00    +0.000 HD
ATOM     24  H   UNL     1      -6.204   1.876 123.410  0.00  0.00    +0.000 HD
ENDBRANCH  20  22
BRANCH  19  25
ATOM     25  O   UNL     1     -10.594   1.967 124.198  0.00  0.00    +0.000 OA
ATOM     26  H   UNL     1     -10.818   2.254 125.103  0.00  0.00    +0.000 HD
ENDBRANCH  19  25
BRANCH  21  27
ATOM     27  O   UNL     1      -9.092   3.979 125.296  0.00  0.00    +0.000 OA
ATOM     28  H   UNL     1      -8.815   4.699 125.881  0.00  0.00    +0.000 HD
ENDBRANCH  21  27
BRANCH  18  29
ATOM     29  C   UNL     1      -8.328  -0.780 125.696  0.00  0.00    +0.000 C 
BRANCH  29  30
ATOM     30  O   UNL     1      -8.415  -1.678 126.811  0.00  0.00    +0.000 OA
ATOM     31  H   UNL     1      -7.770  -1.448 127.501  0.00  0.00    +0.000 HD
ENDBRANCH  29  30
ENDBRANCH  18  29
ENDBRANCH  15  16
ENDBRANCH   5  15
BRANCH   1  32
ATOM     32  O   UNL     1     -10.110   4.641 129.968  0.00  0.00    +0.000 OA
BRANCH  32  35
ATOM     33  C   UNL     1     -10.793   7.181 128.445  0.00  0.00    +0.000 C 
ATOM     34  O   UNL     1      -9.527   7.017 129.048  0.00  0.00    +0.000 OA
ATOM     35  C   UNL     1      -9.728   6.097 130.150  0.00  0.00    +0.000 C 
ATOM     36  C   UNL     1     -10.850   6.794 130.892  0.00  0.00    +0.000 C 
ATOM     37  C   UNL     1     -12.208   6.760 130.257  0.00  0.00    +0.000 C 
ATOM     38  C   UNL     1     -12.009   7.772 129.206  0.00  0.00    +0.000 C 
BRANCH  38  39
ATOM     39  O   UNL     1     -13.219   7.731 128.469  0.00  0.00    +0.000 OA
ATOM     40  H   UNL     1     -13.929   7.519 129.113  0.00  0.00    +0.000 HD
ENDBRANCH  38  39
BRANCH  37  41
ATOM     41  O   UNL     1     -13.233   6.978 131.235  0.00  0.00    +0.000 OA
ATOM     42  H   UNL     1     -13.771   7.752 130.996  0.00  0.00    +0.000 HD
ENDBRANCH  37  41
BRANCH  36  43
ATOM     43  O   UNL     1     -11.026   5.805 131.806  0.00  0.00    +0.000 OA
ATOM     44  H   UNL     1     -11.457   6.305 132.513  0.00  0.00    +0.000 HD
ENDBRANCH  36  43
BRANCH  33  45
ATOM     45  C   UNL     1     -10.875   7.373 126.972  0.00  0.00    +0.000 C 
BRANCH  45  46
ATOM     46  N   UNL     1      -9.880   6.483 126.354  0.00  0.00    +0.000 NA
ATOM     47  H   UNL     1     -10.246   6.110 125.487  0.00  0.00    +0.000 HD
ATOM     48  H   UNL     1      -9.066   7.028 126.025  0.00  0.00    +0.000 HD
ENDBRANCH  45  46
ENDBRANCH  33  45
ENDBRANCH  32  35
ENDBRANCH   1  32
TORSDOF 17
ENDMDL
