MODEL 1
REMARK VINA RESULT:      -6.7      0.000      0.000
REMARK  Name = Kava
REMARK  4 active torsions:
REMARK  status: ('A' for Active; 'I' for Inactive)
REMARK    1  A    between atoms: C_1  and  O_2
REMARK    2  A    between atoms: O_2  and  C_3
REMARK    3  A    between atoms: C_8  and  C_10
REMARK    4  A    between atoms: C_11  and  C_12
REMARK                            x       y       z     vdW  Elec       q    Type
REMARK                         _______ _______ _______ _____ _____    ______ ____
ROOT
ATOM      1  C   UNL     1      -8.997  -0.573 124.660  0.00  0.00    +0.000 C 
ATOM      2  C   UNL     1      -9.322   0.019 125.814  0.00  0.00    +0.000 C 
ATOM      3  C   UNL     1      -8.822   1.363 126.151  0.00  0.00    +0.000 C 
ATOM      4  O   UNL     1      -8.879   1.777 127.300  0.00  0.00    +0.000 OA
ATOM      5  O   UNL     1      -8.259   2.079 125.146  0.00  0.00    +0.000 OA
ATOM      6  C   UNL     1      -8.512   1.685 123.786  0.00  0.00    +0.000 C 
ATOM      7  C   UNL     1      -8.271   0.187 123.596  0.00  0.00    +0.000 C 
ENDROOT
BRANCH   1   9
ATOM      8  C   UNL     1      -8.491  -2.658 123.676  0.00  0.00    +0.000 C 
ATOM      9  O   UNL     1      -9.433  -1.857 124.392  0.00  0.00    +0.000 OA
ENDBRANCH   1   9
BRANCH   6  10
ATOM     10  C   UNL     1      -7.605   2.484 122.890  0.00  0.00    +0.000 C 
ATOM     11  C   UNL     1      -8.000   3.046 121.738  0.00  0.00    +0.000 C 
BRANCH  11  12
ATOM     12  C   UNL     1      -7.124   3.834 120.887  0.00  0.00    +0.000 C 
ATOM     13  C   UNL     1      -7.597   4.211 119.682  0.00  0.00    +0.000 C 
ATOM     14  C   UNL     1      -6.760   4.931 118.663  0.00  0.00    +0.000 C 
ATOM     15  C   UNL     1      -5.517   5.623 119.239  0.00  0.00    +0.000 C 
ATOM     16  C   UNL     1      -4.977   4.952 120.467  0.00  0.00    +0.000 C 
ATOM     17  C   UNL     1      -5.729   4.125 121.208  0.00  0.00    +0.000 C 
ENDBRANCH  11  12
ENDBRANCH   6  10
TORSDOF 3
ENDMDL
MODEL 2
REMARK VINA RESULT:      -6.5      9.162     10.297
REMARK  Name = Kava
REMARK  4 active torsions:
REMARK  status: ('A' for Active; 'I' for Inactive)
REMARK    1  A    between atoms: C_1  and  O_2
REMARK    2  A    between atoms: O_2  and  C_3
REMARK    3  A    between atoms: C_8  and  C_10
REMARK    4  A    between atoms: C_11  and  C_12
REMARK                            x       y       z     vdW  Elec       q    Type
REMARK                         _______ _______ _______ _____ _____    ______ ____
ROOT
ATOM      1  C   UNL     1      -8.926   3.381 133.097  0.00  0.00    +0.000 C 
ATOM      2  C   UNL     1      -8.262   4.017 134.068  0.00  0.00    +0.000 C 
ATOM      3  C   UNL     1      -8.127   5.483 134.066  0.00  0.00    +0.000 C 
ATOM      4  O   UNL     1      -7.298   6.032 134.777  0.00  0.00    +0.000 OA
ATOM      5  O   UNL     1      -8.923   6.174 133.211  0.00  0.00    +0.000 OA
ATOM      6  C   UNL     1     -10.078   5.520 132.657  0.00  0.00    +0.000 C 
ATOM      7  C   UNL     1      -9.710   4.151 132.082  0.00  0.00    +0.000 C 
ENDROOT
BRANCH   1   9
ATOM      8  C   UNL     1      -9.712   1.451 131.986  0.00  0.00    +0.000 C 
ATOM      9  O   UNL     1      -8.991   2.000 133.090  0.00  0.00    +0.000 OA
ENDBRANCH   1   9
BRANCH   6  10
ATOM     10  C   UNL     1     -10.648   6.407 131.583  0.00  0.00    +0.000 C 
ATOM     11  C   UNL     1     -11.823   6.182 130.975  0.00  0.00    +0.000 C 
BRANCH  11  12
ATOM     12  C   UNL     1     -12.379   7.053 129.953  0.00  0.00    +0.000 C 
ATOM     13  C   UNL     1     -12.924   6.473 128.866  0.00  0.00    +0.000 C 
ATOM     14  C   UNL     1     -13.433   7.255 127.688  0.00  0.00    +0.000 C 
ATOM     15  C   UNL     1     -13.732   8.730 127.990  0.00  0.00    +0.000 C 
ATOM     16  C   UNL     1     -12.884   9.296 129.090  0.00  0.00    +0.000 C 
ATOM     17  C   UNL     1     -12.262   8.508 129.980  0.00  0.00    +0.000 C 
ENDBRANCH  11  12
ENDBRANCH   6  10
TORSDOF 3
ENDMDL
MODEL 3
REMARK VINA RESULT:      -6.5      1.066      2.604
REMARK  Name = Kava
REMARK  4 active torsions:
REMARK  status: ('A' for Active; 'I' for Inactive)
REMARK    1  A    between atoms: C_1  and  O_2
REMARK    2  A    between atoms: O_2  and  C_3
REMARK    3  A    between atoms: C_8  and  C_10
REMARK    4  A    between atoms: C_11  and  C_12
REMARK                            x       y       z     vdW  Elec       q    Type
REMARK                         _______ _______ _______ _____ _____    ______ ____
ROOT
ATOM      1  C   UNL     1      -8.812   1.199 126.238  0.00  0.00    +0.000 C 
ATOM      2  C   UNL     1      -9.058  -0.109 126.102  0.00  0.00    +0.000 C 
ATOM      3  C   UNL     1      -8.895  -0.785 124.804  0.00  0.00    +0.000 C 
ATOM      4  O   UNL     1      -9.383  -1.890 124.613  0.00  0.00    +0.000 OA
ATOM      5  O   UNL     1      -8.232  -0.105 123.835  0.00  0.00    +0.000 OA
ATOM      6  C   UNL     1      -7.417   1.019 124.209  0.00  0.00    +0.000 C 
ATOM      7  C   UNL     1      -8.187   1.974 125.123  0.00  0.00    +0.000 C 
ENDROOT
BRANCH   1   9
ATOM      8  C   UNL     1      -8.171   1.368 128.504  0.00  0.00    +0.000 C 
ATOM      9  O   UNL     1      -9.027   1.822 127.453  0.00  0.00    +0.000 OA
ENDBRANCH   1   9
BRANCH   6  10
ATOM     10  C   UNL     1      -6.985   1.724 122.952  0.00  0.00    +0.000 C 
ATOM     11  C   UNL     1      -7.135   3.041 122.746  0.00  0.00    +0.000 C 
BRANCH  11  12
ATOM     12  C   UNL     1      -6.697   3.721 121.539  0.00  0.00    +0.000 C 
ATOM     13  C   UNL     1      -7.571   3.804 120.516  0.00  0.00    +0.000 C 
ATOM     14  C   UNL     1      -7.211   4.379 119.175  0.00  0.00    +0.000 C 
ATOM     15  C   UNL     1      -5.972   5.286 119.188  0.00  0.00    +0.000 C 
ATOM     16  C   UNL     1      -4.983   4.927 120.257  0.00  0.00    +0.000 C 
ATOM     17  C   UNL     1      -5.333   4.199 121.328  0.00  0.00    +0.000 C 
ENDBRANCH  11  12
ENDBRANCH   6  10
TORSDOF 3
ENDMDL
MODEL 4
REMARK VINA RESULT:      -6.5      8.080     10.354
REMARK  Name = Kava
REMARK  4 active torsions:
REMARK  status: ('A' for Active; 'I' for Inactive)
REMARK    1  A    between atoms: C_1  and  O_2
REMARK    2  A    between atoms: O_2  and  C_3
REMARK    3  A    between atoms: C_8  and  C_10
REMARK    4  A    between atoms: C_11  and  C_12
REMARK                            x       y       z     vdW  Elec       q    Type
REMARK                         _______ _______ _______ _____ _____    ______ ____
ROOT
ATOM      1  C   UNL     1     -11.749   6.769 128.579  0.00  0.00    +0.000 C 
ATOM      2  C   UNL     1     -12.734   7.129 129.409  0.00  0.00    +0.000 C 
ATOM      3  C   UNL     1     -12.555   7.083 130.870  0.00  0.00    +0.000 C 
ATOM      4  O   UNL     1     -13.522   7.134 131.616  0.00  0.00    +0.000 OA
ATOM      5  O   UNL     1     -11.288   6.932 131.331  0.00  0.00    +0.000 OA
ATOM      6  C   UNL     1     -10.190   7.204 130.443  0.00  0.00    +0.000 C 
ATOM      7  C   UNL     1     -10.377   6.489 129.104  0.00  0.00    +0.000 C 
ENDROOT
BRANCH   1   9
ATOM      8  C   UNL     1     -11.017   7.544 126.472  0.00  0.00    +0.000 C 
ATOM      9  O   UNL     1     -11.960   6.767 127.212  0.00  0.00    +0.000 OA
ENDBRANCH   1   9
BRANCH   6  10
ATOM     10  C   UNL     1      -8.922   6.747 131.112  0.00  0.00    +0.000 C 
ATOM     11  C   UNL     1      -7.695   7.125 130.723  0.00  0.00    +0.000 C 
BRANCH  11  12
ATOM     12  C   UNL     1      -6.474   6.697 131.387  0.00  0.00    +0.000 C 
ATOM     13  C   UNL     1      -6.598   5.986 132.525  0.00  0.00    +0.000 C 
ATOM     14  C   UNL     1      -5.422   5.579 133.367  0.00  0.00    +0.000 C 
ATOM     15  C   UNL     1      -4.077   5.597 132.628  0.00  0.00    +0.000 C 
ATOM     16  C   UNL     1      -4.023   6.602 131.516  0.00  0.00    +0.000 C 
ATOM     17  C   UNL     1      -5.138   7.104 130.962  0.00  0.00    +0.000 C 
ENDBRANCH  11  12
ENDBRANCH   6  10
TORSDOF 3
ENDMDL
MODEL 5
REMARK VINA RESULT:      -6.3      7.539     10.214
REMARK  Name = Kava
REMARK  4 active torsions:
REMARK  status: ('A' for Active; 'I' for Inactive)
REMARK    1  A    between atoms: C_1  and  O_2
REMARK    2  A    between atoms: O_2  and  C_3
REMARK    3  A    between atoms: C_8  and  C_10
REMARK    4  A    between atoms: C_11  and  C_12
REMARK                            x       y       z     vdW  Elec       q    Type
REMARK                         _______ _______ _______ _____ _____    ______ ____
ROOT
ATOM      1  C   UNL     1     -11.213   7.726 128.957  0.00  0.00    +0.000 C 
ATOM      2  C   UNL     1     -12.114   8.050 129.892  0.00  0.00    +0.000 C 
ATOM      3  C   UNL     1     -12.399   7.151 131.022  0.00  0.00    +0.000 C 
ATOM      4  O   UNL     1     -13.402   7.308 131.703  0.00  0.00    +0.000 OA
ATOM      5  O   UNL     1     -11.532   6.129 131.229  0.00  0.00    +0.000 OA
ATOM      6  C   UNL     1     -10.230   6.189 130.621  0.00  0.00    +0.000 C 
ATOM      7  C   UNL     1     -10.335   6.528 129.134  0.00  0.00    +0.000 C 
ENDROOT
BRANCH   1   9
ATOM      8  C   UNL     1     -10.961   7.888 126.616  0.00  0.00    +0.000 C 
ATOM      9  O   UNL     1     -11.004   8.561 127.876  0.00  0.00    +0.000 OA
ENDBRANCH   1   9
BRANCH   6  10
ATOM     10  C   UNL     1      -9.561   4.855 130.812  0.00  0.00    +0.000 C 
ATOM     11  C   UNL     1     -10.148   3.680 130.542  0.00  0.00    +0.000 C 
BRANCH  11  12
ATOM     12  C   UNL     1      -9.490   2.395 130.708  0.00  0.00    +0.000 C 
ATOM     13  C   UNL     1      -8.651   1.991 129.734  0.00  0.00    +0.000 C 
ATOM     14  C   UNL     1      -7.994   0.640 129.727  0.00  0.00    +0.000 C 
ATOM     15  C   UNL     1      -7.950  -0.050 131.098  0.00  0.00    +0.000 C 
ATOM     16  C   UNL     1      -9.082   0.344 131.998  0.00  0.00    +0.000 C 
ATOM     17  C   UNL     1      -9.786   1.470 131.799  0.00  0.00    +0.000 C 
ENDBRANCH  11  12
ENDBRANCH   6  10
TORSDOF 3
ENDMDL
MODEL 6
REMARK VINA RESULT:      -6.3      8.678     10.242
REMARK  Name = Kava
REMARK  4 active torsions:
REMARK  status: ('A' for Active; 'I' for Inactive)
REMARK    1  A    between atoms: C_1  and  O_2
REMARK    2  A    between atoms: O_2  and  C_3
REMARK    3  A    between atoms: C_8  and  C_10
REMARK    4  A    between atoms: C_11  and  C_12
REMARK                            x       y       z     vdW  Elec       q    Type
REMARK                         _______ _______ _______ _____ _____    ______ ____
ROOT
ATOM      1  C   UNL     1     -11.140   7.031 129.725  0.00  0.00    +0.000 C 
ATOM      2  C   UNL     1     -11.715   5.831 129.863  0.00  0.00    +0.000 C 
ATOM      3  C   UNL     1     -10.962   4.678 130.384  0.00  0.00    +0.000 C 
ATOM      4  O   UNL     1     -11.390   3.542 130.244  0.00  0.00    +0.000 OA
ATOM      5  O   UNL     1      -9.766   4.938 130.969  0.00  0.00    +0.000 OA
ATOM      6  C   UNL     1      -9.477   6.283 131.390  0.00  0.00    +0.000 C 
ATOM      7  C   UNL     1      -9.770   7.282 130.269  0.00  0.00    +0.000 C 
ENDROOT
BRANCH   1   9
ATOM      8  C   UNL     1     -11.488   8.404 127.837  0.00  0.00    +0.000 C 
ATOM      9  O   UNL     1     -11.852   8.083 129.181  0.00  0.00    +0.000 OA
ENDBRANCH   1   9
BRANCH   6  10
ATOM     10  C   UNL     1      -8.027   6.348 131.788  0.00  0.00    +0.000 C 
ATOM     11  C   UNL     1      -7.051   6.792 130.983  0.00  0.00    +0.000 C 
BRANCH  11  12
ATOM     12  C   UNL     1      -5.655   6.873 131.381  0.00  0.00    +0.000 C 
ATOM     13  C   UNL     1      -4.802   7.497 130.545  0.00  0.00    +0.000 C 
ATOM     14  C   UNL     1      -3.319   7.554 130.781  0.00  0.00    +0.000 C 
ATOM     15  C   UNL     1      -2.898   7.287 132.233  0.00  0.00    +0.000 C 
ATOM     16  C   UNL     1      -3.847   6.391 132.972  0.00  0.00    +0.000 C 
ATOM     17  C   UNL     1      -5.110   6.206 132.560  0.00  0.00    +0.000 C 
ENDBRANCH  11  12
ENDBRANCH   6  10
TORSDOF 3
ENDMDL
MODEL 7
REMARK VINA RESULT:      -6.3      2.455      7.037
REMARK  Name = Kava
REMARK  4 active torsions:
REMARK  status: ('A' for Active; 'I' for Inactive)
REMARK    1  A    between atoms: C_1  and  O_2
REMARK    2  A    between atoms: O_2  and  C_3
REMARK    3  A    between atoms: C_8  and  C_10
REMARK    4  A    between atoms: C_11  and  C_12
REMARK                            x       y       z     vdW  Elec       q    Type
REMARK                         _______ _______ _______ _____ _____    ______ ____
ROOT
ATOM      1  C   UNL     1      -6.248   3.434 121.144  0.00  0.00    +0.000 C 
ATOM      2  C   UNL     1      -7.209   4.110 120.503  0.00  0.00    +0.000 C 
ATOM      3  C   UNL     1      -8.621   3.704 120.599  0.00  0.00    +0.000 C 
ATOM      4  O   UNL     1      -9.446   4.133 119.805  0.00  0.00    +0.000 OA
ATOM      5  O   UNL     1      -8.940   2.807 121.565  0.00  0.00    +0.000 OA
ATOM      6  C   UNL     1      -8.018   2.598 122.649  0.00  0.00    +0.000 C 
ATOM      7  C   UNL     1      -6.600   2.362 122.125  0.00  0.00    +0.000 C 
ENDROOT
BRANCH   1   9
ATOM      8  C   UNL     1      -4.511   4.873 121.840  0.00  0.00    +0.000 C 
ATOM      9  O   UNL     1      -4.924   3.800 120.992  0.00  0.00    +0.000 OA
ENDBRANCH   1   9
BRANCH   6  10
ATOM     10  C   UNL     1      -8.491   1.411 123.444  0.00  0.00    +0.000 C 
ATOM     11  C   UNL     1      -7.906   0.204 123.402  0.00  0.00    +0.000 C 
BRANCH  11  12
ATOM     12  C   UNL     1      -8.355  -0.934 124.188  0.00  0.00    +0.000 C 
ATOM     13  C   UNL     1      -8.730  -2.044 123.523  0.00  0.00    +0.000 C 
ATOM     14  C   UNL     1      -9.317  -3.248 124.204  0.00  0.00    +0.000 C 
ATOM     15  C   UNL     1      -9.023  -3.329 125.709  0.00  0.00    +0.000 C 
ATOM     16  C   UNL     1      -8.842  -1.987 126.353  0.00  0.00    +0.000 C 
ATOM     17  C   UNL     1      -8.542  -0.894 125.636  0.00  0.00    +0.000 C 
ENDBRANCH  11  12
ENDBRANCH   6  10
TORSDOF 3
ENDMDL
MODEL 8
REMARK VINA RESULT:      -6.2      9.657     10.558
REMARK  Name = Kava
REMARK  4 active torsions:
REMARK  status: ('A' for Active; 'I' for Inactive)
REMARK    1  A    between atoms: C_1  and  O_2
REMARK    2  A    between atoms: O_2  and  C_3
REMARK    3  A    between atoms: C_8  and  C_10
REMARK    4  A    between atoms: C_11  and  C_12
REMARK                            x       y       z     vdW  Elec       q    Type
REMARK                         _______ _______ _______ _____ _____    ______ ____
ROOT
ATOM      1  C   UNL     1      -6.204   6.268 132.065  0.00  0.00    +0.000 C 
ATOM      2  C   UNL     1      -6.516   5.670 133.220  0.00  0.00    +0.000 C 
ATOM      3  C   UNL     1      -7.882   5.730 133.766  0.00  0.00    +0.000 C 
ATOM      4  O   UNL     1      -8.098   5.438 134.934  0.00  0.00    +0.000 OA
ATOM      5  O   UNL     1      -8.859   6.168 132.934  0.00  0.00    +0.000 OA
ATOM      6  C   UNL     1      -8.610   6.180 131.517  0.00  0.00    +0.000 C 
ATOM      7  C   UNL     1      -7.274   6.856 131.202  0.00  0.00    +0.000 C 
ENDROOT
BRANCH   1   9
ATOM      8  C   UNL     1      -4.562   7.344 130.754  0.00  0.00    +0.000 C 
ATOM      9  O   UNL     1      -4.902   6.245 131.602  0.00  0.00    +0.000 OA
ENDBRANCH   1   9
BRANCH   6  10
ATOM     10  C   UNL     1      -9.742   6.912 130.848  0.00  0.00    +0.000 C 
ATOM     11  C   UNL     1     -10.615   6.331 130.012  0.00  0.00    +0.000 C 
BRANCH  11  12
ATOM     12  C   UNL     1     -11.720   7.039 129.385  0.00  0.00    +0.000 C 
ATOM     13  C   UNL     1     -11.716   8.385 129.448  0.00  0.00    +0.000 C 
ATOM     14  C   UNL     1     -12.849   9.231 128.941  0.00  0.00    +0.000 C 
ATOM     15  C   UNL     1     -13.767   8.523 127.935  0.00  0.00    +0.000 C 
ATOM     16  C   UNL     1     -13.833   7.038 128.133  0.00  0.00    +0.000 C 
ATOM     17  C   UNL     1     -12.885   6.372 128.810  0.00  0.00    +0.000 C 
ENDBRANCH  11  12
ENDBRANCH   6  10
TORSDOF 3
ENDMDL
MODEL 9
REMARK VINA RESULT:      -6.1      8.325     11.634
REMARK  Name = Kava
REMARK  4 active torsions:
REMARK  status: ('A' for Active; 'I' for Inactive)
REMARK    1  A    between atoms: C_1  and  O_2
REMARK    2  A    between atoms: O_2  and  C_3
REMARK    3  A    between atoms: C_8  and  C_10
REMARK    4  A    between atoms: C_11  and  C_12
REMARK                            x       y       z     vdW  Elec       q    Type
REMARK                         _______ _______ _______ _____ _____    ______ ____
ROOT
ATOM      1  C   UNL     1     -10.816   6.613 128.902  0.00  0.00    +0.000 C 
ATOM      2  C   UNL     1     -11.918   7.051 129.522  0.00  0.00    +0.000 C 
ATOM      3  C   UNL     1     -12.071   6.930 130.982  0.00  0.00    +0.000 C 
ATOM      4  O   UNL     1     -13.169   7.062 131.504  0.00  0.00    +0.000 OA
ATOM      5  O   UNL     1     -10.960   6.617 131.694  0.00  0.00    +0.000 OA
ATOM      6  C   UNL     1      -9.671   6.796 131.082  0.00  0.00    +0.000 C 
ATOM      7  C   UNL     1      -9.631   6.158 129.692  0.00  0.00    +0.000 C 
ENDROOT
BRANCH   1   9
ATOM      8  C   UNL     1     -11.081   7.957 126.979  0.00  0.00    +0.000 C 
ATOM      9  O   UNL     1     -10.720   6.687 127.525  0.00  0.00    +0.000 OA
ENDBRANCH   1   9
BRANCH   6  10
ATOM     10  C   UNL     1      -8.636   6.172 131.978  0.00  0.00    +0.000 C 
ATOM     11  C   UNL     1      -8.890   5.735 133.221  0.00  0.00    +0.000 C 
BRANCH  11  12
ATOM     12  C   UNL     1      -7.891   5.114 134.075  0.00  0.00    +0.000 C 
ATOM     13  C   UNL     1      -7.363   3.942 133.669  0.00  0.00    +0.000 C 
ATOM     14  C   UNL     1      -6.407   3.141 134.507  0.00  0.00    +0.000 C 
ATOM     15  C   UNL     1      -5.708   3.945 135.612  0.00  0.00    +0.000 C 
ATOM     16  C   UNL     1      -6.523   5.099 136.114  0.00  0.00    +0.000 C 
ATOM     17  C   UNL     1      -7.530   5.620 135.396  0.00  0.00    +0.000 C 
ENDBRANCH  11  12
ENDBRANCH   6  10
TORSDOF 3
ENDMDL
