MODEL 1
REMARK VINA RESULT:      -6.2      0.000      0.000
REMARK  Name = Ketamine
REMARK  3 active torsions:
REMARK  status: ('A' for Active; 'I' for Inactive)
REMARK    1  A    between atoms: C_1  and  N_2
REMARK    2  A    between atoms: N_2  and  C_3
REMARK    3  A    between atoms: C_3  and  C_10
REMARK                            x       y       z     vdW  Elec       q    Type
REMARK                         _______ _______ _______ _____ _____    ______ ____
ROOT
ATOM      1  C   UNL     1      -8.107  -1.155 124.513  0.00  0.00    +0.000 C 
ATOM      2  C   UNL     1      -6.981  -1.531 125.569  0.00  0.00    +0.000 C 
ATOM      3  C   UNL     1      -5.548  -1.436 125.007  0.00  0.00    +0.000 C 
ATOM      4  C   UNL     1      -5.379  -2.370 123.830  0.00  0.00    +0.000 C 
ATOM      5  C   UNL     1      -6.374  -2.041 122.738  0.00  0.00    +0.000 C 
ATOM      6  C   UNL     1      -7.793  -2.019 123.237  0.00  0.00    +0.000 C 
ATOM      7  O   UNL     1      -8.635  -2.596 122.533  0.00  0.00    +0.000 OA
ENDROOT
BRANCH   1   8
ATOM      8  C   UNL     1      -8.048   0.372 124.173  0.00  0.00    +0.000 A 
ATOM      9  C   UNL     1      -6.967   1.168 124.657  0.00  0.00    +0.000 A 
ATOM     10  C   UNL     1      -6.715   2.472 124.226  0.00  0.00    +0.000 A 
ATOM     11  C   UNL     1      -7.629   3.103 123.415  0.00  0.00    +0.000 A 
ATOM     12  C   UNL     1      -8.756   2.407 123.006  0.00  0.00    +0.000 A 
ATOM     13  C   UNL     1      -8.939   1.051 123.317  0.00  0.00    +0.000 A 
ATOM     14 CL   UNL     1     -10.240   0.366 122.416  0.00  0.00    +0.000 Cl
ENDBRANCH   1   8
BRANCH   1  16
ATOM     15  C   UNL     1      -9.390  -2.800 125.958  0.00  0.00    +0.000 C 
ATOM     16  N   UNL     1      -9.391  -1.547 125.206  0.00  0.00    +0.000 NA
ATOM     17  H   UNL     1      -9.651  -0.828 125.880  0.00  0.00    +0.000 HD
ENDBRANCH   1  16
TORSDOF 2
ENDMDL
MODEL 2
REMARK VINA RESULT:      -6.1      2.622      4.712
REMARK  Name = Ketamine
REMARK  3 active torsions:
REMARK  status: ('A' for Active; 'I' for Inactive)
REMARK    1  A    between atoms: C_1  and  N_2
REMARK    2  A    between atoms: N_2  and  C_3
REMARK    3  A    between atoms: C_3  and  C_10
REMARK                            x       y       z     vdW  Elec       q    Type
REMARK                         _______ _______ _______ _____ _____    ______ ____
ROOT
ATOM      1  C   UNL     1      -8.123  -1.487 125.145  0.00  0.00    +0.000 C 
ATOM      2  C   UNL     1      -8.293  -2.689 124.122  0.00  0.00    +0.000 C 
ATOM      3  C   UNL     1      -7.133  -3.705 124.160  0.00  0.00    +0.000 C 
ATOM      4  C   UNL     1      -5.824  -3.024 123.828  0.00  0.00    +0.000 C 
ATOM      5  C   UNL     1      -5.544  -1.899 124.800  0.00  0.00    +0.000 C 
ATOM      6  C   UNL     1      -6.681  -0.916 124.888  0.00  0.00    +0.000 C 
ATOM      7  O   UNL     1      -6.374   0.285 124.866  0.00  0.00    +0.000 OA
ENDROOT
BRANCH   1   8
ATOM      8  C   UNL     1      -8.259  -2.000 126.618  0.00  0.00    +0.000 A 
ATOM      9  C   UNL     1      -8.798  -3.297 126.873  0.00  0.00    +0.000 A 
ATOM     10  C   UNL     1      -8.752  -3.920 128.122  0.00  0.00    +0.000 A 
ATOM     11  C   UNL     1      -8.314  -3.209 129.215  0.00  0.00    +0.000 A 
ATOM     12  C   UNL     1      -7.882  -1.905 129.037  0.00  0.00    +0.000 A 
ATOM     13  C   UNL     1      -7.789  -1.325 127.762  0.00  0.00    +0.000 A 
ATOM     14 CL   UNL     1      -6.923   0.166 127.808  0.00  0.00    +0.000 Cl
ENDBRANCH   1   8
BRANCH   1  16
ATOM     15  C   UNL     1      -9.341  -0.176 123.346  0.00  0.00    +0.000 C 
ATOM     16  N   UNL     1      -9.227  -0.531 124.759  0.00  0.00    +0.000 NA
ATOM     17  H   UNL     1     -10.131  -0.930 125.011  0.00  0.00    +0.000 HD
ENDBRANCH   1  16
TORSDOF 2
ENDMDL
MODEL 3
REMARK VINA RESULT:      -6.0      2.890      4.688
REMARK  Name = Ketamine
REMARK  3 active torsions:
REMARK  status: ('A' for Active; 'I' for Inactive)
REMARK    1  A    between atoms: C_1  and  N_2
REMARK    2  A    between atoms: N_2  and  C_3
REMARK    3  A    between atoms: C_3  and  C_10
REMARK                            x       y       z     vdW  Elec       q    Type
REMARK                         _______ _______ _______ _____ _____    ______ ____
ROOT
ATOM      1  C   UNL     1      -8.147  -1.694 126.260  0.00  0.00    +0.000 C 
ATOM      2  C   UNL     1      -7.714  -1.235 127.718  0.00  0.00    +0.000 C 
ATOM      3  C   UNL     1      -7.288  -2.401 128.634  0.00  0.00    +0.000 C 
ATOM      4  C   UNL     1      -8.424  -3.385 128.800  0.00  0.00    +0.000 C 
ATOM      5  C   UNL     1      -8.861  -3.930 127.458  0.00  0.00    +0.000 C 
ATOM      6  C   UNL     1      -9.201  -2.841 126.476  0.00  0.00    +0.000 C 
ATOM      7  O   UNL     1     -10.244  -2.994 125.822  0.00  0.00    +0.000 OA
ENDROOT
BRANCH   1   8
ATOM      8  C   UNL     1      -6.908  -2.226 125.466  0.00  0.00    +0.000 A 
ATOM      9  C   UNL     1      -7.008  -3.437 124.717  0.00  0.00    +0.000 A 
ATOM     10  C   UNL     1      -6.038  -3.867 123.809  0.00  0.00    +0.000 A 
ATOM     11  C   UNL     1      -4.842  -3.191 123.730  0.00  0.00    +0.000 A 
ATOM     12  C   UNL     1      -4.652  -2.069 124.521  0.00  0.00    +0.000 A 
ATOM     13  C   UNL     1      -5.679  -1.550 125.325  0.00  0.00    +0.000 A 
ATOM     14 CL   UNL     1      -5.277   0.013 125.933  0.00  0.00    +0.000 Cl
ENDBRANCH   1   8
BRANCH   1  16
ATOM     15  C   UNL     1      -8.772   0.755 126.489  0.00  0.00    +0.000 C 
ATOM     16  N   UNL     1      -8.734  -0.443 125.652  0.00  0.00    +0.000 NA
ATOM     17  H   UNL     1      -8.197  -0.178 124.827  0.00  0.00    +0.000 HD
ENDBRANCH   1  16
TORSDOF 2
ENDMDL
MODEL 4
REMARK VINA RESULT:      -6.0      2.626      4.987
REMARK  Name = Ketamine
REMARK  3 active torsions:
REMARK  status: ('A' for Active; 'I' for Inactive)
REMARK    1  A    between atoms: C_1  and  N_2
REMARK    2  A    between atoms: N_2  and  C_3
REMARK    3  A    between atoms: C_3  and  C_10
REMARK                            x       y       z     vdW  Elec       q    Type
REMARK                         _______ _______ _______ _____ _____    ______ ____
ROOT
ATOM      1  C   UNL     1      -6.964  -2.383 124.823  0.00  0.00    +0.000 C 
ATOM      2  C   UNL     1      -6.090  -1.057 124.796  0.00  0.00    +0.000 C 
ATOM      3  C   UNL     1      -6.910   0.230 125.022  0.00  0.00    +0.000 C 
ATOM      4  C   UNL     1      -7.969   0.376 123.952  0.00  0.00    +0.000 C 
ATOM      5  C   UNL     1      -8.896  -0.820 123.948  0.00  0.00    +0.000 C 
ATOM      6  C   UNL     1      -8.154  -2.124 123.828  0.00  0.00    +0.000 C 
ATOM      7  O   UNL     1      -8.614  -2.948 123.024  0.00  0.00    +0.000 OA
ENDROOT
BRANCH   1   8
ATOM      8  C   UNL     1      -7.501  -2.653 126.268  0.00  0.00    +0.000 A 
ATOM      9  C   UNL     1      -8.744  -3.332 126.450  0.00  0.00    +0.000 A 
ATOM     10  C   UNL     1      -9.189  -3.808 127.685  0.00  0.00    +0.000 A 
ATOM     11  C   UNL     1      -8.492  -3.482 128.825  0.00  0.00    +0.000 A 
ATOM     12  C   UNL     1      -7.335  -2.728 128.712  0.00  0.00    +0.000 A 
ATOM     13  C   UNL     1      -6.805  -2.373 127.461  0.00  0.00    +0.000 A 
ATOM     14 CL   UNL     1      -5.211  -1.733 127.609  0.00  0.00    +0.000 Cl
ENDBRANCH   1   8
BRANCH   1  16
ATOM     15  C   UNL     1      -4.998  -3.059 123.366  0.00  0.00    +0.000 C 
ATOM     16  N   UNL     1      -6.005  -3.451 124.350  0.00  0.00    +0.000 NA
ATOM     17  H   UNL     1      -5.480  -3.816 125.144  0.00  0.00    +0.000 HD
ENDBRANCH   1  16
TORSDOF 2
ENDMDL
MODEL 5
REMARK VINA RESULT:      -5.9      1.666      1.940
REMARK  Name = Ketamine
REMARK  3 active torsions:
REMARK  status: ('A' for Active; 'I' for Inactive)
REMARK    1  A    between atoms: C_1  and  N_2
REMARK    2  A    between atoms: N_2  and  C_3
REMARK    3  A    between atoms: C_3  and  C_10
REMARK                            x       y       z     vdW  Elec       q    Type
REMARK                         _______ _______ _______ _____ _____    ______ ____
ROOT
ATOM      1  C   UNL     1      -8.273  -1.629 124.859  0.00  0.00    +0.000 C 
ATOM      2  C   UNL     1      -6.979  -2.031 125.687  0.00  0.00    +0.000 C 
ATOM      3  C   UNL     1      -5.656  -1.751 124.945  0.00  0.00    +0.000 C 
ATOM      4  C   UNL     1      -5.606  -2.523 123.645  0.00  0.00    +0.000 C 
ATOM      5  C   UNL     1      -6.773  -2.151 122.756  0.00  0.00    +0.000 C 
ATOM      6  C   UNL     1      -8.099  -2.307 123.451  0.00  0.00    +0.000 C 
ATOM      7  O   UNL     1      -8.998  -2.865 122.804  0.00  0.00    +0.000 OA
ENDROOT
BRANCH   1   8
ATOM      8  C   UNL     1      -8.365  -0.073 124.714  0.00  0.00    +0.000 A 
ATOM      9  C   UNL     1      -8.661   0.508 123.444  0.00  0.00    +0.000 A 
ATOM     10  C   UNL     1      -8.979   1.856 123.267  0.00  0.00    +0.000 A 
ATOM     11  C   UNL     1      -8.854   2.724 124.327  0.00  0.00    +0.000 A 
ATOM     12  C   UNL     1      -8.462   2.226 125.559  0.00  0.00    +0.000 A 
ATOM     13  C   UNL     1      -8.283   0.850 125.776  0.00  0.00    +0.000 A 
ATOM     14 CL   UNL     1      -8.122   0.492 127.455  0.00  0.00    +0.000 Cl
ENDBRANCH   1   8
BRANCH   1  16
ATOM     15  C   UNL     1      -9.091  -3.303 126.581  0.00  0.00    +0.000 C 
ATOM     16  N   UNL     1      -9.409  -2.205 125.670  0.00  0.00    +0.000 NA
ATOM     17  H   UNL     1      -9.816  -1.478 126.256  0.00  0.00    +0.000 HD
ENDBRANCH   1  16
TORSDOF 2
ENDMDL
MODEL 6
REMARK VINA RESULT:      -5.8      2.228      4.560
REMARK  Name = Ketamine
REMARK  3 active torsions:
REMARK  status: ('A' for Active; 'I' for Inactive)
REMARK    1  A    between atoms: C_1  and  N_2
REMARK    2  A    between atoms: N_2  and  C_3
REMARK    3  A    between atoms: C_3  and  C_10
REMARK                            x       y       z     vdW  Elec       q    Type
REMARK                         _______ _______ _______ _____ _____    ______ ____
ROOT
ATOM      1  C   UNL     1      -6.561  -1.702 124.812  0.00  0.00    +0.000 C 
ATOM      2  C   UNL     1      -5.188  -1.032 125.247  0.00  0.00    +0.000 C 
ATOM      3  C   UNL     1      -5.358   0.165 126.205  0.00  0.00    +0.000 C 
ATOM      4  C   UNL     1      -6.191   1.246 125.555  0.00  0.00    +0.000 C 
ATOM      5  C   UNL     1      -7.552   0.713 125.165  0.00  0.00    +0.000 C 
ATOM      6  C   UNL     1      -7.464  -0.519 124.306  0.00  0.00    +0.000 C 
ATOM      7  O   UNL     1      -8.207  -0.553 123.313  0.00  0.00    +0.000 OA
ENDROOT
BRANCH   1   8
ATOM      8  C   UNL     1      -7.227  -2.422 126.032  0.00  0.00    +0.000 A 
ATOM      9  C   UNL     1      -6.674  -2.267 127.339  0.00  0.00    +0.000 A 
ATOM     10  C   UNL     1      -7.320  -2.684 128.505  0.00  0.00    +0.000 A 
ATOM     11  C   UNL     1      -8.475  -3.426 128.408  0.00  0.00    +0.000 A 
ATOM     12  C   UNL     1      -8.994  -3.698 127.152  0.00  0.00    +0.000 A 
ATOM     13  C   UNL     1      -8.429  -3.157 125.986  0.00  0.00    +0.000 A 
ATOM     14 CL   UNL     1      -9.456  -3.387 124.621  0.00  0.00    +0.000 Cl
ENDBRANCH   1   8
BRANCH   1  16
ATOM     15  C   UNL     1      -4.916  -3.411 123.909  0.00  0.00    +0.000 C 
ATOM     16  N   UNL     1      -6.158  -2.664 123.719  0.00  0.00    +0.000 NA
ATOM     17  H   UNL     1      -6.882  -3.371 123.600  0.00  0.00    +0.000 HD
ENDBRANCH   1  16
TORSDOF 2
ENDMDL
MODEL 7
REMARK VINA RESULT:      -5.8      4.796      6.514
REMARK  Name = Ketamine
REMARK  3 active torsions:
REMARK  status: ('A' for Active; 'I' for Inactive)
REMARK    1  A    between atoms: C_1  and  N_2
REMARK    2  A    between atoms: N_2  and  C_3
REMARK    3  A    between atoms: C_3  and  C_10
REMARK                            x       y       z     vdW  Elec       q    Type
REMARK                         _______ _______ _______ _____ _____    ______ ____
ROOT
ATOM      1  C   UNL     1      -6.486  -2.011 129.733  0.00  0.00    +0.000 C 
ATOM      2  C   UNL     1      -4.977  -1.786 129.295  0.00  0.00    +0.000 C 
ATOM      3  C   UNL     1      -4.230  -3.090 128.949  0.00  0.00    +0.000 C 
ATOM      4  C   UNL     1      -4.209  -4.019 130.142  0.00  0.00    +0.000 C 
ATOM      5  C   UNL     1      -5.617  -4.346 130.591  0.00  0.00    +0.000 C 
ATOM      6  C   UNL     1      -6.439  -3.113 130.855  0.00  0.00    +0.000 C 
ATOM      7  O   UNL     1      -7.113  -3.112 131.895  0.00  0.00    +0.000 OA
ENDROOT
BRANCH   1   8
ATOM      8  C   UNL     1      -7.341  -2.500 128.516  0.00  0.00    +0.000 A 
ATOM      9  C   UNL     1      -8.230  -3.606 128.669  0.00  0.00    +0.000 A 
ATOM     10  C   UNL     1      -9.183  -3.967 127.715  0.00  0.00    +0.000 A 
ATOM     11  C   UNL     1      -9.182  -3.342 126.489  0.00  0.00    +0.000 A 
ATOM     12  C   UNL     1      -8.263  -2.333 126.252  0.00  0.00    +0.000 A 
ATOM     13  C   UNL     1      -7.400  -1.868 127.257  0.00  0.00    +0.000 A 
ATOM     14 CL   UNL     1      -6.609  -0.410 126.787  0.00  0.00    +0.000 Cl
ENDBRANCH   1   8
BRANCH   1  16
ATOM     15  C   UNL     1      -5.894   0.386 130.321  0.00  0.00    +0.000 C 
ATOM     16  N   UNL     1      -6.918  -0.655 130.239  0.00  0.00    +0.000 NA
ATOM     17  H   UNL     1      -7.641  -0.275 129.629  0.00  0.00    +0.000 HD
ENDBRANCH   1  16
TORSDOF 2
ENDMDL
MODEL 8
REMARK VINA RESULT:      -5.7      2.772      4.805
REMARK  Name = Ketamine
REMARK  3 active torsions:
REMARK  status: ('A' for Active; 'I' for Inactive)
REMARK    1  A    between atoms: C_1  and  N_2
REMARK    2  A    between atoms: N_2  and  C_3
REMARK    3  A    between atoms: C_3  and  C_10
REMARK                            x       y       z     vdW  Elec       q    Type
REMARK                         _______ _______ _______ _____ _____    ______ ____
ROOT
ATOM      1  C   UNL     1      -7.104   1.176 124.718  0.00  0.00    +0.000 C 
ATOM      2  C   UNL     1      -8.119   1.156 125.939  0.00  0.00    +0.000 C 
ATOM      3  C   UNL     1      -9.485   0.525 125.600  0.00  0.00    +0.000 C 
ATOM      4  C   UNL     1     -10.156   1.287 124.480  0.00  0.00    +0.000 C 
ATOM      5  C   UNL     1      -9.284   1.301 123.243  0.00  0.00    +0.000 C 
ATOM      6  C   UNL     1      -7.897   1.817 123.521  0.00  0.00    +0.000 C 
ATOM      7  O   UNL     1      -7.439   2.633 122.708  0.00  0.00    +0.000 OA
ENDROOT
BRANCH   1   8
ATOM      8  C   UNL     1      -6.650  -0.280 124.363  0.00  0.00    +0.000 A 
ATOM      9  C   UNL     1      -6.790  -0.763 123.027  0.00  0.00    +0.000 A 
ATOM     10  C   UNL     1      -6.217  -1.952 122.572  0.00  0.00    +0.000 A 
ATOM     11  C   UNL     1      -5.615  -2.800 123.474  0.00  0.00    +0.000 A 
ATOM     12  C   UNL     1      -5.551  -2.425 124.807  0.00  0.00    +0.000 A 
ATOM     13  C   UNL     1      -5.996  -1.166 125.242  0.00  0.00    +0.000 A 
ATOM     14 CL   UNL     1      -5.499  -0.846 126.862  0.00  0.00    +0.000 Cl
ENDBRANCH   1   8
BRANCH   1  16
ATOM     15  C   UNL     1      -6.183   2.789 126.447  0.00  0.00    +0.000 C 
ATOM     16  N   UNL     1      -5.965   2.034 125.215  0.00  0.00    +0.000 NA
ATOM     17  H   UNL     1      -5.149   1.451 125.397  0.00  0.00    +0.000 HD
ENDBRANCH   1  16
TORSDOF 2
ENDMDL
MODEL 9
REMARK VINA RESULT:      -5.7      8.075      9.665
REMARK  Name = Ketamine
REMARK  3 active torsions:
REMARK  status: ('A' for Active; 'I' for Inactive)
REMARK    1  A    between atoms: C_1  and  N_2
REMARK    2  A    between atoms: N_2  and  C_3
REMARK    3  A    between atoms: C_3  and  C_10
REMARK                            x       y       z     vdW  Elec       q    Type
REMARK                         _______ _______ _______ _____ _____    ______ ____
ROOT
ATOM      1  C   UNL     1      -8.734   5.437 130.631  0.00  0.00    +0.000 C 
ATOM      2  C   UNL     1      -9.107   6.311 131.903  0.00  0.00    +0.000 C 
ATOM      3  C   UNL     1     -10.586   6.192 132.325  0.00  0.00    +0.000 C 
ATOM      4  C   UNL     1     -11.493   6.638 131.200  0.00  0.00    +0.000 C 
ATOM      5  C   UNL     1     -11.253   5.810 129.957  0.00  0.00    +0.000 C 
ATOM      6  C   UNL     1      -9.807   5.800 129.541  0.00  0.00    +0.000 C 
ATOM      7  O   UNL     1      -9.580   5.968 128.333  0.00  0.00    +0.000 OA
ENDROOT
BRANCH   1   8
ATOM      8  C   UNL     1      -8.796   3.912 130.979  0.00  0.00    +0.000 A 
ATOM      9  C   UNL     1      -9.263   3.493 132.261  0.00  0.00    +0.000 A 
ATOM     10  C   UNL     1      -9.560   2.166 132.579  0.00  0.00    +0.000 A 
ATOM     11  C   UNL     1      -9.246   1.171 131.682  0.00  0.00    +0.000 A 
ATOM     12  C   UNL     1      -8.687   1.519 130.463  0.00  0.00    +0.000 A 
ATOM     13  C   UNL     1      -8.522   2.860 130.082  0.00  0.00    +0.000 A 
ATOM     14 CL   UNL     1      -8.118   2.997 128.411  0.00  0.00    +0.000 Cl
ENDBRANCH   1   8
BRANCH   1  16
ATOM     15  C   UNL     1      -6.723   6.896 131.151  0.00  0.00    +0.000 C 
ATOM     16  N   UNL     1      -7.338   5.896 130.280  0.00  0.00    +0.000 NA
ATOM     17  H   UNL     1      -6.702   5.100 130.292  0.00  0.00    +0.000 HD
ENDBRANCH   1  16
TORSDOF 2
ENDMDL
