MODEL 1
REMARK VINA RESULT:      -7.8      0.000      0.000
REMARK  Name = Ketazolam
REMARK  3 active torsions:
REMARK  status: ('A' for Active; 'I' for Inactive)
REMARK    1  A    between atoms: C_1  and  N_2
REMARK    2  A    between atoms: C_10  and  C_21
REMARK    3  A    between atoms: C_12  and  C_13
REMARK                            x       y       z     vdW  Elec       q    Type
REMARK                         _______ _______ _______ _____ _____    ______ ____
ROOT
ATOM      1  C   UNL     1      -5.131   1.131 129.761  0.00  0.00    +0.000 C 
ATOM      2  N   UNL     1      -6.183   1.024 128.684  0.00  0.00    +0.000 N 
ATOM      3  C   UNL     1      -5.856   0.243 127.566  0.00  0.00    +0.000 A 
ATOM      4  C   UNL     1      -5.756   0.760 126.269  0.00  0.00    +0.000 A 
ATOM      5  C   UNL     1      -5.617  -0.231 125.250  0.00  0.00    +0.000 A 
ATOM      6  C   UNL     1      -5.698  -1.601 125.474  0.00  0.00    +0.000 A 
ATOM      7 CL   UNL     1      -5.759  -2.681 124.138  0.00  0.00    +0.000 Cl
ATOM      8  C   UNL     1      -5.755  -2.069 126.764  0.00  0.00    +0.000 A 
ATOM      9  C   UNL     1      -5.791  -1.149 127.808  0.00  0.00    +0.000 A 
ATOM     10  C   UNL     1      -5.841   2.279 125.855  0.00  0.00    +0.000 C 
ATOM     11  O   UNL     1      -5.665   2.205 124.401  0.00  0.00    +0.000 OA
ATOM     12  C   UNL     1      -6.874   2.112 123.671  0.00  0.00    +0.000 C 
ATOM     13  C   UNL     1      -7.877   0.986 123.882  0.00  0.00    +0.000 C 
ATOM     14  C   UNL     1      -7.487   3.279 123.655  0.00  0.00    +0.000 C 
ATOM     15  C   UNL     1      -7.984   3.424 125.107  0.00  0.00    +0.000 C 
ATOM     16  O   UNL     1      -9.115   3.780 125.263  0.00  0.00    +0.000 OA
ATOM     17  N   UNL     1      -7.167   2.879 126.162  0.00  0.00    +0.000 N 
ATOM     18  C   UNL     1      -7.614   2.918 127.615  0.00  0.00    +0.000 C 
ATOM     19  C   UNL     1      -7.415   1.695 128.664  0.00  0.00    +0.000 C 
ATOM     20  O   UNL     1      -8.230   1.499 129.571  0.00  0.00    +0.000 OA
ENDROOT
BRANCH  10  21
ATOM     21  C   UNL     1      -4.721   3.204 126.463  0.00  0.00    +0.000 A 
ATOM     22  C   UNL     1      -3.444   2.682 126.667  0.00  0.00    +0.000 A 
ATOM     23  C   UNL     1      -2.306   3.264 127.205  0.00  0.00    +0.000 A 
ATOM     24  C   UNL     1      -2.427   4.549 127.620  0.00  0.00    +0.000 A 
ATOM     25  C   UNL     1      -3.682   5.160 127.496  0.00  0.00    +0.000 A 
ATOM     26  C   UNL     1      -4.829   4.487 126.971  0.00  0.00    +0.000 A 
ENDBRANCH  10  21
TORSDOF 1
ENDMDL
MODEL 2
REMARK VINA RESULT:      -7.8      2.979      5.700
REMARK  Name = Ketazolam
REMARK  3 active torsions:
REMARK  status: ('A' for Active; 'I' for Inactive)
REMARK    1  A    between atoms: C_1  and  N_2
REMARK    2  A    between atoms: C_10  and  C_21
REMARK    3  A    between atoms: C_12  and  C_13
REMARK                            x       y       z     vdW  Elec       q    Type
REMARK                         _______ _______ _______ _____ _____    ______ ____
ROOT
ATOM      1  C   UNL     1      -6.529   2.070 128.123  0.00  0.00    +0.000 C 
ATOM      2  N   UNL     1      -6.440   1.398 126.774  0.00  0.00    +0.000 N 
ATOM      3  C   UNL     1      -7.642   1.252 126.067  0.00  0.00    +0.000 A 
ATOM      4  C   UNL     1      -8.191   0.009 125.732  0.00  0.00    +0.000 A 
ATOM      5  C   UNL     1      -9.304   0.078 124.839  0.00  0.00    +0.000 A 
ATOM      6  C   UNL     1      -9.749   1.248 124.234  0.00  0.00    +0.000 A 
ATOM      7 CL   UNL     1     -10.938   1.167 122.995  0.00  0.00    +0.000 Cl
ATOM      8  C   UNL     1      -9.211   2.452 124.619  0.00  0.00    +0.000 A 
ATOM      9  C   UNL     1      -8.189   2.455 125.565  0.00  0.00    +0.000 A 
ATOM     10  C   UNL     1      -7.667  -1.405 126.195  0.00  0.00    +0.000 C 
ATOM     11  O   UNL     1      -8.626  -2.307 125.550  0.00  0.00    +0.000 OA
ATOM     12  C   UNL     1      -8.228  -2.765 124.272  0.00  0.00    +0.000 C 
ATOM     13  C   UNL     1      -7.927  -1.819 123.118  0.00  0.00    +0.000 C 
ATOM     14  C   UNL     1      -7.277  -3.669 124.388  0.00  0.00    +0.000 C 
ATOM     15  C   UNL     1      -6.062  -2.833 124.835  0.00  0.00    +0.000 C 
ATOM     16  O   UNL     1      -5.024  -3.035 124.276  0.00  0.00    +0.000 OA
ATOM     17  N   UNL     1      -6.299  -1.696 125.690  0.00  0.00    +0.000 N 
ATOM     18  C   UNL     1      -5.166  -0.777 126.123  0.00  0.00    +0.000 C 
ATOM     19  C   UNL     1      -5.285   0.839 126.206  0.00  0.00    +0.000 C 
ATOM     20  O   UNL     1      -4.305   1.559 125.986  0.00  0.00    +0.000 OA
ENDROOT
BRANCH  10  21
ATOM     21  C   UNL     1      -7.689  -1.653 127.751  0.00  0.00    +0.000 A 
ATOM     22  C   UNL     1      -7.660  -2.961 128.231  0.00  0.00    +0.000 A 
ATOM     23  C   UNL     1      -7.700  -3.447 129.529  0.00  0.00    +0.000 A 
ATOM     24  C   UNL     1      -7.794  -2.522 130.515  0.00  0.00    +0.000 A 
ATOM     25  C   UNL     1      -7.869  -1.174 130.140  0.00  0.00    +0.000 A 
ATOM     26  C   UNL     1      -7.866  -0.741 128.777  0.00  0.00    +0.000 A 
ENDBRANCH  10  21
TORSDOF 1
ENDMDL
MODEL 3
REMARK VINA RESULT:      -7.7      2.168      5.560
REMARK  Name = Ketazolam
REMARK  3 active torsions:
REMARK  status: ('A' for Active; 'I' for Inactive)
REMARK    1  A    between atoms: C_1  and  N_2
REMARK    2  A    between atoms: C_10  and  C_21
REMARK    3  A    between atoms: C_12  and  C_13
REMARK                            x       y       z     vdW  Elec       q    Type
REMARK                         _______ _______ _______ _____ _____    ______ ____
ROOT
ATOM      1  C   UNL     1      -7.236   1.569 123.376  0.00  0.00    +0.000 C 
ATOM      2  N   UNL     1      -7.205   2.068 124.800  0.00  0.00    +0.000 N 
ATOM      3  C   UNL     1      -5.939   2.296 125.356  0.00  0.00    +0.000 A 
ATOM      4  C   UNL     1      -5.445   1.592 126.461  0.00  0.00    +0.000 A 
ATOM      5  C   UNL     1      -4.227   2.114 126.996  0.00  0.00    +0.000 A 
ATOM      6  C   UNL     1      -3.624   3.289 126.564  0.00  0.00    +0.000 A 
ATOM      7 CL   UNL     1      -2.298   3.940 127.444  0.00  0.00    +0.000 Cl
ATOM      8  C   UNL     1      -4.115   3.928 125.452  0.00  0.00    +0.000 A 
ATOM      9  C   UNL     1      -5.245   3.408 124.826  0.00  0.00    +0.000 A 
ATOM     10  C   UNL     1      -6.127   0.359 127.169  0.00  0.00    +0.000 C 
ATOM     11  O   UNL     1      -5.164   0.052 128.232  0.00  0.00    +0.000 OA
ATOM     12  C   UNL     1      -5.431   0.693 129.465  0.00  0.00    +0.000 C 
ATOM     13  C   UNL     1      -5.515   2.208 129.602  0.00  0.00    +0.000 C 
ATOM     14  C   UNL     1      -6.454   0.119 130.064  0.00  0.00    +0.000 C 
ATOM     15  C   UNL     1      -7.650   0.556 129.195  0.00  0.00    +0.000 C 
ATOM     16  O   UNL     1      -8.622   0.957 129.766  0.00  0.00    +0.000 OA
ATOM     17  N   UNL     1      -7.439   0.707 127.777  0.00  0.00    +0.000 N 
ATOM     18  C   UNL     1      -8.545   1.199 126.856  0.00  0.00    +0.000 C 
ATOM     19  C   UNL     1      -8.318   2.245 125.637  0.00  0.00    +0.000 C 
ATOM     20  O   UNL     1      -9.206   3.038 125.308  0.00  0.00    +0.000 OA
ENDROOT
BRANCH  10  21
ATOM     21  C   UNL     1      -6.318  -0.915 126.263  0.00  0.00    +0.000 A 
ATOM     22  C   UNL     1      -5.405  -1.164 125.239  0.00  0.00    +0.000 A 
ATOM     23  C   UNL     1      -5.361  -2.180 124.297  0.00  0.00    +0.000 A 
ATOM     24  C   UNL     1      -6.364  -3.090 124.346  0.00  0.00    +0.000 A 
ATOM     25  C   UNL     1      -7.360  -2.912 125.315  0.00  0.00    +0.000 A 
ATOM     26  C   UNL     1      -7.369  -1.815 126.233  0.00  0.00    +0.000 A 
ENDBRANCH  10  21
TORSDOF 1
ENDMDL
MODEL 4
REMARK VINA RESULT:      -7.6      5.381      8.046
REMARK  Name = Ketazolam
REMARK  3 active torsions:
REMARK  status: ('A' for Active; 'I' for Inactive)
REMARK    1  A    between atoms: C_1  and  N_2
REMARK    2  A    between atoms: C_10  and  C_21
REMARK    3  A    between atoms: C_12  and  C_13
REMARK                            x       y       z     vdW  Elec       q    Type
REMARK                         _______ _______ _______ _____ _____    ______ ____
ROOT
ATOM      1  C   UNL     1      -5.462  -5.457 130.525  0.00  0.00    +0.000 C 
ATOM      2  N   UNL     1      -5.233  -4.217 131.355  0.00  0.00    +0.000 N 
ATOM      3  C   UNL     1      -6.184  -3.945 132.348  0.00  0.00    +0.000 A 
ATOM      4  C   UNL     1      -6.989  -2.800 132.351  0.00  0.00    +0.000 A 
ATOM      5  C   UNL     1      -7.740  -2.611 133.551  0.00  0.00    +0.000 A 
ATOM      6  C   UNL     1      -7.613  -3.402 134.686  0.00  0.00    +0.000 A 
ATOM      7 CL   UNL     1      -8.389  -2.931 136.146  0.00  0.00    +0.000 Cl
ATOM      8  C   UNL     1      -6.844  -4.540 134.631  0.00  0.00    +0.000 A 
ATOM      9  C   UNL     1      -6.166  -4.831 133.450  0.00  0.00    +0.000 A 
ATOM     10  C   UNL     1      -7.084  -1.717 131.208  0.00  0.00    +0.000 C 
ATOM     11  O   UNL     1      -8.072  -0.784 131.760  0.00  0.00    +0.000 OA
ATOM     12  C   UNL     1      -7.513   0.288 132.497  0.00  0.00    +0.000 C 
ATOM     13  C   UNL     1      -6.630   0.072 133.718  0.00  0.00    +0.000 C 
ATOM     14  C   UNL     1      -6.965   1.165 131.681  0.00  0.00    +0.000 C 
ATOM     15  C   UNL     1      -5.714   0.424 131.171  0.00  0.00    +0.000 C 
ATOM     16  O   UNL     1      -4.685   1.032 131.161  0.00  0.00    +0.000 OA
ATOM     17  N   UNL     1      -5.797  -1.005 130.992  0.00  0.00    +0.000 N 
ATOM     18  C   UNL     1      -4.591  -1.823 130.557  0.00  0.00    +0.000 C 
ATOM     19  C   UNL     1      -4.208  -3.277 131.168  0.00  0.00    +0.000 C 
ATOM     20  O   UNL     1      -3.030  -3.636 131.259  0.00  0.00    +0.000 OA
ENDROOT
BRANCH  10  21
ATOM     21  C   UNL     1      -7.600  -2.251 129.818  0.00  0.00    +0.000 A 
ATOM     22  C   UNL     1      -7.507  -1.429 128.697  0.00  0.00    +0.000 A 
ATOM     23  C   UNL     1      -7.907  -1.641 127.386  0.00  0.00    +0.000 A 
ATOM     24  C   UNL     1      -8.499  -2.832 127.124  0.00  0.00    +0.000 A 
ATOM     25  C   UNL     1      -8.677  -3.722 128.191  0.00  0.00    +0.000 A 
ATOM     26  C   UNL     1      -8.280  -3.422 129.532  0.00  0.00    +0.000 A 
ENDBRANCH  10  21
TORSDOF 1
ENDMDL
MODEL 5
REMARK VINA RESULT:      -7.6      3.556      6.699
REMARK  Name = Ketazolam
REMARK  3 active torsions:
REMARK  status: ('A' for Active; 'I' for Inactive)
REMARK    1  A    between atoms: C_1  and  N_2
REMARK    2  A    between atoms: C_10  and  C_21
REMARK    3  A    between atoms: C_12  and  C_13
REMARK                            x       y       z     vdW  Elec       q    Type
REMARK                         _______ _______ _______ _____ _____    ______ ____
ROOT
ATOM      1  C   UNL     1      -7.543   2.303 128.483  0.00  0.00    +0.000 C 
ATOM      2  N   UNL     1      -6.712   1.063 128.711  0.00  0.00    +0.000 N 
ATOM      3  C   UNL     1      -7.388  -0.163 128.644  0.00  0.00    +0.000 A 
ATOM      4  C   UNL     1      -7.503  -1.039 129.730  0.00  0.00    +0.000 A 
ATOM      5  C   UNL     1      -8.047  -2.318 129.399  0.00  0.00    +0.000 A 
ATOM      6  C   UNL     1      -8.329  -2.737 128.105  0.00  0.00    +0.000 A 
ATOM      7 CL   UNL     1      -8.749  -4.379 127.812  0.00  0.00    +0.000 Cl
ATOM      8  C   UNL     1      -8.241  -1.836 127.071  0.00  0.00    +0.000 A 
ATOM      9  C   UNL     1      -7.812  -0.541 127.349  0.00  0.00    +0.000 A 
ATOM     10  C   UNL     1      -7.045  -0.760 131.213  0.00  0.00    +0.000 C 
ATOM     11  O   UNL     1      -7.420  -2.010 131.883  0.00  0.00    +0.000 OA
ATOM     12  C   UNL     1      -6.391  -2.981 131.927  0.00  0.00    +0.000 C 
ATOM     13  C   UNL     1      -5.730  -3.533 130.671  0.00  0.00    +0.000 C 
ATOM     14  C   UNL     1      -5.481  -2.639 132.816  0.00  0.00    +0.000 C 
ATOM     15  C   UNL     1      -4.780  -1.441 132.146  0.00  0.00    +0.000 C 
ATOM     16  O   UNL     1      -3.585  -1.430 132.161  0.00  0.00    +0.000 OA
ATOM     17  N   UNL     1      -5.576  -0.561 131.327  0.00  0.00    +0.000 N 
ATOM     18  C   UNL     1      -4.953   0.606 130.575  0.00  0.00    +0.000 C 
ATOM     19  C   UNL     1      -5.354   1.034 129.062  0.00  0.00    +0.000 C 
ATOM     20  O   UNL     1      -4.518   1.534 128.302  0.00  0.00    +0.000 OA
ENDROOT
BRANCH  10  21
ATOM     21  C   UNL     1      -7.770   0.444 131.924  0.00  0.00    +0.000 A 
ATOM     22  C   UNL     1      -9.081   0.755 131.568  0.00  0.00    +0.000 A 
ATOM     23  C   UNL     1      -9.922   1.764 132.011  0.00  0.00    +0.000 A 
ATOM     24  C   UNL     1      -9.409   2.612 132.936  0.00  0.00    +0.000 A 
ATOM     25  C   UNL     1      -8.081   2.412 133.338  0.00  0.00    +0.000 A 
ATOM     26  C   UNL     1      -7.252   1.375 132.808  0.00  0.00    +0.000 A 
ENDBRANCH  10  21
TORSDOF 1
ENDMDL
MODEL 6
REMARK VINA RESULT:      -7.5      5.053      7.484
REMARK  Name = Ketazolam
REMARK  3 active torsions:
REMARK  status: ('A' for Active; 'I' for Inactive)
REMARK    1  A    between atoms: C_1  and  N_2
REMARK    2  A    between atoms: C_10  and  C_21
REMARK    3  A    between atoms: C_12  and  C_13
REMARK                            x       y       z     vdW  Elec       q    Type
REMARK                         _______ _______ _______ _____ _____    ______ ____
ROOT
ATOM      1  C   UNL     1      -4.219   3.581 129.410  0.00  0.00    +0.000 C 
ATOM      2  N   UNL     1      -5.107   3.160 130.555  0.00  0.00    +0.000 N 
ATOM      3  C   UNL     1      -6.458   3.523 130.465  0.00  0.00    +0.000 A 
ATOM      4  C   UNL     1      -7.087   4.382 131.375  0.00  0.00    +0.000 A 
ATOM      5  C   UNL     1      -8.506   4.459 131.227  0.00  0.00    +0.000 A 
ATOM      6  C   UNL     1      -9.246   3.670 130.355  0.00  0.00    +0.000 A 
ATOM      7 CL   UNL     1     -10.963   3.682 130.441  0.00  0.00    +0.000 Cl
ATOM      8  C   UNL     1      -8.590   2.869 129.451  0.00  0.00    +0.000 A 
ATOM      9  C   UNL     1      -7.198   2.829 129.480  0.00  0.00    +0.000 A 
ATOM     10  C   UNL     1      -6.391   5.190 132.537  0.00  0.00    +0.000 C 
ATOM     11  O   UNL     1      -7.529   5.901 133.130  0.00  0.00    +0.000 OA
ATOM     12  C   UNL     1      -8.148   5.218 134.204  0.00  0.00    +0.000 C 
ATOM     13  C   UNL     1      -8.745   3.825 134.056  0.00  0.00    +0.000 C 
ATOM     14  C   UNL     1      -7.393   5.285 135.281  0.00  0.00    +0.000 C 
ATOM     15  C   UNL     1      -6.214   4.355 134.931  0.00  0.00    +0.000 C 
ATOM     16  O   UNL     1      -5.872   3.570 135.765  0.00  0.00    +0.000 OA
ATOM     17  N   UNL     1      -5.777   4.302 133.558  0.00  0.00    +0.000 N 
ATOM     18  C   UNL     1      -4.666   3.362 133.113  0.00  0.00    +0.000 C 
ATOM     19  C   UNL     1      -4.689   2.515 131.729  0.00  0.00    +0.000 C 
ATOM     20  O   UNL     1      -4.147   1.407 131.655  0.00  0.00    +0.000 OA
ENDROOT
BRANCH  10  21
ATOM     21  C   UNL     1      -5.312   6.240 132.072  0.00  0.00    +0.000 A 
ATOM     22  C   UNL     1      -5.461   6.865 130.835  0.00  0.00    +0.000 A 
ATOM     23  C   UNL     1      -4.654   7.788 130.188  0.00  0.00    +0.000 A 
ATOM     24  C   UNL     1      -3.520   8.154 130.835  0.00  0.00    +0.000 A 
ATOM     25  C   UNL     1      -3.253   7.555 132.073  0.00  0.00    +0.000 A 
ATOM     26  C   UNL     1      -4.108   6.574 132.667  0.00  0.00    +0.000 A 
ENDBRANCH  10  21
TORSDOF 1
ENDMDL
MODEL 7
REMARK VINA RESULT:      -7.5      2.659      6.073
REMARK  Name = Ketazolam
REMARK  3 active torsions:
REMARK  status: ('A' for Active; 'I' for Inactive)
REMARK    1  A    between atoms: C_1  and  N_2
REMARK    2  A    between atoms: C_10  and  C_21
REMARK    3  A    between atoms: C_12  and  C_13
REMARK                            x       y       z     vdW  Elec       q    Type
REMARK                         _______ _______ _______ _____ _____    ______ ____
ROOT
ATOM      1  C   UNL     1      -9.253   1.240 126.355  0.00  0.00    +0.000 C 
ATOM      2  N   UNL     1      -8.319   1.711 127.443  0.00  0.00    +0.000 N 
ATOM      3  C   UNL     1      -6.952   1.730 127.129  0.00  0.00    +0.000 A 
ATOM      4  C   UNL     1      -6.000   0.944 127.787  0.00  0.00    +0.000 A 
ATOM      5  C   UNL     1      -4.646   1.263 127.460  0.00  0.00    +0.000 A 
ATOM      6  C   UNL     1      -4.266   2.334 126.661  0.00  0.00    +0.000 A 
ATOM      7 CL   UNL     1      -2.604   2.759 126.539  0.00  0.00    +0.000 Cl
ATOM      8  C   UNL     1      -5.230   3.057 126.001  0.00  0.00    +0.000 A 
ATOM      9  C   UNL     1      -6.567   2.727 126.202  0.00  0.00    +0.000 A 
ATOM     10  C   UNL     1      -6.287  -0.176 128.860  0.00  0.00    +0.000 C 
ATOM     11  O   UNL     1      -4.932  -0.643 129.176  0.00  0.00    +0.000 OA
ATOM     12  C   UNL     1      -4.329   0.017 130.274  0.00  0.00    +0.000 C 
ATOM     13  C   UNL     1      -4.113   1.524 130.308  0.00  0.00    +0.000 C 
ATOM     14  C   UNL     1      -4.864  -0.398 131.404  0.00  0.00    +0.000 C 
ATOM     15  C   UNL     1      -6.270   0.231 131.369  0.00  0.00    +0.000 C 
ATOM     16  O   UNL     1      -6.651   0.772 132.366  0.00  0.00    +0.000 OA
ATOM     17  N   UNL     1      -6.922   0.365 130.091  0.00  0.00    +0.000 N 
ATOM     18  C   UNL     1      -8.281   1.036 129.957  0.00  0.00    +0.000 C 
ATOM     19  C   UNL     1      -8.684   2.049 128.755  0.00  0.00    +0.000 C 
ATOM     20  O   UNL     1      -9.479   2.975 128.946  0.00  0.00    +0.000 OA
ENDROOT
BRANCH  10  21
ATOM     21  C   UNL     1      -7.145  -1.393 128.347  0.00  0.00    +0.000 A 
ATOM     22  C   UNL     1      -7.684  -2.284 129.274  0.00  0.00    +0.000 A 
ATOM     23  C   UNL     1      -8.439  -3.432 129.088  0.00  0.00    +0.000 A 
ATOM     24  C   UNL     1      -8.703  -3.777 127.804  0.00  0.00    +0.000 A 
ATOM     25  C   UNL     1      -8.174  -2.969 126.789  0.00  0.00    +0.000 A 
ATOM     26  C   UNL     1      -7.365  -1.819 127.048  0.00  0.00    +0.000 A 
ENDBRANCH  10  21
TORSDOF 1
ENDMDL
MODEL 8
REMARK VINA RESULT:      -7.5      5.618      7.956
REMARK  Name = Ketazolam
REMARK  3 active torsions:
REMARK  status: ('A' for Active; 'I' for Inactive)
REMARK    1  A    between atoms: C_1  and  N_2
REMARK    2  A    between atoms: C_10  and  C_21
REMARK    3  A    between atoms: C_12  and  C_13
REMARK                            x       y       z     vdW  Elec       q    Type
REMARK                         _______ _______ _______ _____ _____    ______ ____
ROOT
ATOM      1  C   UNL     1      -6.199   4.288 133.996  0.00  0.00    +0.000 C 
ATOM      2  N   UNL     1      -4.964   4.403 133.138  0.00  0.00    +0.000 N 
ATOM      3  C   UNL     1      -4.418   5.687 132.997  0.00  0.00    +0.000 A 
ATOM      4  C   UNL     1      -4.332   6.357 131.771  0.00  0.00    +0.000 A 
ATOM      5  C   UNL     1      -3.561   7.559 131.809  0.00  0.00    +0.000 A 
ATOM      6  C   UNL     1      -2.840   7.991 132.916  0.00  0.00    +0.000 A 
ATOM      7 CL   UNL     1      -1.760   9.319 132.765  0.00  0.00    +0.000 Cl
ATOM      8  C   UNL     1      -2.983   7.329 134.112  0.00  0.00    +0.000 A 
ATOM      9  C   UNL     1      -3.803   6.205 134.160  0.00  0.00    +0.000 A 
ATOM     10  C   UNL     1      -4.941   5.880 130.396  0.00  0.00    +0.000 C 
ATOM     11  O   UNL     1      -4.543   6.969 129.497  0.00  0.00    +0.000 OA
ATOM     12  C   UNL     1      -3.312   6.756 128.833  0.00  0.00    +0.000 C 
ATOM     13  C   UNL     1      -2.004   6.528 129.579  0.00  0.00    +0.000 C 
ATOM     14  C   UNL     1      -3.459   5.863 127.876  0.00  0.00    +0.000 C 
ATOM     15  C   UNL     1      -3.646   4.549 128.660  0.00  0.00    +0.000 C 
ATOM     16  O   UNL     1      -3.016   3.600 128.294  0.00  0.00    +0.000 OA
ATOM     17  N   UNL     1      -4.343   4.605 129.921  0.00  0.00    +0.000 N 
ATOM     18  C   UNL     1      -4.512   3.368 130.792  0.00  0.00    +0.000 C 
ATOM     19  C   UNL     1      -4.366   3.364 132.408  0.00  0.00    +0.000 C 
ATOM     20  O   UNL     1      -3.939   2.370 133.004  0.00  0.00    +0.000 OA
ENDROOT
BRANCH  10  21
ATOM     21  C   UNL     1      -6.510   5.738 130.370  0.00  0.00    +0.000 A 
ATOM     22  C   UNL     1      -7.285   6.627 131.112  0.00  0.00    +0.000 A 
ATOM     23  C   UNL     1      -8.659   6.701 131.282  0.00  0.00    +0.000 A 
ATOM     24  C   UNL     1      -9.396   5.760 130.643  0.00  0.00    +0.000 A 
ATOM     25  C   UNL     1      -8.712   4.790 129.898  0.00  0.00    +0.000 A 
ATOM     26  C   UNL     1      -7.286   4.745 129.798  0.00  0.00    +0.000 A 
ENDBRANCH  10  21
TORSDOF 1
ENDMDL
MODEL 9
REMARK VINA RESULT:      -7.5      4.763      7.413
REMARK  Name = Ketazolam
REMARK  3 active torsions:
REMARK  status: ('A' for Active; 'I' for Inactive)
REMARK    1  A    between atoms: C_1  and  N_2
REMARK    2  A    between atoms: C_10  and  C_21
REMARK    3  A    between atoms: C_12  and  C_13
REMARK                            x       y       z     vdW  Elec       q    Type
REMARK                         _______ _______ _______ _____ _____    ______ ____
ROOT
ATOM      1  C   UNL     1      -7.854   4.318 127.608  0.00  0.00    +0.000 C 
ATOM      2  N   UNL     1      -7.230   3.990 128.943  0.00  0.00    +0.000 N 
ATOM      3  C   UNL     1      -7.831   2.956 129.676  0.00  0.00    +0.000 A 
ATOM      4  C   UNL     1      -8.427   3.146 130.928  0.00  0.00    +0.000 A 
ATOM      5  C   UNL     1      -8.794   1.937 131.595  0.00  0.00    +0.000 A 
ATOM      6  C   UNL     1      -8.487   0.664 131.131  0.00  0.00    +0.000 A 
ATOM      7 CL   UNL     1      -8.766  -0.702 132.138  0.00  0.00    +0.000 Cl
ATOM      8  C   UNL     1      -7.937   0.518 129.880  0.00  0.00    +0.000 A 
ATOM      9  C   UNL     1      -7.650   1.661 129.139  0.00  0.00    +0.000 A 
ATOM     10  C   UNL     1      -8.662   4.525 131.656  0.00  0.00    +0.000 C 
ATOM     11  O   UNL     1      -9.317   4.101 132.899  0.00  0.00    +0.000 OA
ATOM     12  C   UNL     1      -8.429   3.875 133.978  0.00  0.00    +0.000 C 
ATOM     13  C   UNL     1      -7.294   2.863 133.909  0.00  0.00    +0.000 C 
ATOM     14  C   UNL     1      -7.996   5.022 134.459  0.00  0.00    +0.000 C 
ATOM     15  C   UNL     1      -7.050   5.524 133.350  0.00  0.00    +0.000 C 
ATOM     16  O   UNL     1      -5.983   5.941 133.690  0.00  0.00    +0.000 OA
ATOM     17  N   UNL     1      -7.389   5.220 131.981  0.00  0.00    +0.000 N 
ATOM     18  C   UNL     1      -6.478   5.618 130.830  0.00  0.00    +0.000 C 
ATOM     19  C   UNL     1      -6.165   4.675 129.547  0.00  0.00    +0.000 C 
ATOM     20  O   UNL     1      -5.072   4.725 128.974  0.00  0.00    +0.000 OA
ENDROOT
BRANCH  10  21
ATOM     21  C   UNL     1      -9.603   5.534 130.896  0.00  0.00    +0.000 A 
ATOM     22  C   UNL     1     -10.859   5.103 130.469  0.00  0.00    +0.000 A 
ATOM     23  C   UNL     1     -11.850   5.770 129.766  0.00  0.00    +0.000 A 
ATOM     24  C   UNL     1     -11.580   7.049 129.411  0.00  0.00    +0.000 A 
ATOM     25  C   UNL     1     -10.326   7.572 129.758  0.00  0.00    +0.000 A 
ATOM     26  C   UNL     1      -9.329   6.814 130.448  0.00  0.00    +0.000 A 
ENDBRANCH  10  21
TORSDOF 1
ENDMDL
