MODEL 1
REMARK VINA RESULT:      -7.6      0.000      0.000
REMARK  Name = Ketotifen
REMARK  1 active torsions:
REMARK  status: ('A' for Active; 'I' for Inactive)
REMARK    1  A    between atoms: C_1  and  N_2
REMARK                            x       y       z     vdW  Elec       q    Type
REMARK                         _______ _______ _______ _____ _____    ______ ____
ROOT
ATOM      1  C   UNL     1      -4.019   2.338 128.543  0.00  0.00    +0.000 C 
ATOM      2  N   UNL     1      -5.460   2.074 128.496  0.00  0.00    +0.000 NA
ATOM      3  C   UNL     1      -6.095   2.881 127.444  0.00  0.00    +0.000 C 
ATOM      4  C   UNL     1      -5.611   2.515 126.045  0.00  0.00    +0.000 C 
ATOM      5  C   UNL     1      -5.864   1.048 125.745  0.00  0.00    +0.000 C 
ATOM      6  C   UNL     1      -5.269   0.167 126.850  0.00  0.00    +0.000 C 
ATOM      7  C   UNL     1      -5.729   0.646 128.238  0.00  0.00    +0.000 C 
ATOM      8  C   UNL     1      -6.575   0.620 124.666  0.00  0.00    +0.000 C 
ATOM      9  C   UNL     1      -7.158   1.536 123.699  0.00  0.00    +0.000 A 
ATOM     10  C   UNL     1      -8.449   1.441 123.195  0.00  0.00    +0.000 A 
ATOM     11  S   UNL     1      -8.806   2.742 122.134  0.00  0.00    +0.000 S 
ATOM     12  C   UNL     1      -7.257   3.418 122.322  0.00  0.00    +0.000 A 
ATOM     13  C   UNL     1      -6.454   2.639 123.117  0.00  0.00    +0.000 A 
ATOM     14  C   UNL     1      -9.496   0.466 123.466  0.00  0.00    +0.000 C 
ATOM     15  O   UNL     1     -10.538   0.370 122.802  0.00  0.00    +0.000 OA
ATOM     16  C   UNL     1      -9.303  -0.424 124.673  0.00  0.00    +0.000 C 
ATOM     17  C   UNL     1      -8.119  -1.348 124.541  0.00  0.00    +0.000 A 
ATOM     18  C   UNL     1      -8.315  -2.727 124.435  0.00  0.00    +0.000 A 
ATOM     19  C   UNL     1      -7.224  -3.589 124.338  0.00  0.00    +0.000 A 
ATOM     20  C   UNL     1      -5.926  -3.085 124.313  0.00  0.00    +0.000 A 
ATOM     21  C   UNL     1      -5.719  -1.713 124.384  0.00  0.00    +0.000 A 
ATOM     22  C   UNL     1      -6.807  -0.839 124.530  0.00  0.00    +0.000 A 
ENDROOT
TORSDOF 0
ENDMDL
MODEL 2
REMARK VINA RESULT:      -7.3      4.451      6.833
REMARK  Name = Ketotifen
REMARK  1 active torsions:
REMARK  status: ('A' for Active; 'I' for Inactive)
REMARK    1  A    between atoms: C_1  and  N_2
REMARK                            x       y       z     vdW  Elec       q    Type
REMARK                         _______ _______ _______ _____ _____    ______ ____
ROOT
ATOM      1  C   UNL     1      -4.919  -4.824 132.720  0.00  0.00    +0.000 C 
ATOM      2  N   UNL     1      -4.424  -3.821 131.772  0.00  0.00    +0.000 NA
ATOM      3  C   UNL     1      -4.901  -4.121 130.414  0.00  0.00    +0.000 C 
ATOM      4  C   UNL     1      -6.418  -4.026 130.287  0.00  0.00    +0.000 C 
ATOM      5  C   UNL     1      -6.915  -2.645 130.678  0.00  0.00    +0.000 C 
ATOM      6  C   UNL     1      -6.391  -2.264 132.068  0.00  0.00    +0.000 C 
ATOM      7  C   UNL     1      -4.868  -2.466 132.153  0.00  0.00    +0.000 C 
ATOM      8  C   UNL     1      -7.669  -1.863 129.857  0.00  0.00    +0.000 C 
ATOM      9  C   UNL     1      -8.067  -2.286 128.525  0.00  0.00    +0.000 A 
ATOM     10  C   UNL     1      -7.998  -1.491 127.387  0.00  0.00    +0.000 A 
ATOM     11  S   UNL     1      -8.485  -2.355 125.986  0.00  0.00    +0.000 S 
ATOM     12  C   UNL     1      -8.807  -3.766 126.879  0.00  0.00    +0.000 A 
ATOM     13  C   UNL     1      -8.618  -3.573 128.224  0.00  0.00    +0.000 A 
ATOM     14  C   UNL     1      -7.550  -0.114 127.226  0.00  0.00    +0.000 C 
ATOM     15  O   UNL     1      -7.724   0.552 126.197  0.00  0.00    +0.000 OA
ATOM     16  C   UNL     1      -6.771   0.487 128.375  0.00  0.00    +0.000 C 
ATOM     17  C   UNL     1      -7.591   0.629 129.632  0.00  0.00    +0.000 A 
ATOM     18  C   UNL     1      -7.920   1.899 130.114  0.00  0.00    +0.000 A 
ATOM     19  C   UNL     1      -8.657   2.037 131.290  0.00  0.00    +0.000 A 
ATOM     20  C   UNL     1      -9.101   0.913 131.981  0.00  0.00    +0.000 A 
ATOM     21  C   UNL     1      -8.808  -0.355 131.494  0.00  0.00    +0.000 A 
ATOM     22  C   UNL     1      -8.028  -0.507 130.339  0.00  0.00    +0.000 A 
ENDROOT
TORSDOF 0
ENDMDL
MODEL 3
REMARK VINA RESULT:      -7.3      3.543      4.776
REMARK  Name = Ketotifen
REMARK  1 active torsions:
REMARK  status: ('A' for Active; 'I' for Inactive)
REMARK    1  A    between atoms: C_1  and  N_2
REMARK                            x       y       z     vdW  Elec       q    Type
REMARK                         _______ _______ _______ _____ _____    ______ ____
ROOT
ATOM      1  C   UNL     1      -4.661   3.086 127.694  0.00  0.00    +0.000 C 
ATOM      2  N   UNL     1      -5.855   2.521 128.329  0.00  0.00    +0.000 NA
ATOM      3  C   UNL     1      -6.733   1.911 127.320  0.00  0.00    +0.000 C 
ATOM      4  C   UNL     1      -6.090   0.716 126.623  0.00  0.00    +0.000 C 
ATOM      5  C   UNL     1      -5.692  -0.354 127.625  0.00  0.00    +0.000 C 
ATOM      6  C   UNL     1      -4.822   0.251 128.733  0.00  0.00    +0.000 C 
ATOM      7  C   UNL     1      -5.490   1.502 129.332  0.00  0.00    +0.000 C 
ATOM      8  C   UNL     1      -6.119  -1.644 127.547  0.00  0.00    +0.000 C 
ATOM      9  C   UNL     1      -6.998  -2.114 126.489  0.00  0.00    +0.000 A 
ATOM     10  C   UNL     1      -8.110  -2.924 126.683  0.00  0.00    +0.000 A 
ATOM     11  S   UNL     1      -8.943  -3.211 125.210  0.00  0.00    +0.000 S 
ATOM     12  C   UNL     1      -7.829  -2.290 124.315  0.00  0.00    +0.000 A 
ATOM     13  C   UNL     1      -6.802  -1.828 125.100  0.00  0.00    +0.000 A 
ATOM     14  C   UNL     1      -8.660  -3.490 127.907  0.00  0.00    +0.000 C 
ATOM     15  O   UNL     1      -9.541  -4.361 127.929  0.00  0.00    +0.000 OA
ATOM     16  C   UNL     1      -8.154  -2.916 129.211  0.00  0.00    +0.000 C 
ATOM     17  C   UNL     1      -6.687  -3.179 129.441  0.00  0.00    +0.000 A 
ATOM     18  C   UNL     1      -6.282  -4.030 130.473  0.00  0.00    +0.000 A 
ATOM     19  C   UNL     1      -4.927  -4.258 130.708  0.00  0.00    +0.000 A 
ATOM     20  C   UNL     1      -3.961  -3.666 129.897  0.00  0.00    +0.000 A 
ATOM     21  C   UNL     1      -4.352  -2.844 128.848  0.00  0.00    +0.000 A 
ATOM     22  C   UNL     1      -5.711  -2.570 128.632  0.00  0.00    +0.000 A 
ENDROOT
TORSDOF 0
ENDMDL
MODEL 4
REMARK VINA RESULT:      -7.2      3.316      6.199
REMARK  Name = Ketotifen
REMARK  1 active torsions:
REMARK  status: ('A' for Active; 'I' for Inactive)
REMARK    1  A    between atoms: C_1  and  N_2
REMARK                            x       y       z     vdW  Elec       q    Type
REMARK                         _______ _______ _______ _____ _____    ______ ____
ROOT
ATOM      1  C   UNL     1      -8.333   3.141 122.634  0.00  0.00    +0.000 C 
ATOM      2  N   UNL     1      -8.622   3.114 124.071  0.00  0.00    +0.000 NA
ATOM      3  C   UNL     1      -8.595   1.733 124.574  0.00  0.00    +0.000 C 
ATOM      4  C   UNL     1      -7.215   1.092 124.467  0.00  0.00    +0.000 C 
ATOM      5  C   UNL     1      -6.176   1.900 125.224  0.00  0.00    +0.000 C 
ATOM      6  C   UNL     1      -6.208   3.366 124.774  0.00  0.00    +0.000 C 
ATOM      7  C   UNL     1      -7.642   3.922 124.823  0.00  0.00    +0.000 C 
ATOM      8  C   UNL     1      -5.388   1.373 126.201  0.00  0.00    +0.000 C 
ATOM      9  C   UNL     1      -5.472  -0.021 126.606  0.00  0.00    +0.000 A 
ATOM     10  C   UNL     1      -5.492  -0.464 127.922  0.00  0.00    +0.000 A 
ATOM     11  S   UNL     1      -5.672  -2.169 128.008  0.00  0.00    +0.000 S 
ATOM     12  C   UNL     1      -5.702  -2.325 126.315  0.00  0.00    +0.000 A 
ATOM     13  C   UNL     1      -5.509  -1.120 125.688  0.00  0.00    +0.000 A 
ATOM     14  C   UNL     1      -5.431   0.286 129.169  0.00  0.00    +0.000 C 
ATOM     15  O   UNL     1      -5.254  -0.235 130.279  0.00  0.00    +0.000 OA
ATOM     16  C   UNL     1      -5.665   1.777 129.080  0.00  0.00    +0.000 C 
ATOM     17  C   UNL     1      -4.597   2.495 128.294  0.00  0.00    +0.000 A 
ATOM     18  C   UNL     1      -3.731   3.383 128.939  0.00  0.00    +0.000 A 
ATOM     19  C   UNL     1      -2.757   4.069 128.215  0.00  0.00    +0.000 A 
ATOM     20  C   UNL     1      -2.615   3.856 126.846  0.00  0.00    +0.000 A 
ATOM     21  C   UNL     1      -3.449   2.952 126.199  0.00  0.00    +0.000 A 
ATOM     22  C   UNL     1      -4.462   2.291 126.909  0.00  0.00    +0.000 A 
ENDROOT
TORSDOF 0
ENDMDL
MODEL 5
REMARK VINA RESULT:      -7.2      2.456      3.507
REMARK  Name = Ketotifen
REMARK  1 active torsions:
REMARK  status: ('A' for Active; 'I' for Inactive)
REMARK    1  A    between atoms: C_1  and  N_2
REMARK                            x       y       z     vdW  Elec       q    Type
REMARK                         _______ _______ _______ _____ _____    ______ ____
ROOT
ATOM      1  C   UNL     1      -6.942  -2.479 130.470  0.00  0.00    +0.000 C 
ATOM      2  N   UNL     1      -7.873  -1.787 129.573  0.00  0.00    +0.000 NA
ATOM      3  C   UNL     1      -7.488  -0.376 129.425  0.00  0.00    +0.000 C 
ATOM      4  C   UNL     1      -6.132  -0.201 128.750  0.00  0.00    +0.000 C 
ATOM      5  C   UNL     1      -6.117  -0.851 127.377  0.00  0.00    +0.000 C 
ATOM      6  C   UNL     1      -6.570  -2.313 127.474  0.00  0.00    +0.000 C 
ATOM      7  C   UNL     1      -7.899  -2.424 128.242  0.00  0.00    +0.000 C 
ATOM      8  C   UNL     1      -5.796  -0.179 126.237  0.00  0.00    +0.000 C 
ATOM      9  C   UNL     1      -5.438   1.230 126.235  0.00  0.00    +0.000 A 
ATOM     10  C   UNL     1      -5.922   2.170 125.334  0.00  0.00    +0.000 A 
ATOM     11  S   UNL     1      -5.332   3.742 125.689  0.00  0.00    +0.000 S 
ATOM     12  C   UNL     1      -4.424   3.183 127.013  0.00  0.00    +0.000 A 
ATOM     13  C   UNL     1      -4.505   1.820 127.147  0.00  0.00    +0.000 A 
ATOM     14  C   UNL     1      -6.848   2.016 124.220  0.00  0.00    +0.000 C 
ATOM     15  O   UNL     1      -7.048   2.890 123.365  0.00  0.00    +0.000 OA
ATOM     16  C   UNL     1      -7.645   0.732 124.168  0.00  0.00    +0.000 C 
ATOM     17  C   UNL     1      -6.783  -0.487 123.957  0.00  0.00    +0.000 A 
ATOM     18  C   UNL     1      -6.873  -1.210 122.765  0.00  0.00    +0.000 A 
ATOM     19  C   UNL     1      -6.098  -2.353 122.573  0.00  0.00    +0.000 A 
ATOM     20  C   UNL     1      -5.202  -2.771 123.555  0.00  0.00    +0.000 A 
ATOM     21  C   UNL     1      -5.080  -2.042 124.731  0.00  0.00    +0.000 A 
ATOM     22  C   UNL     1      -5.889  -0.918 124.954  0.00  0.00    +0.000 A 
ENDROOT
TORSDOF 0
ENDMDL
MODEL 6
REMARK VINA RESULT:      -7.0      6.057      8.250
REMARK  Name = Ketotifen
REMARK  1 active torsions:
REMARK  status: ('A' for Active; 'I' for Inactive)
REMARK    1  A    between atoms: C_1  and  N_2
REMARK                            x       y       z     vdW  Elec       q    Type
REMARK                         _______ _______ _______ _____ _____    ______ ____
ROOT
ATOM      1  C   UNL     1     -12.450   7.833 130.421  0.00  0.00    +0.000 C 
ATOM      2  N   UNL     1     -11.798   7.094 129.336  0.00  0.00    +0.000 NA
ATOM      3  C   UNL     1     -10.393   7.505 129.209  0.00  0.00    +0.000 C 
ATOM      4  C   UNL     1      -9.561   7.155 130.439  0.00  0.00    +0.000 C 
ATOM      5  C   UNL     1      -9.603   5.663 130.722  0.00  0.00    +0.000 C 
ATOM      6  C   UNL     1     -11.055   5.177 130.804  0.00  0.00    +0.000 C 
ATOM      7  C   UNL     1     -11.858   5.639 129.574  0.00  0.00    +0.000 C 
ATOM      8  C   UNL     1      -8.486   4.892 130.822  0.00  0.00    +0.000 C 
ATOM      9  C   UNL     1      -7.146   5.432 130.667  0.00  0.00    +0.000 A 
ATOM     10  C   UNL     1      -6.137   4.846 129.913  0.00  0.00    +0.000 A 
ATOM     11  S   UNL     1      -4.717   5.811 129.906  0.00  0.00    +0.000 S 
ATOM     12  C   UNL     1      -5.422   6.986 130.912  0.00  0.00    +0.000 A 
ATOM     13  C   UNL     1      -6.686   6.628 131.307  0.00  0.00    +0.000 A 
ATOM     14  C   UNL     1      -6.138   3.616 129.133  0.00  0.00    +0.000 C 
ATOM     15  O   UNL     1      -5.116   3.095 128.667  0.00  0.00    +0.000 OA
ATOM     16  C   UNL     1      -7.486   2.999 128.836  0.00  0.00    +0.000 C 
ATOM     17  C   UNL     1      -8.200   2.520 130.074  0.00  0.00    +0.000 A 
ATOM     18  C   UNL     1      -8.407   1.153 130.278  0.00  0.00    +0.000 A 
ATOM     19  C   UNL     1      -9.089   0.704 131.408  0.00  0.00    +0.000 A 
ATOM     20  C   UNL     1      -9.545   1.610 132.364  0.00  0.00    +0.000 A 
ATOM     21  C   UNL     1      -9.317   2.969 132.188  0.00  0.00    +0.000 A 
ATOM     22  C   UNL     1      -8.674   3.435 131.032  0.00  0.00    +0.000 A 
ENDROOT
TORSDOF 0
ENDMDL
MODEL 7
REMARK VINA RESULT:      -6.8      3.539      5.791
REMARK  Name = Ketotifen
REMARK  1 active torsions:
REMARK  status: ('A' for Active; 'I' for Inactive)
REMARK    1  A    between atoms: C_1  and  N_2
REMARK                            x       y       z     vdW  Elec       q    Type
REMARK                         _______ _______ _______ _____ _____    ______ ____
ROOT
ATOM      1  C   UNL     1      -3.774  -3.235 132.224  0.00  0.00    +0.000 C 
ATOM      2  N   UNL     1      -3.371  -3.296 130.816  0.00  0.00    +0.000 NA
ATOM      3  C   UNL     1      -4.385  -4.005 130.023  0.00  0.00    +0.000 C 
ATOM      4  C   UNL     1      -5.724  -3.275 129.987  0.00  0.00    +0.000 C 
ATOM      5  C   UNL     1      -5.567  -1.871 129.426  0.00  0.00    +0.000 C 
ATOM      6  C   UNL     1      -4.473  -1.112 130.187  0.00  0.00    +0.000 C 
ATOM      7  C   UNL     1      -3.180  -1.943 130.260  0.00  0.00    +0.000 C 
ATOM      8  C   UNL     1      -6.275  -1.413 128.358  0.00  0.00    +0.000 C 
ATOM      9  C   UNL     1      -7.252  -2.230 127.657  0.00  0.00    +0.000 A 
ATOM     10  C   UNL     1      -7.356  -2.331 126.276  0.00  0.00    +0.000 A 
ATOM     11  S   UNL     1      -8.577  -3.447 125.818  0.00  0.00    +0.000 S 
ATOM     12  C   UNL     1      -8.982  -3.781 127.435  0.00  0.00    +0.000 A 
ATOM     13  C   UNL     1      -8.257  -3.012 128.311  0.00  0.00    +0.000 A 
ATOM     14  C   UNL     1      -6.581  -1.687 125.224  0.00  0.00    +0.000 C 
ATOM     15  O   UNL     1      -6.899  -1.701 124.027  0.00  0.00    +0.000 OA
ATOM     16  C   UNL     1      -5.284  -1.029 125.638  0.00  0.00    +0.000 C 
ATOM     17  C   UNL     1      -5.488   0.144 126.563  0.00  0.00    +0.000 A 
ATOM     18  C   UNL     1      -5.187   1.438 126.128  0.00  0.00    +0.000 A 
ATOM     19  C   UNL     1      -5.350   2.525 126.986  0.00  0.00    +0.000 A 
ATOM     20  C   UNL     1      -5.843   2.339 128.276  0.00  0.00    +0.000 A 
ATOM     21  C   UNL     1      -6.177   1.062 128.708  0.00  0.00    +0.000 A 
ATOM     22  C   UNL     1      -5.973  -0.045 127.870  0.00  0.00    +0.000 A 
ENDROOT
TORSDOF 0
ENDMDL
MODEL 8
REMARK VINA RESULT:      -6.8      3.750      5.821
REMARK  Name = Ketotifen
REMARK  1 active torsions:
REMARK  status: ('A' for Active; 'I' for Inactive)
REMARK    1  A    between atoms: C_1  and  N_2
REMARK                            x       y       z     vdW  Elec       q    Type
REMARK                         _______ _______ _______ _____ _____    ______ ____
ROOT
ATOM      1  C   UNL     1      -9.750  -3.265 123.232  0.00  0.00    +0.000 C 
ATOM      2  N   UNL     1      -8.335  -2.983 123.487  0.00  0.00    +0.000 NA
ATOM      3  C   UNL     1      -8.128  -1.543 123.693  0.00  0.00    +0.000 C 
ATOM      4  C   UNL     1      -8.835  -1.017 124.939  0.00  0.00    +0.000 C 
ATOM      5  C   UNL     1      -8.371  -1.754 126.183  0.00  0.00    +0.000 C 
ATOM      6  C   UNL     1      -8.512  -3.268 125.990  0.00  0.00    +0.000 C 
ATOM      7  C   UNL     1      -7.853  -3.716 124.674  0.00  0.00    +0.000 C 
ATOM      8  C   UNL     1      -7.853  -1.123 127.273  0.00  0.00    +0.000 C 
ATOM      9  C   UNL     1      -7.699   0.321 127.341  0.00  0.00    +0.000 A 
ATOM     10  C   UNL     1      -6.564   0.976 127.802  0.00  0.00    +0.000 A 
ATOM     11  S   UNL     1      -6.723   2.680 127.664  0.00  0.00    +0.000 S 
ATOM     12  C   UNL     1      -8.291   2.555 127.019  0.00  0.00    +0.000 A 
ATOM     13  C   UNL     1      -8.721   1.253 126.971  0.00  0.00    +0.000 A 
ATOM     14  C   UNL     1      -5.310   0.440 128.314  0.00  0.00    +0.000 C 
ATOM     15  O   UNL     1      -4.449   1.125 128.883  0.00  0.00    +0.000 OA
ATOM     16  C   UNL     1      -5.044  -1.027 128.065  0.00  0.00    +0.000 C 
ATOM     17  C   UNL     1      -6.020  -1.932 128.773  0.00  0.00    +0.000 A 
ATOM     18  C   UNL     1      -5.582  -2.754 129.816  0.00  0.00    +0.000 A 
ATOM     19  C   UNL     1      -6.474  -3.611 130.459  0.00  0.00    +0.000 A 
ATOM     20  C   UNL     1      -7.817  -3.637 130.092  0.00  0.00    +0.000 A 
ATOM     21  C   UNL     1      -8.271  -2.801 129.079  0.00  0.00    +0.000 A 
ATOM     22  C   UNL     1      -7.374  -1.969 128.394  0.00  0.00    +0.000 A 
ENDROOT
TORSDOF 0
ENDMDL
MODEL 9
REMARK VINA RESULT:      -6.6      9.575     12.143
REMARK  Name = Ketotifen
REMARK  1 active torsions:
REMARK  status: ('A' for Active; 'I' for Inactive)
REMARK    1  A    between atoms: C_1  and  N_2
REMARK                            x       y       z     vdW  Elec       q    Type
REMARK                         _______ _______ _______ _____ _____    ______ ____
ROOT
ATOM      1  C   UNL     1      -1.326  11.562 135.057  0.00  0.00    +0.000 C 
ATOM      2  N   UNL     1      -0.557  10.344 134.783  0.00  0.00    +0.000 NA
ATOM      3  C   UNL     1      -1.080   9.219 135.571  0.00  0.00    +0.000 C 
ATOM      4  C   UNL     1      -2.508   8.843 135.190  0.00  0.00    +0.000 C 
ATOM      5  C   UNL     1      -2.604   8.484 133.717  0.00  0.00    +0.000 C 
ATOM      6  C   UNL     1      -2.014   9.607 132.855  0.00  0.00    +0.000 C 
ATOM      7  C   UNL     1      -0.610   9.996 133.350  0.00  0.00    +0.000 C 
ATOM      8  C   UNL     1      -3.098   7.297 133.270  0.00  0.00    +0.000 C 
ATOM      9  C   UNL     1      -3.580   6.262 134.169  0.00  0.00    +0.000 A 
ATOM     10  C   UNL     1      -3.275   4.910 134.059  0.00  0.00    +0.000 A 
ATOM     11  S   UNL     1      -3.965   4.004 135.343  0.00  0.00    +0.000 S 
ATOM     12  C   UNL     1      -4.681   5.385 136.031  0.00  0.00    +0.000 A 
ATOM     13  C   UNL     1      -4.464   6.505 135.268  0.00  0.00    +0.000 A 
ATOM     14  C   UNL     1      -2.457   4.207 133.080  0.00  0.00    +0.000 C 
ATOM     15  O   UNL     1      -2.424   2.973 132.969  0.00  0.00    +0.000 OA
ATOM     16  C   UNL     1      -1.558   5.054 132.209  0.00  0.00    +0.000 C 
ATOM     17  C   UNL     1      -2.323   5.973 131.291  0.00  0.00    +0.000 A 
ATOM     18  C   UNL     1      -2.290   5.769 129.909  0.00  0.00    +0.000 A 
ATOM     19  C   UNL     1      -2.975   6.630 129.052  0.00  0.00    +0.000 A 
ATOM     20  C   UNL     1      -3.725   7.686 129.565  0.00  0.00    +0.000 A 
ATOM     21  C   UNL     1      -3.792   7.880 130.939  0.00  0.00    +0.000 A 
ATOM     22  C   UNL     1      -3.070   7.048 131.807  0.00  0.00    +0.000 A 
ENDROOT
TORSDOF 0
ENDMDL
