MODEL 1
REMARK VINA RESULT:      -9.2      0.000      0.000
REMARK  Name = Ketoconazole
REMARK  8 active torsions:
REMARK  status: ('A' for Active; 'I' for Inactive)
REMARK    1  A    between atoms: C_1  and  C_2
REMARK    2  A    between atoms: N_7  and  C_10
REMARK    3  A    between atoms: C_13  and  O_14
REMARK    4  A    between atoms: O_14  and  C_15
REMARK    5  A    between atoms: C_15  and  C_16
REMARK    6  A    between atoms: C_19  and  C_20
REMARK    7  A    between atoms: C_19  and  C_27
REMARK    8  A    between atoms: C_20  and  N_21
REMARK                            x       y       z     vdW  Elec       q    Type
REMARK                         _______ _______ _______ _____ _____    ______ ____
ROOT
ATOM      1  C   UNL     1      -7.831  -0.557 131.321  0.00  0.00    +0.000 C 
ATOM      2  C   UNL     1      -7.534  -2.047 131.463  0.00  0.00    +0.000 C 
ATOM      3  O   UNL     1      -6.992  -2.502 130.211  0.00  0.00    +0.000 OA
ATOM      4  C   UNL     1      -7.088  -1.392 129.304  0.00  0.00    +0.000 C 
ATOM      5  O   UNL     1      -7.845  -0.325 129.910  0.00  0.00    +0.000 OA
ENDROOT
BRANCH   4   6
ATOM      6  C   UNL     1      -7.798  -1.812 127.998  0.00  0.00    +0.000 A 
ATOM      7  C   UNL     1      -8.217  -3.157 127.799  0.00  0.00    +0.000 A 
ATOM      8  C   UNL     1      -8.700  -3.617 126.574  0.00  0.00    +0.000 A 
ATOM      9  C   UNL     1      -8.885  -2.721 125.538  0.00  0.00    +0.000 A 
ATOM     10 CL   UNL     1      -9.576  -3.256 124.060  0.00  0.00    +0.000 Cl
ATOM     11  C   UNL     1      -8.547  -1.386 125.706  0.00  0.00    +0.000 A 
ATOM     12  C   UNL     1      -8.004  -0.932 126.917  0.00  0.00    +0.000 A 
ATOM     13 CL   UNL     1      -7.638   0.753 126.956  0.00  0.00    +0.000 Cl
ENDBRANCH   4   6
BRANCH   1  14
ATOM     14  C   UNL     1      -7.341   0.662 132.162  0.00  0.00    +0.000 C 
BRANCH  14  15
ATOM     15  O   UNL     1      -8.362   1.267 132.984  0.00  0.00    +0.000 OA
BRANCH  15  19
ATOM     16  C   UNL     1     -10.134   4.907 131.720  0.00  0.00    +0.000 A 
ATOM     17  C   UNL     1      -9.539   4.742 132.977  0.00  0.00    +0.000 A 
ATOM     18  C   UNL     1      -8.917   3.535 133.350  0.00  0.00    +0.000 A 
ATOM     19  C   UNL     1      -8.937   2.425 132.501  0.00  0.00    +0.000 A 
ATOM     20  C   UNL     1      -9.542   2.572 131.255  0.00  0.00    +0.000 A 
ATOM     21  C   UNL     1     -10.138   3.791 130.877  0.00  0.00    +0.000 A 
BRANCH  16  28
ATOM     22  C   UNL     1     -13.128  10.133 130.140  0.00  0.00    +0.000 C 
ATOM     23  C   UNL     1     -12.833   8.972 129.224  0.00  0.00    +0.000 C 
ATOM     24  O   UNL     1     -12.867   9.130 127.993  0.00  0.00    +0.000 OA
ATOM     25  N   UNL     1     -12.347   7.822 129.801  0.00  0.00    +0.000 N 
ATOM     26  C   UNL     1     -11.301   7.055 129.119  0.00  0.00    +0.000 C 
ATOM     27  C   UNL     1     -10.132   6.783 130.101  0.00  0.00    +0.000 C 
ATOM     28  N   UNL     1     -10.638   6.125 131.318  0.00  0.00    +0.000 N 
ATOM     29  C   UNL     1     -11.753   6.803 131.997  0.00  0.00    +0.000 C 
ATOM     30  C   UNL     1     -12.879   7.152 130.999  0.00  0.00    +0.000 C 
ENDBRANCH  16  28
ENDBRANCH  15  19
ENDBRANCH  14  15
ENDBRANCH   1  14
BRANCH   4  31
ATOM     31  C   UNL     1      -5.645  -0.904 128.996  0.00  0.00    +0.000 C 
BRANCH  31  32
ATOM     32  N   UNL     1      -4.587  -1.841 129.290  0.00  0.00    +0.000 N 
ATOM     33  C   UNL     1      -4.260  -2.959 128.581  0.00  0.00    +0.000 A 
ATOM     34  C   UNL     1      -3.316  -3.593 129.349  0.00  0.00    +0.000 A 
ATOM     35  N   UNL     1      -2.980  -2.826 130.432  0.00  0.00    +0.000 NA
ATOM     36  C   UNL     1      -3.756  -1.769 130.365  0.00  0.00    +0.000 A 
ENDBRANCH  31  32
ENDBRANCH   4  31
TORSDOF 7
ENDMDL
MODEL 2
REMARK VINA RESULT:      -8.8      5.388      7.279
REMARK  Name = Ketoconazole
REMARK  8 active torsions:
REMARK  status: ('A' for Active; 'I' for Inactive)
REMARK    1  A    between atoms: C_1  and  C_2
REMARK    2  A    between atoms: N_7  and  C_10
REMARK    3  A    between atoms: C_13  and  O_14
REMARK    4  A    between atoms: O_14  and  C_15
REMARK    5  A    between atoms: C_15  and  C_16
REMARK    6  A    between atoms: C_19  and  C_20
REMARK    7  A    between atoms: C_19  and  C_27
REMARK    8  A    between atoms: C_20  and  N_21
REMARK                            x       y       z     vdW  Elec       q    Type
REMARK                         _______ _______ _______ _____ _____    ______ ____
ROOT
ATOM      1  C   UNL     1      -8.518   1.585 123.552  0.00  0.00    +0.000 C 
ATOM      2  C   UNL     1      -9.604   0.606 123.120  0.00  0.00    +0.000 C 
ATOM      3  O   UNL     1      -9.454  -0.586 123.910  0.00  0.00    +0.000 OA
ATOM      4  C   UNL     1      -8.254  -0.410 124.679  0.00  0.00    +0.000 C 
ATOM      5  O   UNL     1      -7.561   0.779 124.247  0.00  0.00    +0.000 OA
ENDROOT
BRANCH   4   6
ATOM      6  C   UNL     1      -7.307  -1.617 124.501  0.00  0.00    +0.000 A 
ATOM      7  C   UNL     1      -5.952  -1.426 124.114  0.00  0.00    +0.000 A 
ATOM      8  C   UNL     1      -5.113  -2.487 123.773  0.00  0.00    +0.000 A 
ATOM      9  C   UNL     1      -5.570  -3.785 123.915  0.00  0.00    +0.000 A 
ATOM     10 CL   UNL     1      -4.514  -5.101 123.598  0.00  0.00    +0.000 Cl
ATOM     11  C   UNL     1      -6.867  -4.021 124.347  0.00  0.00    +0.000 A 
ATOM     12  C   UNL     1      -7.732  -2.954 124.633  0.00  0.00    +0.000 A 
ATOM     13 CL   UNL     1      -9.307  -3.424 125.156  0.00  0.00    +0.000 Cl
ENDBRANCH   4   6
BRANCH   1  14
ATOM     14  C   UNL     1      -8.620   3.048 124.083  0.00  0.00    +0.000 C 
BRANCH  14  15
ATOM     15  O   UNL     1      -7.398   3.809 123.968  0.00  0.00    +0.000 OA
BRANCH  15  19
ATOM     16  C   UNL     1      -4.820   4.002 127.328  0.00  0.00    +0.000 A 
ATOM     17  C   UNL     1      -4.354   3.853 126.016  0.00  0.00    +0.000 A 
ATOM     18  C   UNL     1      -5.233   3.840 124.915  0.00  0.00    +0.000 A 
ATOM     19  C   UNL     1      -6.617   3.899 125.102  0.00  0.00    +0.000 A 
ATOM     20  C   UNL     1      -7.092   4.028 126.405  0.00  0.00    +0.000 A 
ATOM     21  C   UNL     1      -6.205   4.070 127.499  0.00  0.00    +0.000 A 
BRANCH  16  28
ATOM     22  C   UNL     1      -1.532   4.735 132.566  0.00  0.00    +0.000 C 
ATOM     23  C   UNL     1      -1.822   5.808 131.547  0.00  0.00    +0.000 C 
ATOM     24  O   UNL     1      -1.128   6.837 131.515  0.00  0.00    +0.000 OA
ATOM     25  N   UNL     1      -2.735   5.511 130.562  0.00  0.00    +0.000 N 
ATOM     26  C   UNL     1      -2.499   5.973 129.192  0.00  0.00    +0.000 C 
ATOM     27  C   UNL     1      -2.638   4.781 128.209  0.00  0.00    +0.000 C 
ATOM     28  N   UNL     1      -3.948   4.130 128.388  0.00  0.00    +0.000 N 
ATOM     29  C   UNL     1      -4.280   3.726 129.763  0.00  0.00    +0.000 C 
ATOM     30  C   UNL     1      -4.057   4.890 130.752  0.00  0.00    +0.000 C 
ENDBRANCH  16  28
ENDBRANCH  15  19
ENDBRANCH  14  15
ENDBRANCH   1  14
BRANCH   4  31
ATOM     31  C   UNL     1      -8.664  -0.265 126.172  0.00  0.00    +0.000 C 
BRANCH  31  32
ATOM     32  N   UNL     1      -7.600  -0.426 127.134  0.00  0.00    +0.000 N 
ATOM     33  C   UNL     1      -6.550   0.419 127.346  0.00  0.00    +0.000 A 
ATOM     34  C   UNL     1      -5.739  -0.251 128.227  0.00  0.00    +0.000 A 
ATOM     35  N   UNL     1      -6.332  -1.412 128.644  0.00  0.00    +0.000 NA
ATOM     36  C   UNL     1      -7.459  -1.487 127.974  0.00  0.00    +0.000 A 
ENDBRANCH  31  32
ENDBRANCH   4  31
TORSDOF 7
ENDMDL
MODEL 3
REMARK VINA RESULT:      -8.7      1.944      2.834
REMARK  Name = Ketoconazole
REMARK  8 active torsions:
REMARK  status: ('A' for Active; 'I' for Inactive)
REMARK    1  A    between atoms: C_1  and  C_2
REMARK    2  A    between atoms: N_7  and  C_10
REMARK    3  A    between atoms: C_13  and  O_14
REMARK    4  A    between atoms: O_14  and  C_15
REMARK    5  A    between atoms: C_15  and  C_16
REMARK    6  A    between atoms: C_19  and  C_20
REMARK    7  A    between atoms: C_19  and  C_27
REMARK    8  A    between atoms: C_20  and  N_21
REMARK                            x       y       z     vdW  Elec       q    Type
REMARK                         _______ _______ _______ _____ _____    ______ ____
ROOT
ATOM      1  C   UNL     1      -7.041  -0.742 130.153  0.00  0.00    +0.000 C 
ATOM      2  C   UNL     1      -6.107  -1.943 130.048  0.00  0.00    +0.000 C 
ATOM      3  O   UNL     1      -5.759  -2.103 128.662  0.00  0.00    +0.000 OA
ATOM      4  C   UNL     1      -6.550  -1.148 127.937  0.00  0.00    +0.000 C 
ATOM      5  O   UNL     1      -7.511  -0.533 128.818  0.00  0.00    +0.000 OA
ENDROOT
BRANCH   4   6
ATOM      6  C   UNL     1      -7.317  -1.834 126.784  0.00  0.00    +0.000 A 
ATOM      7  C   UNL     1      -7.106  -1.438 125.435  0.00  0.00    +0.000 A 
ATOM      8  C   UNL     1      -7.897  -1.903 124.384  0.00  0.00    +0.000 A 
ATOM      9  C   UNL     1      -8.857  -2.866 124.634  0.00  0.00    +0.000 A 
ATOM     10 CL   UNL     1      -9.767  -3.522 123.334  0.00  0.00    +0.000 Cl
ATOM     11  C   UNL     1      -9.058  -3.328 125.928  0.00  0.00    +0.000 A 
ATOM     12  C   UNL     1      -8.304  -2.817 126.994  0.00  0.00    +0.000 A 
ATOM     13 CL   UNL     1      -8.682  -3.497 128.534  0.00  0.00    +0.000 Cl
ENDBRANCH   4   6
BRANCH   1  14
ATOM     14  C   UNL     1      -6.926   0.564 130.999  0.00  0.00    +0.000 C 
BRANCH  14  15
ATOM     15  O   UNL     1      -8.077   0.840 131.827  0.00  0.00    +0.000 OA
BRANCH  15  19
ATOM     16  C   UNL     1      -9.711   4.709 131.251  0.00  0.00    +0.000 A 
ATOM     17  C   UNL     1      -9.290   3.892 130.194  0.00  0.00    +0.000 A 
ATOM     18  C   UNL     1      -8.795   2.593 130.414  0.00  0.00    +0.000 A 
ATOM     19  C   UNL     1      -8.634   2.096 131.711  0.00  0.00    +0.000 A 
ATOM     20  C   UNL     1      -9.033   2.908 132.771  0.00  0.00    +0.000 A 
ATOM     21  C   UNL     1      -9.554   4.196 132.541  0.00  0.00    +0.000 A 
BRANCH  16  28
ATOM     22  C   UNL     1     -13.056   9.907 130.489  0.00  0.00    +0.000 C 
ATOM     23  C   UNL     1     -12.815   8.849 129.441  0.00  0.00    +0.000 C 
ATOM     24  O   UNL     1     -12.987   9.115 128.241  0.00  0.00    +0.000 OA
ATOM     25  N   UNL     1     -12.227   7.676 129.854  0.00  0.00    +0.000 N 
ATOM     26  C   UNL     1     -11.231   7.026 128.999  0.00  0.00    +0.000 C 
ATOM     27  C   UNL     1      -9.954   6.722 129.825  0.00  0.00    +0.000 C 
ATOM     28  N   UNL     1     -10.302   5.933 131.020  0.00  0.00    +0.000 N 
ATOM     29  C   UNL     1     -11.364   6.493 131.871  0.00  0.00    +0.000 C 
ATOM     30  C   UNL     1     -12.602   6.876 131.031  0.00  0.00    +0.000 C 
ENDBRANCH  16  28
ENDBRANCH  15  19
ENDBRANCH  14  15
ENDBRANCH   1  14
BRANCH   4  31
ATOM     31  C   UNL     1      -5.588  -0.066 127.371  0.00  0.00    +0.000 C 
BRANCH  31  32
ATOM     32  N   UNL     1      -6.038   1.300 127.491  0.00  0.00    +0.000 N 
ATOM     33  C   UNL     1      -7.123   1.864 126.886  0.00  0.00    +0.000 A 
ATOM     34  C   UNL     1      -7.024   3.201 127.175  0.00  0.00    +0.000 A 
ATOM     35  N   UNL     1      -5.986   3.435 128.035  0.00  0.00    +0.000 NA
ATOM     36  C   UNL     1      -5.414   2.267 128.217  0.00  0.00    +0.000 A 
ENDBRANCH  31  32
ENDBRANCH   4  31
TORSDOF 7
ENDMDL
MODEL 4
REMARK VINA RESULT:      -8.6      1.768      2.071
REMARK  Name = Ketoconazole
REMARK  8 active torsions:
REMARK  status: ('A' for Active; 'I' for Inactive)
REMARK    1  A    between atoms: C_1  and  C_2
REMARK    2  A    between atoms: N_7  and  C_10
REMARK    3  A    between atoms: C_13  and  O_14
REMARK    4  A    between atoms: O_14  and  C_15
REMARK    5  A    between atoms: C_15  and  C_16
REMARK    6  A    between atoms: C_19  and  C_20
REMARK    7  A    between atoms: C_19  and  C_27
REMARK    8  A    between atoms: C_20  and  N_21
REMARK                            x       y       z     vdW  Elec       q    Type
REMARK                         _______ _______ _______ _____ _____    ______ ____
ROOT
ATOM      1  C   UNL     1      -7.073   0.016 132.025  0.00  0.00    +0.000 C 
ATOM      2  C   UNL     1      -7.811  -1.216 132.537  0.00  0.00    +0.000 C 
ATOM      3  O   UNL     1      -7.493  -2.309 131.659  0.00  0.00    +0.000 OA
ATOM      4  C   UNL     1      -6.723  -1.749 130.583  0.00  0.00    +0.000 C 
ATOM      5  O   UNL     1      -6.716  -0.310 130.679  0.00  0.00    +0.000 OA
ENDROOT
BRANCH   4   6
ATOM      6  C   UNL     1      -7.324  -2.143 129.216  0.00  0.00    +0.000 A 
ATOM      7  C   UNL     1      -8.327  -3.147 129.126  0.00  0.00    +0.000 A 
ATOM      8  C   UNL     1      -8.771  -3.656 127.905  0.00  0.00    +0.000 A 
ATOM      9  C   UNL     1      -8.304  -3.099 126.729  0.00  0.00    +0.000 A 
ATOM     10 CL   UNL     1      -8.919  -3.647 125.222  0.00  0.00    +0.000 Cl
ATOM     11  C   UNL     1      -7.368  -2.075 126.768  0.00  0.00    +0.000 A 
ATOM     12  C   UNL     1      -6.876  -1.603 127.994  0.00  0.00    +0.000 A 
ATOM     13 CL   UNL     1      -5.719  -0.331 127.863  0.00  0.00    +0.000 Cl
ENDBRANCH   4   6
BRANCH   1  14
ATOM     14  C   UNL     1      -6.060   0.964 132.739  0.00  0.00    +0.000 C 
BRANCH  14  15
ATOM     15  O   UNL     1      -6.649   1.814 133.747  0.00  0.00    +0.000 OA
BRANCH  15  19
ATOM     16  C   UNL     1      -8.904   5.090 132.277  0.00  0.00    +0.000 A 
ATOM     17  C   UNL     1      -7.589   4.825 131.874  0.00  0.00    +0.000 A 
ATOM     18  C   UNL     1      -6.882   3.702 132.345  0.00  0.00    +0.000 A 
ATOM     19  C   UNL     1      -7.446   2.846 133.296  0.00  0.00    +0.000 A 
ATOM     20  C   UNL     1      -8.747   3.111 133.718  0.00  0.00    +0.000 A 
ATOM     21  C   UNL     1      -9.459   4.221 133.220  0.00  0.00    +0.000 A 
BRANCH  16  28
ATOM     22  C   UNL     1     -12.809   9.261 129.799  0.00  0.00    +0.000 C 
ATOM     23  C   UNL     1     -11.915   8.320 129.030  0.00  0.00    +0.000 C 
ATOM     24  O   UNL     1     -11.645   8.556 127.841  0.00  0.00    +0.000 OA
ATOM     25  N   UNL     1     -11.278   7.332 129.743  0.00  0.00    +0.000 N 
ATOM     26  C   UNL     1      -9.895   6.977 129.413  0.00  0.00    +0.000 C 
ATOM     27  C   UNL     1      -9.031   6.998 130.700  0.00  0.00    +0.000 C 
ATOM     28  N   UNL     1      -9.629   6.124 131.724  0.00  0.00    +0.000 N 
ATOM     29  C   UNL     1     -11.045   6.375 132.033  0.00  0.00    +0.000 C 
ATOM     30  C   UNL     1     -11.890   6.440 130.742  0.00  0.00    +0.000 C 
ENDBRANCH  16  28
ENDBRANCH  15  19
ENDBRANCH  14  15
ENDBRANCH   1  14
BRANCH   4  31
ATOM     31  C   UNL     1      -5.271  -2.291 130.707  0.00  0.00    +0.000 C 
BRANCH  31  32
ATOM     32  N   UNL     1      -5.068  -3.328 131.689  0.00  0.00    +0.000 N 
ATOM     33  C   UNL     1      -4.518  -3.189 132.929  0.00  0.00    +0.000 A 
ATOM     34  C   UNL     1      -4.390  -4.472 133.398  0.00  0.00    +0.000 A 
ATOM     35  N   UNL     1      -4.960  -5.363 132.530  0.00  0.00    +0.000 NA
ATOM     36  C   UNL     1      -5.371  -4.643 131.511  0.00  0.00    +0.000 A 
ENDBRANCH  31  32
ENDBRANCH   4  31
TORSDOF 7
ENDMDL
MODEL 5
REMARK VINA RESULT:      -8.6      7.027      8.900
REMARK  Name = Ketoconazole
REMARK  8 active torsions:
REMARK  status: ('A' for Active; 'I' for Inactive)
REMARK    1  A    between atoms: C_1  and  C_2
REMARK    2  A    between atoms: N_7  and  C_10
REMARK    3  A    between atoms: C_13  and  O_14
REMARK    4  A    between atoms: O_14  and  C_15
REMARK    5  A    between atoms: C_15  and  C_16
REMARK    6  A    between atoms: C_19  and  C_20
REMARK    7  A    between atoms: C_19  and  C_27
REMARK    8  A    between atoms: C_20  and  N_21
REMARK                            x       y       z     vdW  Elec       q    Type
REMARK                         _______ _______ _______ _____ _____    ______ ____
ROOT
ATOM      1  C   UNL     1      -5.947   3.430 125.487  0.00  0.00    +0.000 C 
ATOM      2  C   UNL     1      -7.353   4.006 125.353  0.00  0.00    +0.000 C 
ATOM      3  O   UNL     1      -7.867   3.601 124.072  0.00  0.00    +0.000 OA
ATOM      4  C   UNL     1      -6.785   2.942 123.396  0.00  0.00    +0.000 C 
ATOM      5  O   UNL     1      -5.566   3.092 124.151  0.00  0.00    +0.000 OA
ENDROOT
BRANCH   4   6
ATOM      6  C   UNL     1      -6.566   3.548 121.991  0.00  0.00    +0.000 A 
ATOM      7  C   UNL     1      -5.318   4.130 121.639  0.00  0.00    +0.000 A 
ATOM      8  C   UNL     1      -5.130   4.841 120.453  0.00  0.00    +0.000 A 
ATOM      9  C   UNL     1      -6.157   4.899 119.529  0.00  0.00    +0.000 A 
ATOM     10 CL   UNL     1      -5.905   5.682 118.022  0.00  0.00    +0.000 Cl
ATOM     11  C   UNL     1      -7.375   4.294 119.804  0.00  0.00    +0.000 A 
ATOM     12  C   UNL     1      -7.585   3.630 121.022  0.00  0.00    +0.000 A 
ATOM     13 CL   UNL     1      -9.154   2.936 121.202  0.00  0.00    +0.000 Cl
ENDBRANCH   4   6
BRANCH   1  14
ATOM     14  C   UNL     1      -5.328   2.503 126.579  0.00  0.00    +0.000 C 
BRANCH  14  15
ATOM     15  O   UNL     1      -3.921   2.725 126.819  0.00  0.00    +0.000 OA
BRANCH  15  19
ATOM     16  C   UNL     1      -3.064   5.032 130.272  0.00  0.00    +0.000 A 
ATOM     17  C   UNL     1      -3.647   3.760 130.328  0.00  0.00    +0.000 A 
ATOM     18  C   UNL     1      -3.877   2.998 129.166  0.00  0.00    +0.000 A 
ATOM     19  C   UNL     1      -3.597   3.519 127.900  0.00  0.00    +0.000 A 
ATOM     20  C   UNL     1      -3.033   4.792 127.831  0.00  0.00    +0.000 A 
ATOM     21  C   UNL     1      -2.780   5.537 129.000  0.00  0.00    +0.000 A 
BRANCH  16  28
ATOM     22  C   UNL     1      -1.860   8.806 135.077  0.00  0.00    +0.000 C 
ATOM     23  C   UNL     1      -0.889   8.426 133.986  0.00  0.00    +0.000 C 
ATOM     24  O   UNL     1       0.331   8.571 134.164  0.00  0.00    +0.000 OA
ATOM     25  N   UNL     1      -1.396   7.750 132.901  0.00  0.00    +0.000 N 
ATOM     26  C   UNL     1      -0.619   6.663 132.298  0.00  0.00    +0.000 C 
ATOM     27  C   UNL     1      -1.508   5.399 132.166  0.00  0.00    +0.000 C 
ATOM     28  N   UNL     1      -2.736   5.722 131.419  0.00  0.00    +0.000 N 
ATOM     29  C   UNL     1      -3.512   6.865 131.925  0.00  0.00    +0.000 C 
ATOM     30  C   UNL     1      -2.606   8.098 132.139  0.00  0.00    +0.000 C 
ENDBRANCH  16  28
ENDBRANCH  15  19
ENDBRANCH  14  15
ENDBRANCH   1  14
BRANCH   4  31
ATOM     31  C   UNL     1      -7.147   1.435 123.278  0.00  0.00    +0.000 C 
BRANCH  31  32
ATOM     32  N   UNL     1      -8.130   0.949 124.217  0.00  0.00    +0.000 N 
ATOM     33  C   UNL     1      -7.894   0.275 125.379  0.00  0.00    +0.000 A 
ATOM     34  C   UNL     1      -9.136  -0.111 125.815  0.00  0.00    +0.000 A 
ATOM     35  N   UNL     1     -10.114   0.417 125.017  0.00  0.00    +0.000 NA
ATOM     36  C   UNL     1      -9.478   1.061 124.065  0.00  0.00    +0.000 A 
ENDBRANCH  31  32
ENDBRANCH   4  31
TORSDOF 7
ENDMDL
MODEL 6
REMARK VINA RESULT:      -8.4      4.807      6.503
REMARK  Name = Ketoconazole
REMARK  8 active torsions:
REMARK  status: ('A' for Active; 'I' for Inactive)
REMARK    1  A    between atoms: C_1  and  C_2
REMARK    2  A    between atoms: N_7  and  C_10
REMARK    3  A    between atoms: C_13  and  O_14
REMARK    4  A    between atoms: O_14  and  C_15
REMARK    5  A    between atoms: C_15  and  C_16
REMARK    6  A    between atoms: C_19  and  C_20
REMARK    7  A    between atoms: C_19  and  C_27
REMARK    8  A    between atoms: C_20  and  N_21
REMARK                            x       y       z     vdW  Elec       q    Type
REMARK                         _______ _______ _______ _____ _____    ______ ____
ROOT
ATOM      1  C   UNL     1      -5.701   1.526 132.429  0.00  0.00    +0.000 C 
ATOM      2  C   UNL     1      -4.310   0.955 132.174  0.00  0.00    +0.000 C 
ATOM      3  O   UNL     1      -3.371   2.039 132.277  0.00  0.00    +0.000 OA
ATOM      4  C   UNL     1      -4.151   3.233 132.437  0.00  0.00    +0.000 C 
ATOM      5  O   UNL     1      -5.550   2.937 132.250  0.00  0.00    +0.000 OA
ENDROOT
BRANCH   4   6
ATOM      6  C   UNL     1      -3.737   4.302 131.400  0.00  0.00    +0.000 A 
ATOM      7  C   UNL     1      -4.620   4.673 130.349  0.00  0.00    +0.000 A 
ATOM      8  C   UNL     1      -4.225   5.499 129.296  0.00  0.00    +0.000 A 
ATOM      9  C   UNL     1      -2.966   6.069 129.317  0.00  0.00    +0.000 A 
ATOM     10 CL   UNL     1      -2.506   7.168 128.081  0.00  0.00    +0.000 Cl
ATOM     11  C   UNL     1      -2.091   5.783 130.356  0.00  0.00    +0.000 A 
ATOM     12  C   UNL     1      -2.465   4.905 131.384  0.00  0.00    +0.000 A 
ATOM     13 CL   UNL     1      -1.259   4.658 132.593  0.00  0.00    +0.000 Cl
ENDBRANCH   4   6
BRANCH   1  14
ATOM     14  C   UNL     1      -6.787   1.131 133.477  0.00  0.00    +0.000 C 
BRANCH  14  15
ATOM     15  O   UNL     1      -8.138   1.139 132.967  0.00  0.00    +0.000 OA
BRANCH  15  19
ATOM     16  C   UNL     1      -9.745   4.892 131.822  0.00  0.00    +0.000 A 
ATOM     17  C   UNL     1      -9.485   3.862 130.910  0.00  0.00    +0.000 A 
ATOM     18  C   UNL     1      -8.994   2.609 131.327  0.00  0.00    +0.000 A 
ATOM     19  C   UNL     1      -8.677   2.374 132.668  0.00  0.00    +0.000 A 
ATOM     20  C   UNL     1      -8.915   3.398 133.581  0.00  0.00    +0.000 A 
ATOM     21  C   UNL     1      -9.432   4.639 133.160  0.00  0.00    +0.000 A 
BRANCH  16  28
ATOM     22  C   UNL     1     -13.102   9.875 130.184  0.00  0.00    +0.000 C 
ATOM     23  C   UNL     1     -12.629   8.784 129.256  0.00  0.00    +0.000 C 
ATOM     24  O   UNL     1     -12.587   8.986 128.031  0.00  0.00    +0.000 OA
ATOM     25  N   UNL     1     -12.079   7.662 129.832  0.00  0.00    +0.000 N 
ATOM     26  C   UNL     1     -10.916   7.024 129.209  0.00  0.00    +0.000 C 
ATOM     27  C   UNL     1      -9.803   6.823 130.269  0.00  0.00    +0.000 C 
ATOM     28  N   UNL     1     -10.332   6.073 131.422  0.00  0.00    +0.000 N 
ATOM     29  C   UNL     1     -11.555   6.617 132.033  0.00  0.00    +0.000 C 
ATOM     30  C   UNL     1     -12.632   6.898 130.962  0.00  0.00    +0.000 C 
ENDBRANCH  16  28
ENDBRANCH  15  19
ENDBRANCH  14  15
ENDBRANCH   1  14
BRANCH   4  31
ATOM     31  C   UNL     1      -3.916   3.766 133.878  0.00  0.00    +0.000 C 
BRANCH  31  32
ATOM     32  N   UNL     1      -5.041   4.423 134.498  0.00  0.00    +0.000 N 
ATOM     33  C   UNL     1      -5.610   5.605 134.125  0.00  0.00    +0.000 A 
ATOM     34  C   UNL     1      -6.518   5.881 135.114  0.00  0.00    +0.000 A 
ATOM     35  N   UNL     1      -6.599   4.841 136.000  0.00  0.00    +0.000 NA
ATOM     36  C   UNL     1      -5.703   3.970 135.597  0.00  0.00    +0.000 A 
ENDBRANCH  31  32
ENDBRANCH   4  31
TORSDOF 7
ENDMDL
MODEL 7
REMARK VINA RESULT:      -8.2      2.415      3.688
REMARK  Name = Ketoconazole
REMARK  8 active torsions:
REMARK  status: ('A' for Active; 'I' for Inactive)
REMARK    1  A    between atoms: C_1  and  C_2
REMARK    2  A    between atoms: N_7  and  C_10
REMARK    3  A    between atoms: C_13  and  O_14
REMARK    4  A    between atoms: O_14  and  C_15
REMARK    5  A    between atoms: C_15  and  C_16
REMARK    6  A    between atoms: C_19  and  C_20
REMARK    7  A    between atoms: C_19  and  C_27
REMARK    8  A    between atoms: C_20  and  N_21
REMARK                            x       y       z     vdW  Elec       q    Type
REMARK                         _______ _______ _______ _____ _____    ______ ____
ROOT
ATOM      1  C   UNL     1      -6.051  -2.034 129.733  0.00  0.00    +0.000 C 
ATOM      2  C   UNL     1      -4.984  -2.794 128.950  0.00  0.00    +0.000 C 
ATOM      3  O   UNL     1      -5.080  -2.383 127.575  0.00  0.00    +0.000 OA
ATOM      4  C   UNL     1      -6.234  -1.533 127.489  0.00  0.00    +0.000 C 
ATOM      5  O   UNL     1      -6.959  -1.558 128.735  0.00  0.00    +0.000 OA
ENDROOT
BRANCH   4   6
ATOM      6  C   UNL     1      -7.182  -2.007 126.365  0.00  0.00    +0.000 A 
ATOM      7  C   UNL     1      -8.558  -2.247 126.629  0.00  0.00    +0.000 A 
ATOM      8  C   UNL     1      -9.408  -2.839 125.696  0.00  0.00    +0.000 A 
ATOM      9  C   UNL     1      -8.935  -3.113 124.426  0.00  0.00    +0.000 A 
ATOM     10 CL   UNL     1      -9.999  -3.746 123.236  0.00  0.00    +0.000 Cl
ATOM     11  C   UNL     1      -7.613  -2.840 124.103  0.00  0.00    +0.000 A 
ATOM     12  C   UNL     1      -6.741  -2.300 125.059  0.00  0.00    +0.000 A 
ATOM     13 CL   UNL     1      -5.134  -2.025 124.494  0.00  0.00    +0.000 Cl
ENDBRANCH   4   6
BRANCH   1  14
ATOM     14  C   UNL     1      -5.928  -1.102 130.978  0.00  0.00    +0.000 C 
BRANCH  14  15
ATOM     15  O   UNL     1      -5.515   0.248 130.671  0.00  0.00    +0.000 OA
BRANCH  15  19
ATOM     16  C   UNL     1      -8.434   3.295 130.254  0.00  0.00    +0.000 A 
ATOM     17  C   UNL     1      -7.086   3.477 129.921  0.00  0.00    +0.000 A 
ATOM     18  C   UNL     1      -6.149   2.431 130.027  0.00  0.00    +0.000 A 
ATOM     19  C   UNL     1      -6.518   1.186 130.542  0.00  0.00    +0.000 A 
ATOM     20  C   UNL     1      -7.854   0.999 130.895  0.00  0.00    +0.000 A 
ATOM     21  C   UNL     1      -8.791   2.042 130.760  0.00  0.00    +0.000 A 
BRANCH  16  28
ATOM     22  C   UNL     1     -12.089   8.288 129.556  0.00  0.00    +0.000 C 
ATOM     23  C   UNL     1     -12.042   7.389 130.766  0.00  0.00    +0.000 C 
ATOM     24  O   UNL     1     -12.986   7.386 131.573  0.00  0.00    +0.000 OA
ATOM     25  N   UNL     1     -11.028   6.461 130.822  0.00  0.00    +0.000 N 
ATOM     26  C   UNL     1     -11.302   5.119 131.343  0.00  0.00    +0.000 C 
ATOM     27  C   UNL     1     -10.791   4.056 130.337  0.00  0.00    +0.000 C 
ATOM     28  N   UNL     1      -9.366   4.287 130.039  0.00  0.00    +0.000 N 
ATOM     29  C   UNL     1      -9.016   5.646 129.599  0.00  0.00    +0.000 C 
ATOM     30  C   UNL     1      -9.602   6.707 130.556  0.00  0.00    +0.000 C 
ENDBRANCH  16  28
ENDBRANCH  15  19
ENDBRANCH  14  15
ENDBRANCH   1  14
BRANCH   4  31
ATOM     31  C   UNL     1      -5.739  -0.088 127.198  0.00  0.00    +0.000 C 
BRANCH  31  32
ATOM     32  N   UNL     1      -6.691   0.785 126.553  0.00  0.00    +0.000 N 
ATOM     33  C   UNL     1      -7.870   1.238 127.067  0.00  0.00    +0.000 A 
ATOM     34  C   UNL     1      -8.479   1.882 126.020  0.00  0.00    +0.000 A 
ATOM     35  N   UNL     1      -7.647   1.936 124.935  0.00  0.00    +0.000 NA
ATOM     36  C   UNL     1      -6.570   1.274 125.289  0.00  0.00    +0.000 A 
ENDBRANCH  31  32
ENDBRANCH   4  31
TORSDOF 7
ENDMDL
MODEL 8
REMARK VINA RESULT:      -8.1      1.772      2.240
REMARK  Name = Ketoconazole
REMARK  8 active torsions:
REMARK  status: ('A' for Active; 'I' for Inactive)
REMARK    1  A    between atoms: C_1  and  C_2
REMARK    2  A    between atoms: N_7  and  C_10
REMARK    3  A    between atoms: C_13  and  O_14
REMARK    4  A    between atoms: O_14  and  C_15
REMARK    5  A    between atoms: C_15  and  C_16
REMARK    6  A    between atoms: C_19  and  C_20
REMARK    7  A    between atoms: C_19  and  C_27
REMARK    8  A    between atoms: C_20  and  N_21
REMARK                            x       y       z     vdW  Elec       q    Type
REMARK                         _______ _______ _______ _____ _____    ______ ____
ROOT
ATOM      1  C   UNL     1      -6.753  -0.215 130.525  0.00  0.00    +0.000 C 
ATOM      2  C   UNL     1      -8.208  -0.634 130.709  0.00  0.00    +0.000 C 
ATOM      3  O   UNL     1      -8.407  -1.847 129.964  0.00  0.00    +0.000 OA
ATOM      4  C   UNL     1      -7.188  -2.081 129.243  0.00  0.00    +0.000 C 
ATOM      5  O   UNL     1      -6.309  -0.946 129.378  0.00  0.00    +0.000 OA
ENDROOT
BRANCH   4   6
ATOM      6  C   UNL     1      -7.472  -2.299 127.740  0.00  0.00    +0.000 A 
ATOM      7  C   UNL     1      -6.759  -1.565 126.752  0.00  0.00    +0.000 A 
ATOM      8  C   UNL     1      -7.101  -1.600 125.400  0.00  0.00    +0.000 A 
ATOM      9  C   UNL     1      -8.101  -2.456 124.976  0.00  0.00    +0.000 A 
ATOM     10 CL   UNL     1      -8.461  -2.584 123.302  0.00  0.00    +0.000 Cl
ATOM     11  C   UNL     1      -8.785  -3.236 125.897  0.00  0.00    +0.000 A 
ATOM     12  C   UNL     1      -8.482  -3.158 127.264  0.00  0.00    +0.000 A 
ATOM     13 CL   UNL     1      -9.427  -4.193 128.271  0.00  0.00    +0.000 Cl
ENDBRANCH   4   6
BRANCH   1  14
ATOM     14  C   UNL     1      -5.634   0.061 131.576  0.00  0.00    +0.000 C 
BRANCH  14  15
ATOM     15  O   UNL     1      -5.182   1.432 131.619  0.00  0.00    +0.000 OA
BRANCH  15  19
ATOM     16  C   UNL     1      -8.083   4.523 131.507  0.00  0.00    +0.000 A 
ATOM     17  C   UNL     1      -7.194   4.270 130.454  0.00  0.00    +0.000 A 
ATOM     18  C   UNL     1      -6.272   3.206 130.502  0.00  0.00    +0.000 A 
ATOM     19  C   UNL     1      -6.161   2.404 131.641  0.00  0.00    +0.000 A 
ATOM     20  C   UNL     1      -7.028   2.658 132.702  0.00  0.00    +0.000 A 
ATOM     21  C   UNL     1      -7.967   3.706 132.636  0.00  0.00    +0.000 A 
BRANCH  16  28
ATOM     22  C   UNL     1     -12.978   8.308 130.808  0.00  0.00    +0.000 C 
ATOM     23  C   UNL     1     -11.918   8.032 129.770  0.00  0.00    +0.000 C 
ATOM     24  O   UNL     1     -11.764   8.815 128.819  0.00  0.00    +0.000 OA
ATOM     25  N   UNL     1     -11.032   7.013 130.031  0.00  0.00    +0.000 N 
ATOM     26  C   UNL     1      -9.620   7.171 129.672  0.00  0.00    +0.000 C 
ATOM     27  C   UNL     1      -8.732   6.836 130.898  0.00  0.00    +0.000 C 
ATOM     28  N   UNL     1      -9.058   5.491 131.405  0.00  0.00    +0.000 N 
ATOM     29  C   UNL     1     -10.478   5.244 131.697  0.00  0.00    +0.000 C 
ATOM     30  C   UNL     1     -11.369   5.661 130.506  0.00  0.00    +0.000 C 
ENDBRANCH  16  28
ENDBRANCH  15  19
ENDBRANCH  14  15
ENDBRANCH   1  14
BRANCH   4  31
ATOM     31  C   UNL     1      -6.512  -3.343 129.848  0.00  0.00    +0.000 C 
BRANCH  31  32
ATOM     32  N   UNL     1      -5.070  -3.325 129.892  0.00  0.00    +0.000 N 
ATOM     33  C   UNL     1      -4.215  -3.337 128.829  0.00  0.00    +0.000 A 
ATOM     34  C   UNL     1      -2.970  -3.482 129.387  0.00  0.00    +0.000 A 
ATOM     35  N   UNL     1      -3.043  -3.432 130.752  0.00  0.00    +0.000 NA
ATOM     36  C   UNL     1      -4.322  -3.326 131.030  0.00  0.00    +0.000 A 
ENDBRANCH  31  32
ENDBRANCH   4  31
TORSDOF 7
ENDMDL
MODEL 9
REMARK VINA RESULT:      -8.0      2.789      4.056
REMARK  Name = Ketoconazole
REMARK  8 active torsions:
REMARK  status: ('A' for Active; 'I' for Inactive)
REMARK    1  A    between atoms: C_1  and  C_2
REMARK    2  A    between atoms: N_7  and  C_10
REMARK    3  A    between atoms: C_13  and  O_14
REMARK    4  A    between atoms: O_14  and  C_15
REMARK    5  A    between atoms: C_15  and  C_16
REMARK    6  A    between atoms: C_19  and  C_20
REMARK    7  A    between atoms: C_19  and  C_27
REMARK    8  A    between atoms: C_20  and  N_21
REMARK                            x       y       z     vdW  Elec       q    Type
REMARK                         _______ _______ _______ _____ _____    ______ ____
ROOT
ATOM      1  C   UNL     1      -5.957   0.487 128.515  0.00  0.00    +0.000 C 
ATOM      2  C   UNL     1      -5.208   0.897 127.251  0.00  0.00    +0.000 C 
ATOM      3  O   UNL     1      -6.177   1.036 126.198  0.00  0.00    +0.000 OA
ATOM      4  C   UNL     1      -7.429   0.592 126.743  0.00  0.00    +0.000 C 
ATOM      5  O   UNL     1      -7.221   0.009 128.046  0.00  0.00    +0.000 OA
ENDROOT
BRANCH   4   6
ATOM      6  C   UNL     1      -8.077  -0.474 125.831  0.00  0.00    +0.000 A 
ATOM      7  C   UNL     1      -8.850  -1.531 126.386  0.00  0.00    +0.000 A 
ATOM      8  C   UNL     1      -9.305  -2.607 125.624  0.00  0.00    +0.000 A 
ATOM      9  C   UNL     1      -9.094  -2.606 124.257  0.00  0.00    +0.000 A 
ATOM     10 CL   UNL     1      -9.739  -3.873 123.293  0.00  0.00    +0.000 Cl
ATOM     11  C   UNL     1      -8.396  -1.565 123.662  0.00  0.00    +0.000 A 
ATOM     12  C   UNL     1      -7.886  -0.512 124.436  0.00  0.00    +0.000 A 
ATOM     13 CL   UNL     1      -7.043   0.697 123.540  0.00  0.00    +0.000 Cl
ENDBRANCH   4   6
BRANCH   1  14
ATOM     14  C   UNL     1      -6.011   1.151 129.925  0.00  0.00    +0.000 C 
BRANCH  14  15
ATOM     15  O   UNL     1      -7.304   1.080 130.566  0.00  0.00    +0.000 OA
BRANCH  15  19
ATOM     16  C   UNL     1      -9.430   4.749 130.537  0.00  0.00    +0.000 A 
ATOM     17  C   UNL     1      -8.077   4.647 130.193  0.00  0.00    +0.000 A 
ATOM     18  C   UNL     1      -7.410   3.407 130.167  0.00  0.00    +0.000 A 
ATOM     19  C   UNL     1      -8.061   2.234 130.559  0.00  0.00    +0.000 A 
ATOM     20  C   UNL     1      -9.403   2.326 130.921  0.00  0.00    +0.000 A 
ATOM     21  C   UNL     1     -10.071   3.566 130.917  0.00  0.00    +0.000 A 
BRANCH  16  28
ATOM     22  C   UNL     1     -13.087   9.789 130.510  0.00  0.00    +0.000 C 
ATOM     23  C   UNL     1     -12.971   8.775 129.399  0.00  0.00    +0.000 C 
ATOM     24  O   UNL     1     -13.346   9.066 128.252  0.00  0.00    +0.000 OA
ATOM     25  N   UNL     1     -12.271   7.622 129.670  0.00  0.00    +0.000 N 
ATOM     26  C   UNL     1     -11.398   7.048 128.643  0.00  0.00    +0.000 C 
ATOM     27  C   UNL     1      -9.991   6.786 129.243  0.00  0.00    +0.000 C 
ATOM     28  N   UNL     1     -10.105   5.947 130.449  0.00  0.00    +0.000 N 
ATOM     29  C   UNL     1     -11.040   6.427 131.478  0.00  0.00    +0.000 C 
ATOM     30  C   UNL     1     -12.414   6.771 130.862  0.00  0.00    +0.000 C 
ENDBRANCH  16  28
ENDBRANCH  15  19
ENDBRANCH  14  15
ENDBRANCH   1  14
BRANCH   4  31
ATOM     31  C   UNL     1      -8.360   1.830 126.865  0.00  0.00    +0.000 C 
BRANCH  31  32
ATOM     32  N   UNL     1      -7.955   2.998 126.120  0.00  0.00    +0.000 N 
ATOM     33  C   UNL     1      -7.096   3.975 126.528  0.00  0.00    +0.000 A 
ATOM     34  C   UNL     1      -7.172   4.934 125.550  0.00  0.00    +0.000 A 
ATOM     35  N   UNL     1      -7.953   4.505 124.511  0.00  0.00    +0.000 NA
ATOM     36  C   UNL     1      -8.405   3.328 124.878  0.00  0.00    +0.000 A 
ENDBRANCH  31  32
ENDBRANCH   4  31
TORSDOF 7
ENDMDL
