MODEL 1
REMARK VINA RESULT:      -7.6      0.000      0.000
REMARK  Name = Ketorolac
REMARK  4 active torsions:
REMARK  status: ('A' for Active; 'I' for Inactive)
REMARK    1  A    between atoms: O_1  and  C_2
REMARK    2  A    between atoms: C_2  and  C_4
REMARK    3  A    between atoms: C_11  and  C_12
REMARK    4  A    between atoms: C_12  and  C_14
REMARK                            x       y       z     vdW  Elec       q    Type
REMARK                         _______ _______ _______ _____ _____    ______ ____
ROOT
ATOM      1  C   UNL     1      -8.412  -1.943 123.706  0.00  0.00    +0.000 C 
ATOM      2  C   UNL     1      -7.252  -1.419 124.592  0.00  0.00    +0.000 C 
ATOM      3  C   UNL     1      -6.974   0.018 124.095  0.00  0.00    +0.000 C 
ATOM      4  N   UNL     1      -8.215   0.402 123.446  0.00  0.00    +0.000 N 
ATOM      5  C   UNL     1      -9.030  -0.672 123.241  0.00  0.00    +0.000 A 
ATOM      6  C   UNL     1     -10.192  -0.231 122.672  0.00  0.00    +0.000 A 
ATOM      7  C   UNL     1     -10.034   1.172 122.511  0.00  0.00    +0.000 A 
ATOM      8  C   UNL     1      -8.781   1.560 122.995  0.00  0.00    +0.000 A 
ENDROOT
BRANCH   1   9
ATOM      9  C   UNL     1      -9.498  -2.897 124.195  0.00  0.00    +0.000 C 
ATOM     10  O   UNL     1      -9.754  -3.015 125.391  0.00  0.00    +0.000 OA
BRANCH   9  11
ATOM     11  O   UNL     1     -10.157  -3.640 123.289  0.00  0.00    +0.000 OA
ATOM     12  H   UNL     1      -9.660  -4.336 122.831  0.00  0.00    +0.000 HD
ENDBRANCH   9  11
ENDBRANCH   1   9
BRANCH   8  13
ATOM     13  C   UNL     1      -8.254   2.918 123.004  0.00  0.00    +0.000 C 
ATOM     14  O   UNL     1      -8.351   3.676 123.975  0.00  0.00    +0.000 OA
BRANCH  13  15
ATOM     15  C   UNL     1      -7.595   3.468 121.804  0.00  0.00    +0.000 A 
ATOM     16  C   UNL     1      -8.337   3.802 120.666  0.00  0.00    +0.000 A 
ATOM     17  C   UNL     1      -7.673   4.290 119.537  0.00  0.00    +0.000 A 
ATOM     18  C   UNL     1      -6.294   4.512 119.576  0.00  0.00    +0.000 A 
ATOM     19  C   UNL     1      -5.561   4.175 120.712  0.00  0.00    +0.000 A 
ATOM     20  C   UNL     1      -6.206   3.613 121.810  0.00  0.00    +0.000 A 
ENDBRANCH  13  15
ENDBRANCH   8  13
TORSDOF 4
ENDMDL
MODEL 2
REMARK VINA RESULT:      -7.5      2.786      6.787
REMARK  Name = Ketorolac
REMARK  4 active torsions:
REMARK  status: ('A' for Active; 'I' for Inactive)
REMARK    1  A    between atoms: O_1  and  C_2
REMARK    2  A    between atoms: C_2  and  C_4
REMARK    3  A    between atoms: C_11  and  C_12
REMARK    4  A    between atoms: C_12  and  C_14
REMARK                            x       y       z     vdW  Elec       q    Type
REMARK                         _______ _______ _______ _____ _____    ______ ____
ROOT
ATOM      1  C   UNL     1      -6.495   4.292 119.798  0.00  0.00    +0.000 C 
ATOM      2  C   UNL     1      -8.040   4.259 119.683  0.00  0.00    +0.000 C 
ATOM      3  C   UNL     1      -8.527   3.473 120.921  0.00  0.00    +0.000 C 
ATOM      4  N   UNL     1      -7.427   3.601 121.861  0.00  0.00    +0.000 N 
ATOM      5  C   UNL     1      -6.299   4.071 121.256  0.00  0.00    +0.000 A 
ATOM      6  C   UNL     1      -5.324   4.209 122.204  0.00  0.00    +0.000 A 
ATOM      7  C   UNL     1      -5.907   3.767 123.423  0.00  0.00    +0.000 A 
ATOM      8  C   UNL     1      -7.230   3.379 123.194  0.00  0.00    +0.000 A 
ENDROOT
BRANCH   1   9
ATOM      9  C   UNL     1      -5.626   5.458 119.331  0.00  0.00    +0.000 C 
ATOM     10  O   UNL     1      -4.900   6.066 120.112  0.00  0.00    +0.000 OA
BRANCH   9  11
ATOM     11  O   UNL     1      -5.694   5.834 118.042  0.00  0.00    +0.000 OA
ATOM     12  H   UNL     1      -6.390   6.462 117.792  0.00  0.00    +0.000 HD
ENDBRANCH   9  11
ENDBRANCH   1   9
BRANCH   8  13
ATOM     13  C   UNL     1      -8.155   2.871 124.198  0.00  0.00    +0.000 C 
ATOM     14  O   UNL     1      -8.850   3.602 124.911  0.00  0.00    +0.000 OA
BRANCH  13  15
ATOM     15  C   UNL     1      -8.273   1.419 124.433  0.00  0.00    +0.000 A 
ATOM     16  C   UNL     1      -7.599   0.501 123.620  0.00  0.00    +0.000 A 
ATOM     17  C   UNL     1      -7.763  -0.867 123.853  0.00  0.00    +0.000 A 
ATOM     18  C   UNL     1      -8.530  -1.306 124.935  0.00  0.00    +0.000 A 
ATOM     19  C   UNL     1      -9.200  -0.388 125.740  0.00  0.00    +0.000 A 
ATOM     20  C   UNL     1      -9.107   0.973 125.462  0.00  0.00    +0.000 A 
ENDBRANCH  13  15
ENDBRANCH   8  13
TORSDOF 4
ENDMDL
MODEL 3
REMARK VINA RESULT:      -7.0      9.462     11.710
REMARK  Name = Ketorolac
REMARK  4 active torsions:
REMARK  status: ('A' for Active; 'I' for Inactive)
REMARK    1  A    between atoms: O_1  and  C_2
REMARK    2  A    between atoms: C_2  and  C_4
REMARK    3  A    between atoms: C_11  and  C_12
REMARK    4  A    between atoms: C_12  and  C_14
REMARK                            x       y       z     vdW  Elec       q    Type
REMARK                         _______ _______ _______ _____ _____    ______ ____
ROOT
ATOM      1  C   UNL     1     -11.694   8.705 128.794  0.00  0.00    +0.000 C 
ATOM      2  C   UNL     1     -10.835   7.873 127.808  0.00  0.00    +0.000 C 
ATOM      3  C   UNL     1     -10.063   6.863 128.687  0.00  0.00    +0.000 C 
ATOM      4  N   UNL     1     -10.863   6.782 129.896  0.00  0.00    +0.000 N 
ATOM      5  C   UNL     1     -11.784   7.786 129.961  0.00  0.00    +0.000 A 
ATOM      6  C   UNL     1     -12.527   7.620 131.096  0.00  0.00    +0.000 A 
ATOM      7  C   UNL     1     -11.992   6.473 131.743  0.00  0.00    +0.000 A 
ATOM      8  C   UNL     1     -10.938   5.957 130.982  0.00  0.00    +0.000 A 
ENDROOT
BRANCH   1   9
ATOM      9  C   UNL     1     -13.078   9.260 128.466  0.00  0.00    +0.000 C 
ATOM     10  O   UNL     1     -13.887   8.611 127.809  0.00  0.00    +0.000 OA
BRANCH   9  11
ATOM     11  O   UNL     1     -13.390  10.499 128.885  0.00  0.00    +0.000 OA
ATOM     12  H   UNL     1     -13.832  10.587 129.743  0.00  0.00    +0.000 HD
ENDBRANCH   9  11
ENDBRANCH   1   9
BRANCH   8  13
ATOM     13  C   UNL     1     -10.141   4.785 131.316  0.00  0.00    +0.000 C 
ATOM     14  O   UNL     1     -10.282   3.689 130.763  0.00  0.00    +0.000 OA
BRANCH  13  15
ATOM     15  C   UNL     1      -9.128   4.856 132.387  0.00  0.00    +0.000 A 
ATOM     16  C   UNL     1      -9.194   4.007 133.498  0.00  0.00    +0.000 A 
ATOM     17  C   UNL     1      -8.234   4.127 134.506  0.00  0.00    +0.000 A 
ATOM     18  C   UNL     1      -7.179   5.031 134.366  0.00  0.00    +0.000 A 
ATOM     19  C   UNL     1      -7.119   5.875 133.258  0.00  0.00    +0.000 A 
ATOM     20  C   UNL     1      -8.118   5.816 132.290  0.00  0.00    +0.000 A 
ENDBRANCH  13  15
ENDBRANCH   8  13
TORSDOF 4
ENDMDL
MODEL 4
REMARK VINA RESULT:      -7.0      2.827      5.925
REMARK  Name = Ketorolac
REMARK  4 active torsions:
REMARK  status: ('A' for Active; 'I' for Inactive)
REMARK    1  A    between atoms: O_1  and  C_2
REMARK    2  A    between atoms: C_2  and  C_4
REMARK    3  A    between atoms: C_11  and  C_12
REMARK    4  A    between atoms: C_12  and  C_14
REMARK                            x       y       z     vdW  Elec       q    Type
REMARK                         _______ _______ _______ _____ _____    ______ ____
ROOT
ATOM      1  C   UNL     1      -8.270   2.569 125.704  0.00  0.00    +0.000 C 
ATOM      2  C   UNL     1      -7.101   1.680 126.201  0.00  0.00    +0.000 C 
ATOM      3  C   UNL     1      -7.486   0.237 125.806  0.00  0.00    +0.000 C 
ATOM      4  N   UNL     1      -8.436   0.420 124.723  0.00  0.00    +0.000 N 
ATOM      5  C   UNL     1      -8.866   1.712 124.643  0.00  0.00    +0.000 A 
ATOM      6  C   UNL     1      -9.717   1.820 123.579  0.00  0.00    +0.000 A 
ATOM      7  C   UNL     1      -9.811   0.514 123.027  0.00  0.00    +0.000 A 
ATOM      8  C   UNL     1      -9.006  -0.363 123.760  0.00  0.00    +0.000 A 
ENDROOT
BRANCH   1   9
ATOM      9  C   UNL     1      -8.101   3.994 125.183  0.00  0.00    +0.000 C 
ATOM     10  O   UNL     1      -8.792   4.916 125.611  0.00  0.00    +0.000 OA
BRANCH   9  11
ATOM     11  O   UNL     1      -7.197   4.222 124.215  0.00  0.00    +0.000 OA
ATOM     12  H   UNL     1      -7.296   3.735 123.382  0.00  0.00    +0.000 HD
ENDBRANCH   9  11
ENDBRANCH   1   9
BRANCH   8  13
ATOM     13  C   UNL     1      -8.838  -1.785 123.499  0.00  0.00    +0.000 C 
ATOM     14  O   UNL     1      -9.784  -2.555 123.299  0.00  0.00    +0.000 OA
BRANCH  13  15
ATOM     15  C   UNL     1      -7.490  -2.387 123.497  0.00  0.00    +0.000 A 
ATOM     16  C   UNL     1      -7.177  -3.455 124.345  0.00  0.00    +0.000 A 
ATOM     17  C   UNL     1      -5.881  -3.976 124.338  0.00  0.00    +0.000 A 
ATOM     18  C   UNL     1      -4.933  -3.483 123.437  0.00  0.00    +0.000 A 
ATOM     19  C   UNL     1      -5.249  -2.419 122.596  0.00  0.00    +0.000 A 
ATOM     20  C   UNL     1      -6.515  -1.842 122.657  0.00  0.00    +0.000 A 
ENDBRANCH  13  15
ENDBRANCH   8  13
TORSDOF 4
ENDMDL
MODEL 5
REMARK VINA RESULT:      -6.9      8.975     11.280
REMARK  Name = Ketorolac
REMARK  4 active torsions:
REMARK  status: ('A' for Active; 'I' for Inactive)
REMARK    1  A    between atoms: O_1  and  C_2
REMARK    2  A    between atoms: C_2  and  C_4
REMARK    3  A    between atoms: C_11  and  C_12
REMARK    4  A    between atoms: C_12  and  C_14
REMARK                            x       y       z     vdW  Elec       q    Type
REMARK                         _______ _______ _______ _____ _____    ______ ____
ROOT
ATOM      1  C   UNL     1     -11.805   8.610 128.873  0.00  0.00    +0.000 C 
ATOM      2  C   UNL     1     -10.448   8.172 128.264  0.00  0.00    +0.000 C 
ATOM      3  C   UNL     1      -9.637   7.594 129.446  0.00  0.00    +0.000 C 
ATOM      4  N   UNL     1     -10.655   7.230 130.414  0.00  0.00    +0.000 N 
ATOM      5  C   UNL     1     -11.867   7.771 130.100  0.00  0.00    +0.000 A 
ATOM      6  C   UNL     1     -12.782   7.352 131.025  0.00  0.00    +0.000 A 
ATOM      7  C   UNL     1     -12.058   6.545 131.944  0.00  0.00    +0.000 A 
ATOM      8  C   UNL     1     -10.717   6.481 131.555  0.00  0.00    +0.000 A 
ENDROOT
BRANCH   1   9
ATOM      9  C   UNL     1     -13.138   8.541 128.132  0.00  0.00    +0.000 C 
ATOM     10  O   UNL     1     -13.887   9.512 128.074  0.00  0.00    +0.000 OA
BRANCH   9  11
ATOM     11  O   UNL     1     -13.498   7.377 127.564  0.00  0.00    +0.000 OA
ATOM     12  H   UNL     1     -13.918   6.711 128.130  0.00  0.00    +0.000 HD
ENDBRANCH   9  11
ENDBRANCH   1   9
BRANCH   8  13
ATOM     13  C   UNL     1      -9.664   5.748 132.244  0.00  0.00    +0.000 C 
ATOM     14  O   UNL     1      -8.884   6.274 133.045  0.00  0.00    +0.000 OA
BRANCH  13  15
ATOM     15  C   UNL     1      -9.461   4.311 131.977  0.00  0.00    +0.000 A 
ATOM     16  C   UNL     1      -9.148   3.424 133.012  0.00  0.00    +0.000 A 
ATOM     17  C   UNL     1      -8.931   2.076 132.714  0.00  0.00    +0.000 A 
ATOM     18  C   UNL     1      -9.102   1.610 131.408  0.00  0.00    +0.000 A 
ATOM     19  C   UNL     1      -9.413   2.499 130.381  0.00  0.00    +0.000 A 
ATOM     20  C   UNL     1      -9.550   3.856 130.658  0.00  0.00    +0.000 A 
ENDBRANCH  13  15
ENDBRANCH   8  13
TORSDOF 4
ENDMDL
MODEL 6
REMARK VINA RESULT:      -6.8      9.455     11.759
REMARK  Name = Ketorolac
REMARK  4 active torsions:
REMARK  status: ('A' for Active; 'I' for Inactive)
REMARK    1  A    between atoms: O_1  and  C_2
REMARK    2  A    between atoms: C_2  and  C_4
REMARK    3  A    between atoms: C_11  and  C_12
REMARK    4  A    between atoms: C_12  and  C_14
REMARK                            x       y       z     vdW  Elec       q    Type
REMARK                         _______ _______ _______ _____ _____    ______ ____
ROOT
ATOM      1  C   UNL     1     -13.107   8.538 130.151  0.00  0.00    +0.000 C 
ATOM      2  C   UNL     1     -13.066   7.844 131.536  0.00  0.00    +0.000 C 
ATOM      3  C   UNL     1     -12.165   6.603 131.346  0.00  0.00    +0.000 C 
ATOM      4  N   UNL     1     -11.364   6.936 130.182  0.00  0.00    +0.000 N 
ATOM      5  C   UNL     1     -11.864   8.018 129.519  0.00  0.00    +0.000 A 
ATOM      6  C   UNL     1     -11.039   8.300 128.467  0.00  0.00    +0.000 A 
ATOM      7  C   UNL     1     -10.019   7.311 128.501  0.00  0.00    +0.000 A 
ATOM      8  C   UNL     1     -10.237   6.452 129.581  0.00  0.00    +0.000 A 
ENDROOT
BRANCH   1   9
ATOM      9  C   UNL     1     -13.194  10.049 129.952  0.00  0.00    +0.000 C 
ATOM     10  O   UNL     1     -13.155  10.822 130.907  0.00  0.00    +0.000 OA
BRANCH   9  11
ATOM     11  O   UNL     1     -13.348  10.526 128.705  0.00  0.00    +0.000 OA
ATOM     12  H   UNL     1     -12.624  11.053 128.332  0.00  0.00    +0.000 HD
ENDBRANCH   9  11
ENDBRANCH   1   9
BRANCH   8  13
ATOM     13  C   UNL     1      -9.404   5.315 129.947  0.00  0.00    +0.000 C 
ATOM     14  O   UNL     1      -8.930   4.527 129.121  0.00  0.00    +0.000 OA
BRANCH  13  15
ATOM     15  C   UNL     1      -9.114   5.032 131.366  0.00  0.00    +0.000 A 
ATOM     16  C   UNL     1      -9.464   3.805 131.941  0.00  0.00    +0.000 A 
ATOM     17  C   UNL     1      -9.203   3.587 133.296  0.00  0.00    +0.000 A 
ATOM     18  C   UNL     1      -8.531   4.556 134.046  0.00  0.00    +0.000 A 
ATOM     19  C   UNL     1      -8.186   5.776 133.468  0.00  0.00    +0.000 A 
ATOM     20  C   UNL     1      -8.517   6.030 132.140  0.00  0.00    +0.000 A 
ENDBRANCH  13  15
ENDBRANCH   8  13
TORSDOF 4
ENDMDL
MODEL 7
REMARK VINA RESULT:      -6.8      8.778      9.981
REMARK  Name = Ketorolac
REMARK  4 active torsions:
REMARK  status: ('A' for Active; 'I' for Inactive)
REMARK    1  A    between atoms: O_1  and  C_2
REMARK    2  A    between atoms: C_2  and  C_4
REMARK    3  A    between atoms: C_11  and  C_12
REMARK    4  A    between atoms: C_12  and  C_14
REMARK                            x       y       z     vdW  Elec       q    Type
REMARK                         _______ _______ _______ _____ _____    ______ ____
ROOT
ATOM      1  C   UNL     1      -7.307   4.846 130.402  0.00  0.00    +0.000 C 
ATOM      2  C   UNL     1      -7.206   6.216 131.122  0.00  0.00    +0.000 C 
ATOM      3  C   UNL     1      -8.603   6.860 130.973  0.00  0.00    +0.000 C 
ATOM      4  N   UNL     1      -9.479   5.727 130.733  0.00  0.00    +0.000 N 
ATOM      5  C   UNL     1      -8.774   4.599 130.433  0.00  0.00    +0.000 A 
ATOM      6  C   UNL     1      -9.655   3.568 130.266  0.00  0.00    +0.000 A 
ATOM      7  C   UNL     1     -10.947   4.133 130.450  0.00  0.00    +0.000 A 
ATOM      8  C   UNL     1     -10.825   5.496 130.736  0.00  0.00    +0.000 A 
ENDROOT
BRANCH   1   9
ATOM      9  C   UNL     1      -6.561   3.590 130.846  0.00  0.00    +0.000 C 
ATOM     10  O   UNL     1      -6.003   2.858 130.032  0.00  0.00    +0.000 OA
BRANCH   9  11
ATOM     11  O   UNL     1      -6.552   3.275 132.152  0.00  0.00    +0.000 OA
ATOM     12  H   UNL     1      -6.339   2.360 132.393  0.00  0.00    +0.000 HD
ENDBRANCH   9  11
ENDBRANCH   1   9
BRANCH   8  13
ATOM     13  C   UNL     1     -11.926   6.415 130.989  0.00  0.00    +0.000 C 
ATOM     14  O   UNL     1     -12.424   6.585 132.107  0.00  0.00    +0.000 OA
BRANCH  13  15
ATOM     15  C   UNL     1     -12.529   7.175 129.878  0.00  0.00    +0.000 A 
ATOM     16  C   UNL     1     -13.093   6.517 128.778  0.00  0.00    +0.000 A 
ATOM     17  C   UNL     1     -13.625   7.273 127.730  0.00  0.00    +0.000 A 
ATOM     18  C   UNL     1     -13.662   8.667 127.819  0.00  0.00    +0.000 A 
ATOM     19  C   UNL     1     -13.098   9.316 128.915  0.00  0.00    +0.000 A 
ATOM     20  C   UNL     1     -12.493   8.571 129.924  0.00  0.00    +0.000 A 
ENDBRANCH  13  15
ENDBRANCH   8  13
TORSDOF 4
ENDMDL
MODEL 8
REMARK VINA RESULT:      -6.7      3.135      6.907
REMARK  Name = Ketorolac
REMARK  4 active torsions:
REMARK  status: ('A' for Active; 'I' for Inactive)
REMARK    1  A    between atoms: O_1  and  C_2
REMARK    2  A    between atoms: C_2  and  C_4
REMARK    3  A    between atoms: C_11  and  C_12
REMARK    4  A    between atoms: C_12  and  C_14
REMARK                            x       y       z     vdW  Elec       q    Type
REMARK                         _______ _______ _______ _____ _____    ______ ____
ROOT
ATOM      1  C   UNL     1      -6.674   4.390 119.472  0.00  0.00    +0.000 C 
ATOM      2  C   UNL     1      -8.214   4.514 119.353  0.00  0.00    +0.000 C 
ATOM      3  C   UNL     1      -8.785   3.651 120.502  0.00  0.00    +0.000 C 
ATOM      4  N   UNL     1      -7.688   3.575 121.450  0.00  0.00    +0.000 N 
ATOM      5  C   UNL     1      -6.514   3.998 120.899  0.00  0.00    +0.000 A 
ATOM      6  C   UNL     1      -5.541   3.943 121.857  0.00  0.00    +0.000 A 
ATOM      7  C   UNL     1      -6.175   3.432 123.021  0.00  0.00    +0.000 A 
ATOM      8  C   UNL     1      -7.527   3.196 122.752  0.00  0.00    +0.000 A 
ENDROOT
BRANCH   1   9
ATOM      9  C   UNL     1      -5.696   5.511 119.131  0.00  0.00    +0.000 C 
ATOM     10  O   UNL     1      -4.993   6.030 119.996  0.00  0.00    +0.000 OA
BRANCH   9  11
ATOM     11  O   UNL     1      -5.636   5.950 117.862  0.00  0.00    +0.000 OA
ATOM     12  H   UNL     1      -4.768   6.203 117.513  0.00  0.00    +0.000 HD
ENDBRANCH   9  11
ENDBRANCH   1   9
BRANCH   8  13
ATOM     13  C   UNL     1      -8.505   2.675 123.697  0.00  0.00    +0.000 C 
ATOM     14  O   UNL     1      -9.564   2.140 123.351  0.00  0.00    +0.000 OA
BRANCH  13  15
ATOM     15  C   UNL     1      -8.276   2.801 125.149  0.00  0.00    +0.000 A 
ATOM     16  C   UNL     1      -8.339   1.682 125.988  0.00  0.00    +0.000 A 
ATOM     17  C   UNL     1      -8.149   1.848 127.362  0.00  0.00    +0.000 A 
ATOM     18  C   UNL     1      -7.825   3.105 127.878  0.00  0.00    +0.000 A 
ATOM     19  C   UNL     1      -7.765   4.215 127.039  0.00  0.00    +0.000 A 
ATOM     20  C   UNL     1      -8.033   4.070 125.681  0.00  0.00    +0.000 A 
ENDBRANCH  13  15
ENDBRANCH   8  13
TORSDOF 4
ENDMDL
MODEL 9
REMARK VINA RESULT:      -6.5      4.469      6.819
REMARK  Name = Ketorolac
REMARK  4 active torsions:
REMARK  status: ('A' for Active; 'I' for Inactive)
REMARK    1  A    between atoms: O_1  and  C_2
REMARK    2  A    between atoms: C_2  and  C_4
REMARK    3  A    between atoms: C_11  and  C_12
REMARK    4  A    between atoms: C_12  and  C_14
REMARK                            x       y       z     vdW  Elec       q    Type
REMARK                         _______ _______ _______ _____ _____    ______ ____
ROOT
ATOM      1  C   UNL     1      -7.321  -0.912 129.824  0.00  0.00    +0.000 C 
ATOM      2  C   UNL     1      -7.434   0.288 128.850  0.00  0.00    +0.000 C 
ATOM      3  C   UNL     1      -7.497  -0.335 127.436  0.00  0.00    +0.000 C 
ATOM      4  N   UNL     1      -7.958  -1.690 127.680  0.00  0.00    +0.000 N 
ATOM      5  C   UNL     1      -7.884  -2.018 129.002  0.00  0.00    +0.000 A 
ATOM      6  C   UNL     1      -8.374  -3.284 129.162  0.00  0.00    +0.000 A 
ATOM      7  C   UNL     1      -8.727  -3.728 127.859  0.00  0.00    +0.000 A 
ATOM      8  C   UNL     1      -8.453  -2.719 126.931  0.00  0.00    +0.000 A 
ENDROOT
BRANCH   1   9
ATOM      9  C   UNL     1      -7.936  -0.942 131.220  0.00  0.00    +0.000 C 
ATOM     10  O   UNL     1      -7.462  -1.643 132.112  0.00  0.00    +0.000 OA
BRANCH   9  11
ATOM     11  O   UNL     1      -9.037  -0.207 131.455  0.00  0.00    +0.000 OA
ATOM     12  H   UNL     1      -9.341  -0.132 132.372  0.00  0.00    +0.000 HD
ENDBRANCH   9  11
ENDBRANCH   1   9
BRANCH   8  13
ATOM     13  C   UNL     1      -8.682  -2.797 125.495  0.00  0.00    +0.000 C 
ATOM     14  O   UNL     1      -9.799  -2.969 124.994  0.00  0.00    +0.000 OA
BRANCH  13  15
ATOM     15  C   UNL     1      -7.547  -2.708 124.556  0.00  0.00    +0.000 A 
ATOM     16  C   UNL     1      -6.369  -3.430 124.779  0.00  0.00    +0.000 A 
ATOM     17  C   UNL     1      -5.305  -3.293 123.885  0.00  0.00    +0.000 A 
ATOM     18  C   UNL     1      -5.447  -2.504 122.741  0.00  0.00    +0.000 A 
ATOM     19  C   UNL     1      -6.622  -1.786 122.524  0.00  0.00    +0.000 A 
ATOM     20  C   UNL     1      -7.655  -1.855 123.454  0.00  0.00    +0.000 A 
ENDBRANCH  13  15
ENDBRANCH   8  13
TORSDOF 4
ENDMDL
