MODEL 1
REMARK VINA RESULT:      -7.2      0.000      0.000
REMARK  Name = Ketoprofen
REMARK  6 active torsions:
REMARK  status: ('A' for Active; 'I' for Inactive)
REMARK    1  A    between atoms: C_1  and  C_2
REMARK    2  A    between atoms: C_2  and  C_3
REMARK    3  A    between atoms: C_2  and  C_6
REMARK    4  A    between atoms: C_3  and  O_4
REMARK    5  A    between atoms: C_8  and  C_12
REMARK    6  A    between atoms: C_12  and  C_14
REMARK                            x       y       z     vdW  Elec       q    Type
REMARK                         _______ _______ _______ _____ _____    ______ ____
ROOT
ATOM      1  C   UNL     1      -6.710  -0.615 124.126  0.00  0.00    +0.000 A 
ATOM      2  C   UNL     1      -7.313   0.586 123.728  0.00  0.00    +0.000 A 
ATOM      3  C   UNL     1      -6.992   1.781 124.362  0.00  0.00    +0.000 A 
ATOM      4  C   UNL     1      -6.190   1.763 125.501  0.00  0.00    +0.000 A 
ATOM      5  C   UNL     1      -5.587   0.577 125.912  0.00  0.00    +0.000 A 
ATOM      6  C   UNL     1      -5.828  -0.605 125.216  0.00  0.00    +0.000 A 
ENDROOT
BRANCH   1   8
ATOM      7  C   UNL     1      -5.645  -2.695 123.238  0.00  0.00    +0.000 C 
ATOM      8  C   UNL     1      -6.936  -1.871 123.305  0.00  0.00    +0.000 C 
BRANCH   8   9
ATOM      9  C   UNL     1      -8.089  -2.749 123.796  0.00  0.00    +0.000 C 
ATOM     10  O   UNL     1      -7.899  -3.827 124.357  0.00  0.00    +0.000 OA
BRANCH   9  11
ATOM     11  O   UNL     1      -9.348  -2.309 123.579  0.00  0.00    +0.000 OA
ATOM     12  H   UNL     1      -9.530  -1.924 122.701  0.00  0.00    +0.000 HD
ENDBRANCH   9  11
ENDBRANCH   8   9
ENDBRANCH   1   8
BRANCH   3  13
ATOM     13  C   UNL     1      -7.449   3.035 123.722  0.00  0.00    +0.000 C 
ATOM     14  O   UNL     1      -8.417   3.649 124.160  0.00  0.00    +0.000 OA
BRANCH  13  15
ATOM     15  C   UNL     1      -6.769   3.551 122.529  0.00  0.00    +0.000 A 
ATOM     16  C   UNL     1      -5.493   4.080 122.705  0.00  0.00    +0.000 A 
ATOM     17  C   UNL     1      -4.829   4.623 121.611  0.00  0.00    +0.000 A 
ATOM     18  C   UNL     1      -5.411   4.568 120.343  0.00  0.00    +0.000 A 
ATOM     19  C   UNL     1      -6.682   4.016 120.167  0.00  0.00    +0.000 A 
ATOM     20  C   UNL     1      -7.377   3.525 121.268  0.00  0.00    +0.000 A 
ENDBRANCH  13  15
ENDBRANCH   3  13
TORSDOF 5
ENDMDL
MODEL 2
REMARK VINA RESULT:      -7.1      8.955     11.242
REMARK  Name = Ketoprofen
REMARK  6 active torsions:
REMARK  status: ('A' for Active; 'I' for Inactive)
REMARK    1  A    between atoms: C_1  and  C_2
REMARK    2  A    between atoms: C_2  and  C_3
REMARK    3  A    between atoms: C_2  and  C_6
REMARK    4  A    between atoms: C_3  and  O_4
REMARK    5  A    between atoms: C_8  and  C_12
REMARK    6  A    between atoms: C_12  and  C_14
REMARK                            x       y       z     vdW  Elec       q    Type
REMARK                         _______ _______ _______ _____ _____    ______ ____
ROOT
ATOM      1  C   UNL     1     -12.100   6.931 129.236  0.00  0.00    +0.000 A 
ATOM      2  C   UNL     1     -11.102   6.049 129.669  0.00  0.00    +0.000 A 
ATOM      3  C   UNL     1     -10.937   5.778 131.023  0.00  0.00    +0.000 A 
ATOM      4  C   UNL     1     -11.661   6.507 131.965  0.00  0.00    +0.000 A 
ATOM      5  C   UNL     1     -12.654   7.390 131.550  0.00  0.00    +0.000 A 
ATOM      6  C   UNL     1     -12.890   7.588 130.192  0.00  0.00    +0.000 A 
ENDROOT
BRANCH   1   8
ATOM      7  C   UNL     1     -13.756   7.711 127.533  0.00  0.00    +0.000 C 
ATOM      8  C   UNL     1     -12.380   7.072 127.751  0.00  0.00    +0.000 C 
BRANCH   8   9
ATOM      9  C   UNL     1     -11.315   7.852 126.978  0.00  0.00    +0.000 C 
ATOM     10  O   UNL     1     -11.029   7.590 125.810  0.00  0.00    +0.000 OA
BRANCH   9  11
ATOM     11  O   UNL     1     -10.670   8.846 127.627  0.00  0.00    +0.000 OA
ATOM     12  H   UNL     1     -11.154   9.272 128.360  0.00  0.00    +0.000 HD
ENDBRANCH   9  11
ENDBRANCH   8   9
ENDBRANCH   1   8
BRANCH   3  13
ATOM     13  C   UNL     1     -10.060   4.644 131.388  0.00  0.00    +0.000 C 
ATOM     14  O   UNL     1     -10.167   3.558 130.827  0.00  0.00    +0.000 OA
BRANCH  13  15
ATOM     15  C   UNL     1      -9.062   4.789 132.455  0.00  0.00    +0.000 A 
ATOM     16  C   UNL     1      -8.019   5.683 132.230  0.00  0.00    +0.000 A 
ATOM     17  C   UNL     1      -7.026   5.819 133.192  0.00  0.00    +0.000 A 
ATOM     18  C   UNL     1      -7.120   5.120 134.397  0.00  0.00    +0.000 A 
ATOM     19  C   UNL     1      -8.181   4.242 134.628  0.00  0.00    +0.000 A 
ATOM     20  C   UNL     1      -9.147   4.055 133.644  0.00  0.00    +0.000 A 
ENDBRANCH  13  15
ENDBRANCH   3  13
TORSDOF 5
ENDMDL
MODEL 3
REMARK VINA RESULT:      -7.0      1.501      2.186
REMARK  Name = Ketoprofen
REMARK  6 active torsions:
REMARK  status: ('A' for Active; 'I' for Inactive)
REMARK    1  A    between atoms: C_1  and  C_2
REMARK    2  A    between atoms: C_2  and  C_3
REMARK    3  A    between atoms: C_2  and  C_6
REMARK    4  A    between atoms: C_3  and  O_4
REMARK    5  A    between atoms: C_8  and  C_12
REMARK    6  A    between atoms: C_12  and  C_14
REMARK                            x       y       z     vdW  Elec       q    Type
REMARK                         _______ _______ _______ _____ _____    ______ ____
ROOT
ATOM      1  C   UNL     1      -8.287  -0.178 123.484  0.00  0.00    +0.000 A 
ATOM      2  C   UNL     1      -7.406   0.828 123.064  0.00  0.00    +0.000 A 
ATOM      3  C   UNL     1      -7.624   2.153 123.423  0.00  0.00    +0.000 A 
ATOM      4  C   UNL     1      -8.808   2.507 124.068  0.00  0.00    +0.000 A 
ATOM      5  C   UNL     1      -9.695   1.519 124.488  0.00  0.00    +0.000 A 
ATOM      6  C   UNL     1      -9.428   0.179 124.217  0.00  0.00    +0.000 A 
ENDROOT
BRANCH   1   8
ATOM      7  C   UNL     1      -6.452  -1.875 123.551  0.00  0.00    +0.000 C 
ATOM      8  C   UNL     1      -7.932  -1.633 123.235  0.00  0.00    +0.000 C 
BRANCH   8   9
ATOM      9  C   UNL     1      -8.799  -2.634 124.001  0.00  0.00    +0.000 C 
ATOM     10  O   UNL     1      -8.472  -3.078 125.101  0.00  0.00    +0.000 OA
BRANCH   9  11
ATOM     11  O   UNL     1      -9.949  -3.040 123.421  0.00  0.00    +0.000 OA
ATOM     12  H   UNL     1     -10.086  -4.005 123.353  0.00  0.00    +0.000 HD
ENDBRANCH   9  11
ENDBRANCH   8   9
ENDBRANCH   1   8
BRANCH   3  13
ATOM     13  C   UNL     1      -6.524   3.113 123.183  0.00  0.00    +0.000 C 
ATOM     14  O   UNL     1      -5.750   3.423 124.084  0.00  0.00    +0.000 OA
BRANCH  13  15
ATOM     15  C   UNL     1      -6.357   3.739 121.867  0.00  0.00    +0.000 A 
ATOM     16  C   UNL     1      -7.444   3.687 120.998  0.00  0.00    +0.000 A 
ATOM     17  C   UNL     1      -7.316   4.226 119.723  0.00  0.00    +0.000 A 
ATOM     18  C   UNL     1      -6.136   4.875 119.354  0.00  0.00    +0.000 A 
ATOM     19  C   UNL     1      -5.057   4.946 120.238  0.00  0.00    +0.000 A 
ATOM     20  C   UNL     1      -5.156   4.355 121.493  0.00  0.00    +0.000 A 
ENDBRANCH  13  15
ENDBRANCH   3  13
TORSDOF 5
ENDMDL
MODEL 4
REMARK VINA RESULT:      -6.8      8.523     10.673
REMARK  Name = Ketoprofen
REMARK  6 active torsions:
REMARK  status: ('A' for Active; 'I' for Inactive)
REMARK    1  A    between atoms: C_1  and  C_2
REMARK    2  A    between atoms: C_2  and  C_3
REMARK    3  A    between atoms: C_2  and  C_6
REMARK    4  A    between atoms: C_3  and  O_4
REMARK    5  A    between atoms: C_8  and  C_12
REMARK    6  A    between atoms: C_12  and  C_14
REMARK                            x       y       z     vdW  Elec       q    Type
REMARK                         _______ _______ _______ _____ _____    ______ ____
ROOT
ATOM      1  C   UNL     1     -11.976   7.204 129.577  0.00  0.00    +0.000 A 
ATOM      2  C   UNL     1     -10.724   6.579 129.499  0.00  0.00    +0.000 A 
ATOM      3  C   UNL     1     -10.146   6.013 130.629  0.00  0.00    +0.000 A 
ATOM      4  C   UNL     1     -10.737   6.206 131.877  0.00  0.00    +0.000 A 
ATOM      5  C   UNL     1     -11.979   6.829 131.971  0.00  0.00    +0.000 A 
ATOM      6  C   UNL     1     -12.608   7.308 130.825  0.00  0.00    +0.000 A 
ENDROOT
BRANCH   1   8
ATOM      7  C   UNL     1     -13.188   9.084 128.462  0.00  0.00    +0.000 C 
ATOM      8  C   UNL     1     -12.668   7.651 128.302  0.00  0.00    +0.000 C 
BRANCH   8   9
ATOM      9  C   UNL     1     -11.804   7.548 127.044  0.00  0.00    +0.000 C 
ATOM     10  O   UNL     1     -10.931   8.373 126.778  0.00  0.00    +0.000 OA
BRANCH   9  11
ATOM     11  O   UNL     1     -12.038   6.515 126.205  0.00  0.00    +0.000 OA
ATOM     12  H   UNL     1     -11.456   6.447 125.425  0.00  0.00    +0.000 HD
ENDBRANCH   9  11
ENDBRANCH   8   9
ENDBRANCH   1   8
BRANCH   3  13
ATOM     13  C   UNL     1      -8.968   5.141 130.427  0.00  0.00    +0.000 C 
ATOM     14  O   UNL     1      -8.074   5.460 129.649  0.00  0.00    +0.000 OA
BRANCH  13  15
ATOM     15  C   UNL     1      -8.863   3.857 131.131  0.00  0.00    +0.000 A 
ATOM     16  C   UNL     1      -7.703   3.630 131.866  0.00  0.00    +0.000 A 
ATOM     17  C   UNL     1      -7.539   2.411 132.511  0.00  0.00    +0.000 A 
ATOM     18  C   UNL     1      -8.561   1.460 132.478  0.00  0.00    +0.000 A 
ATOM     19  C   UNL     1      -9.734   1.702 131.759  0.00  0.00    +0.000 A 
ATOM     20  C   UNL     1      -9.879   2.896 131.060  0.00  0.00    +0.000 A 
ENDBRANCH  13  15
ENDBRANCH   3  13
TORSDOF 5
ENDMDL
MODEL 5
REMARK VINA RESULT:      -6.8      8.207     10.332
REMARK  Name = Ketoprofen
REMARK  6 active torsions:
REMARK  status: ('A' for Active; 'I' for Inactive)
REMARK    1  A    between atoms: C_1  and  C_2
REMARK    2  A    between atoms: C_2  and  C_3
REMARK    3  A    between atoms: C_2  and  C_6
REMARK    4  A    between atoms: C_3  and  O_4
REMARK    5  A    between atoms: C_8  and  C_12
REMARK    6  A    between atoms: C_12  and  C_14
REMARK                            x       y       z     vdW  Elec       q    Type
REMARK                         _______ _______ _______ _____ _____    ______ ____
ROOT
ATOM      1  C   UNL     1     -11.974   6.895 129.256  0.00  0.00    +0.000 A 
ATOM      2  C   UNL     1     -10.798   6.227 129.624  0.00  0.00    +0.000 A 
ATOM      3  C   UNL     1     -10.538   5.939 130.959  0.00  0.00    +0.000 A 
ATOM      4  C   UNL     1     -11.370   6.457 131.950  0.00  0.00    +0.000 A 
ATOM      5  C   UNL     1     -12.539   7.127 131.601  0.00  0.00    +0.000 A 
ATOM      6  C   UNL     1     -12.853   7.329 130.258  0.00  0.00    +0.000 A 
ENDROOT
BRANCH   1   8
ATOM      7  C   UNL     1     -13.715   7.660 127.633  0.00  0.00    +0.000 C 
ATOM      8  C   UNL     1     -12.323   7.036 127.785  0.00  0.00    +0.000 C 
BRANCH   8   9
ATOM      9  C   UNL     1     -11.304   7.830 126.966  0.00  0.00    +0.000 C 
ATOM     10  O   UNL     1     -11.024   7.537 125.805  0.00  0.00    +0.000 OA
BRANCH   9  11
ATOM     11  O   UNL     1     -10.694   8.875 127.567  0.00  0.00    +0.000 OA
ATOM     12  H   UNL     1     -11.240   9.670 127.719  0.00  0.00    +0.000 HD
ENDBRANCH   9  11
ENDBRANCH   8   9
ENDBRANCH   1   8
BRANCH   3  13
ATOM     13  C   UNL     1      -9.430   5.003 131.250  0.00  0.00    +0.000 C 
ATOM     14  O   UNL     1      -9.650   3.902 131.746  0.00  0.00    +0.000 OA
BRANCH  13  15
ATOM     15  C   UNL     1      -8.040   5.387 130.979  0.00  0.00    +0.000 A 
ATOM     16  C   UNL     1      -7.262   4.485 130.258  0.00  0.00    +0.000 A 
ATOM     17  C   UNL     1      -5.927   4.786 130.017  0.00  0.00    +0.000 A 
ATOM     18  C   UNL     1      -5.401   6.011 130.433  0.00  0.00    +0.000 A 
ATOM     19  C   UNL     1      -6.192   6.923 131.135  0.00  0.00    +0.000 A 
ATOM     20  C   UNL     1      -7.513   6.602 131.432  0.00  0.00    +0.000 A 
ENDBRANCH  13  15
ENDBRANCH   3  13
TORSDOF 5
ENDMDL
MODEL 6
REMARK VINA RESULT:      -6.7      8.657     10.328
REMARK  Name = Ketoprofen
REMARK  6 active torsions:
REMARK  status: ('A' for Active; 'I' for Inactive)
REMARK    1  A    between atoms: C_1  and  C_2
REMARK    2  A    between atoms: C_2  and  C_3
REMARK    3  A    between atoms: C_2  and  C_6
REMARK    4  A    between atoms: C_3  and  O_4
REMARK    5  A    between atoms: C_8  and  C_12
REMARK    6  A    between atoms: C_12  and  C_14
REMARK                            x       y       z     vdW  Elec       q    Type
REMARK                         _______ _______ _______ _____ _____    ______ ____
ROOT
ATOM      1  C   UNL     1      -6.225   6.270 130.907  0.00  0.00    +0.000 A 
ATOM      2  C   UNL     1      -7.508   6.818 131.039  0.00  0.00    +0.000 A 
ATOM      3  C   UNL     1      -8.634   6.062 130.729  0.00  0.00    +0.000 A 
ATOM      4  C   UNL     1      -8.483   4.811 130.135  0.00  0.00    +0.000 A 
ATOM      5  C   UNL     1      -7.214   4.255 129.994  0.00  0.00    +0.000 A 
ATOM      6  C   UNL     1      -6.089   4.970 130.397  0.00  0.00    +0.000 A 
ENDROOT
BRANCH   1   8
ATOM      7  C   UNL     1      -4.210   6.175 132.384  0.00  0.00    +0.000 C 
ATOM      8  C   UNL     1      -5.026   7.045 131.421  0.00  0.00    +0.000 C 
BRANCH   8   9
ATOM      9  C   UNL     1      -4.116   7.602 130.325  0.00  0.00    +0.000 C 
ATOM     10  O   UNL     1      -2.996   7.143 130.106  0.00  0.00    +0.000 OA
BRANCH   9  11
ATOM     11  O   UNL     1      -4.576   8.643 129.597  0.00  0.00    +0.000 OA
ATOM     12  H   UNL     1      -3.905   9.188 129.142  0.00  0.00    +0.000 HD
ENDBRANCH   9  11
ENDBRANCH   8   9
ENDBRANCH   1   8
BRANCH   3  13
ATOM     13  C   UNL     1      -9.949   6.598 131.146  0.00  0.00    +0.000 C 
ATOM     14  O   UNL     1     -10.331   6.498 132.308  0.00  0.00    +0.000 OA
BRANCH  13  15
ATOM     15  C   UNL     1     -10.837   7.234 130.166  0.00  0.00    +0.000 A 
ATOM     16  C   UNL     1     -12.207   7.100 130.373  0.00  0.00    +0.000 A 
ATOM     17  C   UNL     1     -13.087   7.646 129.446  0.00  0.00    +0.000 A 
ATOM     18  C   UNL     1     -12.596   8.380 128.364  0.00  0.00    +0.000 A 
ATOM     19  C   UNL     1     -11.221   8.531 128.174  0.00  0.00    +0.000 A 
ATOM     20  C   UNL     1     -10.333   7.936 129.065  0.00  0.00    +0.000 A 
ENDBRANCH  13  15
ENDBRANCH   3  13
TORSDOF 5
ENDMDL
MODEL 7
REMARK VINA RESULT:      -6.6      5.270      8.698
REMARK  Name = Ketoprofen
REMARK  6 active torsions:
REMARK  status: ('A' for Active; 'I' for Inactive)
REMARK    1  A    between atoms: C_1  and  C_2
REMARK    2  A    between atoms: C_2  and  C_3
REMARK    3  A    between atoms: C_2  and  C_6
REMARK    4  A    between atoms: C_3  and  O_4
REMARK    5  A    between atoms: C_8  and  C_12
REMARK    6  A    between atoms: C_12  and  C_14
REMARK                            x       y       z     vdW  Elec       q    Type
REMARK                         _______ _______ _______ _____ _____    ______ ____
ROOT
ATOM      1  C   UNL     1      -8.104  -2.680 126.416  0.00  0.00    +0.000 A 
ATOM      2  C   UNL     1      -7.314  -2.224 127.480  0.00  0.00    +0.000 A 
ATOM      3  C   UNL     1      -7.501  -2.725 128.763  0.00  0.00    +0.000 A 
ATOM      4  C   UNL     1      -8.582  -3.565 129.026  0.00  0.00    +0.000 A 
ATOM      5  C   UNL     1      -9.378  -4.023 127.980  0.00  0.00    +0.000 A 
ATOM      6  C   UNL     1      -9.130  -3.600 126.676  0.00  0.00    +0.000 A 
ENDROOT
BRANCH   1   8
ATOM      7  C   UNL     1      -7.080  -3.410 124.256  0.00  0.00    +0.000 C 
ATOM      8  C   UNL     1      -7.764  -2.257 124.999  0.00  0.00    +0.000 C 
BRANCH   8   9
ATOM      9  C   UNL     1      -8.957  -1.749 124.187  0.00  0.00    +0.000 C 
ATOM     10  O   UNL     1      -9.360  -0.590 124.270  0.00  0.00    +0.000 OA
BRANCH   9  11
ATOM     11  O   UNL     1      -9.580  -2.627 123.371  0.00  0.00    +0.000 OA
ATOM     12  H   UNL     1      -9.005  -3.193 122.821  0.00  0.00    +0.000 HD
ENDBRANCH   9  11
ENDBRANCH   8   9
ENDBRANCH   1   8
BRANCH   3  13
ATOM     13  C   UNL     1      -6.466  -2.411 129.774  0.00  0.00    +0.000 C 
ATOM     14  O   UNL     1      -5.770  -1.405 129.671  0.00  0.00    +0.000 OA
BRANCH  13  15
ATOM     15  C   UNL     1      -6.231  -3.317 130.904  0.00  0.00    +0.000 A 
ATOM     16  C   UNL     1      -6.800  -2.968 132.125  0.00  0.00    +0.000 A 
ATOM     17  C   UNL     1      -6.566  -3.771 133.235  0.00  0.00    +0.000 A 
ATOM     18  C   UNL     1      -5.829  -4.950 133.101  0.00  0.00    +0.000 A 
ATOM     19  C   UNL     1      -5.280  -5.308 131.868  0.00  0.00    +0.000 A 
ATOM     20  C   UNL     1      -5.459  -4.477 130.767  0.00  0.00    +0.000 A 
ENDBRANCH  13  15
ENDBRANCH   3  13
TORSDOF 5
ENDMDL
MODEL 8
REMARK VINA RESULT:      -6.6      5.034      6.971
REMARK  Name = Ketoprofen
REMARK  6 active torsions:
REMARK  status: ('A' for Active; 'I' for Inactive)
REMARK    1  A    between atoms: C_1  and  C_2
REMARK    2  A    between atoms: C_2  and  C_3
REMARK    3  A    between atoms: C_2  and  C_6
REMARK    4  A    between atoms: C_3  and  O_4
REMARK    5  A    between atoms: C_8  and  C_12
REMARK    6  A    between atoms: C_12  and  C_14
REMARK                            x       y       z     vdW  Elec       q    Type
REMARK                         _______ _______ _______ _____ _____    ______ ____
ROOT
ATOM      1  C   UNL     1      -8.185  -2.631 126.376  0.00  0.00    +0.000 A 
ATOM      2  C   UNL     1      -7.833  -1.618 127.278  0.00  0.00    +0.000 A 
ATOM      3  C   UNL     1      -7.899  -1.839 128.648  0.00  0.00    +0.000 A 
ATOM      4  C   UNL     1      -8.470  -3.015 129.131  0.00  0.00    +0.000 A 
ATOM      5  C   UNL     1      -8.829  -4.029 128.247  0.00  0.00    +0.000 A 
ATOM      6  C   UNL     1      -8.669  -3.849 126.875  0.00  0.00    +0.000 A 
ENDROOT
BRANCH   1   8
ATOM      7  C   UNL     1      -7.189  -3.643 124.318  0.00  0.00    +0.000 C 
ATOM      8  C   UNL     1      -7.932  -2.432 124.892  0.00  0.00    +0.000 C 
BRANCH   8   9
ATOM      9  C   UNL     1      -9.191  -2.154 124.068  0.00  0.00    +0.000 C 
ATOM     10  O   UNL     1      -9.533  -1.013 123.759  0.00  0.00    +0.000 OA
BRANCH   9  11
ATOM     11  O   UNL     1      -9.941  -3.213 123.693  0.00  0.00    +0.000 OA
ATOM     12  H   UNL     1      -9.713  -4.072 124.094  0.00  0.00    +0.000 HD
ENDBRANCH   9  11
ENDBRANCH   8   9
ENDBRANCH   1   8
BRANCH   3  13
ATOM     13  C   UNL     1      -7.260  -0.837 129.531  0.00  0.00    +0.000 C 
ATOM     14  O   UNL     1      -6.067  -0.912 129.809  0.00  0.00    +0.000 OA
BRANCH  13  15
ATOM     15  C   UNL     1      -8.052   0.249 130.118  0.00  0.00    +0.000 A 
ATOM     16  C   UNL     1      -8.648   0.004 131.352  0.00  0.00    +0.000 A 
ATOM     17  C   UNL     1      -9.446   0.987 131.925  0.00  0.00    +0.000 A 
ATOM     18  C   UNL     1      -9.582   2.229 131.300  0.00  0.00    +0.000 A 
ATOM     19  C   UNL     1      -8.963   2.478 130.073  0.00  0.00    +0.000 A 
ATOM     20  C   UNL     1      -8.213   1.477 129.465  0.00  0.00    +0.000 A 
ENDBRANCH  13  15
ENDBRANCH   3  13
TORSDOF 5
ENDMDL
MODEL 9
REMARK VINA RESULT:      -6.5      2.412      6.233
REMARK  Name = Ketoprofen
REMARK  6 active torsions:
REMARK  status: ('A' for Active; 'I' for Inactive)
REMARK    1  A    between atoms: C_1  and  C_2
REMARK    2  A    between atoms: C_2  and  C_3
REMARK    3  A    between atoms: C_2  and  C_6
REMARK    4  A    between atoms: C_3  and  O_4
REMARK    5  A    between atoms: C_8  and  C_12
REMARK    6  A    between atoms: C_12  and  C_14
REMARK                            x       y       z     vdW  Elec       q    Type
REMARK                         _______ _______ _______ _____ _____    ______ ____
ROOT
ATOM      1  C   UNL     1      -7.859   2.523 124.694  0.00  0.00    +0.000 A 
ATOM      2  C   UNL     1      -7.991   1.164 125.009  0.00  0.00    +0.000 A 
ATOM      3  C   UNL     1      -8.667   0.303 124.152  0.00  0.00    +0.000 A 
ATOM      4  C   UNL     1      -9.355   0.821 123.056  0.00  0.00    +0.000 A 
ATOM      5  C   UNL     1      -9.238   2.169 122.732  0.00  0.00    +0.000 A 
ATOM      6  C   UNL     1      -8.476   3.016 123.535  0.00  0.00    +0.000 A 
ENDROOT
BRANCH   1   8
ATOM      7  C   UNL     1      -5.505   2.959 125.412  0.00  0.00    +0.000 C 
ATOM      8  C   UNL     1      -6.965   3.405 125.547  0.00  0.00    +0.000 C 
BRANCH   8   9
ATOM      9  C   UNL     1      -7.083   4.901 125.250  0.00  0.00    +0.000 C 
ATOM     10  O   UNL     1      -6.166   5.542 124.740  0.00  0.00    +0.000 OA
BRANCH   9  11
ATOM     11  O   UNL     1      -8.239   5.517 125.582  0.00  0.00    +0.000 OA
ATOM     12  H   UNL     1      -8.268   5.944 126.460  0.00  0.00    +0.000 HD
ENDBRANCH   9  11
ENDBRANCH   8   9
ENDBRANCH   1   8
BRANCH   3  13
ATOM     13  C   UNL     1      -8.534  -1.149 124.403  0.00  0.00    +0.000 C 
ATOM     14  O   UNL     1      -9.455  -1.790 124.901  0.00  0.00    +0.000 OA
BRANCH  13  15
ATOM     15  C   UNL     1      -7.282  -1.847 124.089  0.00  0.00    +0.000 A 
ATOM     16  C   UNL     1      -6.804  -1.735 122.786  0.00  0.00    +0.000 A 
ATOM     17  C   UNL     1      -5.646  -2.417 122.430  0.00  0.00    +0.000 A 
ATOM     18  C   UNL     1      -4.938  -3.141 123.391  0.00  0.00    +0.000 A 
ATOM     19  C   UNL     1      -5.409  -3.230 124.703  0.00  0.00    +0.000 A 
ATOM     20  C   UNL     1      -6.600  -2.601 125.052  0.00  0.00    +0.000 A 
ENDBRANCH  13  15
ENDBRANCH   3  13
TORSDOF 5
ENDMDL
