MODEL 1
REMARK VINA RESULT:      -6.2      0.000      0.000
REMARK  Name = Kinetin
REMARK  2 active torsions:
REMARK  status: ('A' for Active; 'I' for Inactive)
REMARK    1  A    between atoms: C_1  and  N_2
REMARK    2  A    between atoms: C_1  and  C_12
REMARK                            x       y       z     vdW  Elec       q    Type
REMARK                         _______ _______ _______ _____ _____    ______ ____
ROOT
ATOM      1  N   UNL     1     -11.788   6.042 131.782  0.00  0.00    +0.000 N 
ATOM      2  C   UNL     1     -10.471   5.840 131.476  0.00  0.00    +0.000 A 
ATOM      3  N   UNL     1      -9.587   6.850 131.486  0.00  0.00    +0.000 NA
ATOM      4  C   UNL     1      -8.285   6.566 131.261  0.00  0.00    +0.000 A 
ATOM      5  N   UNL     1      -7.733   5.384 130.956  0.00  0.00    +0.000 NA
ATOM      6  C   UNL     1      -8.636   4.392 130.916  0.00  0.00    +0.000 A 
ATOM      7  C   UNL     1      -9.979   4.579 131.193  0.00  0.00    +0.000 A 
ATOM      8  N   UNL     1     -10.531   3.334 131.054  0.00  0.00    +0.000 N 
ATOM      9  C   UNL     1      -9.532   2.470 130.698  0.00  0.00    +0.000 A 
ATOM     10  N   UNL     1      -8.372   3.084 130.609  0.00  0.00    +0.000 NA
ATOM     11  H   UNL     1     -12.270   5.318 132.279  0.00  0.00    +0.000 HD
ATOM     12  H   UNL     1     -11.509   3.098 131.161  0.00  0.00    +0.000 HD
ENDROOT
BRANCH   1  13
ATOM     13  C   UNL     1     -12.529   7.228 131.385  0.00  0.00    +0.000 C 
BRANCH  13  14
ATOM     14  C   UNL     1     -12.517   7.399 129.892  0.00  0.00    +0.000 A 
ATOM     15  C   UNL     1     -13.104   6.668 128.877  0.00  0.00    +0.000 A 
ATOM     16  C   UNL     1     -12.744   7.283 127.663  0.00  0.00    +0.000 A 
ATOM     17  C   UNL     1     -11.958   8.358 128.002  0.00  0.00    +0.000 A 
ATOM     18  O   UNL     1     -11.807   8.438 129.354  0.00  0.00    +0.000 OA
ENDBRANCH  13  14
ENDBRANCH   1  13
TORSDOF 2
ENDMDL
MODEL 2
REMARK VINA RESULT:      -6.1      2.778      5.629
REMARK  Name = Kinetin
REMARK  2 active torsions:
REMARK  status: ('A' for Active; 'I' for Inactive)
REMARK    1  A    between atoms: C_1  and  N_2
REMARK    2  A    between atoms: C_1  and  C_12
REMARK                            x       y       z     vdW  Elec       q    Type
REMARK                         _______ _______ _______ _____ _____    ______ ____
ROOT
ATOM      1  N   UNL     1      -9.316   7.256 130.303  0.00  0.00    +0.000 N 
ATOM      2  C   UNL     1     -10.636   7.180 129.955  0.00  0.00    +0.000 A 
ATOM      3  N   UNL     1     -11.600   7.079 130.884  0.00  0.00    +0.000 NA
ATOM      4  C   UNL     1     -12.888   7.098 130.477  0.00  0.00    +0.000 A 
ATOM      5  N   UNL     1     -13.363   7.143 129.224  0.00  0.00    +0.000 NA
ATOM      6  C   UNL     1     -12.385   7.209 128.307  0.00  0.00    +0.000 A 
ATOM      7  C   UNL     1     -11.041   7.257 128.636  0.00  0.00    +0.000 A 
ATOM      8  N   UNL     1     -10.400   7.330 127.429  0.00  0.00    +0.000 N 
ATOM      9  C   UNL     1     -11.351   7.313 126.447  0.00  0.00    +0.000 A 
ATOM     10  N   UNL     1     -12.565   7.243 126.951  0.00  0.00    +0.000 NA
ATOM     11  H   UNL     1      -8.717   7.835 129.747  0.00  0.00    +0.000 HD
ATOM     12  H   UNL     1      -9.399   7.358 127.285  0.00  0.00    +0.000 HD
ENDROOT
BRANCH   1  13
ATOM     13  C   UNL     1      -8.734   6.507 131.405  0.00  0.00    +0.000 C 
BRANCH  13  14
ATOM     14  C   UNL     1      -7.236   6.626 131.410  0.00  0.00    +0.000 A 
ATOM     15  C   UNL     1      -6.273   6.087 132.241  0.00  0.00    +0.000 A 
ATOM     16  C   UNL     1      -5.025   6.548 131.782  0.00  0.00    +0.000 A 
ATOM     17  C   UNL     1      -5.294   7.344 130.693  0.00  0.00    +0.000 A 
ATOM     18  O   UNL     1      -6.635   7.404 130.459  0.00  0.00    +0.000 OA
ENDBRANCH  13  14
ENDBRANCH   1  13
TORSDOF 2
ENDMDL
MODEL 3
REMARK VINA RESULT:      -6.1      1.787      2.046
REMARK  Name = Kinetin
REMARK  2 active torsions:
REMARK  status: ('A' for Active; 'I' for Inactive)
REMARK    1  A    between atoms: C_1  and  N_2
REMARK    2  A    between atoms: C_1  and  C_12
REMARK                            x       y       z     vdW  Elec       q    Type
REMARK                         _______ _______ _______ _____ _____    ______ ____
ROOT
ATOM      1  N   UNL     1     -11.345   5.773 131.316  0.00  0.00    +0.000 N 
ATOM      2  C   UNL     1     -10.003   5.902 131.540  0.00  0.00    +0.000 A 
ATOM      3  N   UNL     1      -9.230   6.659 130.744  0.00  0.00    +0.000 NA
ATOM      4  C   UNL     1      -7.929   6.815 131.073  0.00  0.00    +0.000 A 
ATOM      5  N   UNL     1      -7.255   6.253 132.086  0.00  0.00    +0.000 NA
ATOM      6  C   UNL     1      -8.034   5.473 132.851  0.00  0.00    +0.000 A 
ATOM      7  C   UNL     1      -9.390   5.304 132.625  0.00  0.00    +0.000 A 
ATOM      8  N   UNL     1      -9.796   4.459 133.622  0.00  0.00    +0.000 N 
ATOM      9  C   UNL     1      -8.702   4.150 134.382  0.00  0.00    +0.000 A 
ATOM     10  N   UNL     1      -7.621   4.753 133.939  0.00  0.00    +0.000 NA
ATOM     11  H   UNL     1     -11.949   5.704 132.113  0.00  0.00    +0.000 HD
ATOM     12  H   UNL     1     -10.733   4.098 133.755  0.00  0.00    +0.000 HD
ENDROOT
BRANCH   1  13
ATOM     13  C   UNL     1     -11.930   5.686 129.988  0.00  0.00    +0.000 C 
BRANCH  13  14
ATOM     14  C   UNL     1     -12.428   7.026 129.526  0.00  0.00    +0.000 A 
ATOM     15  C   UNL     1     -12.981   7.440 128.330  0.00  0.00    +0.000 A 
ATOM     16  C   UNL     1     -13.251   8.816 128.453  0.00  0.00    +0.000 A 
ATOM     17  C   UNL     1     -12.849   9.169 129.720  0.00  0.00    +0.000 A 
ATOM     18  O   UNL     1     -12.342   8.090 130.382  0.00  0.00    +0.000 OA
ENDBRANCH  13  14
ENDBRANCH   1  13
TORSDOF 2
ENDMDL
MODEL 4
REMARK VINA RESULT:      -5.9      1.668      2.143
REMARK  Name = Kinetin
REMARK  2 active torsions:
REMARK  status: ('A' for Active; 'I' for Inactive)
REMARK    1  A    between atoms: C_1  and  N_2
REMARK    2  A    between atoms: C_1  and  C_12
REMARK                            x       y       z     vdW  Elec       q    Type
REMARK                         _______ _______ _______ _____ _____    ______ ____
ROOT
ATOM      1  N   UNL     1     -11.196   5.868 130.641  0.00  0.00    +0.000 N 
ATOM      2  C   UNL     1     -10.179   4.955 130.676  0.00  0.00    +0.000 A 
ATOM      3  N   UNL     1      -9.607   4.501 129.549  0.00  0.00    +0.000 NA
ATOM      4  C   UNL     1      -8.549   3.668 129.658  0.00  0.00    +0.000 A 
ATOM      5  N   UNL     1      -8.002   3.160 130.771  0.00  0.00    +0.000 NA
ATOM      6  C   UNL     1      -8.607   3.598 131.886  0.00  0.00    +0.000 A 
ATOM      7  C   UNL     1      -9.659   4.499 131.873  0.00  0.00    +0.000 A 
ATOM      8  N   UNL     1      -9.964   4.682 133.194  0.00  0.00    +0.000 N 
ATOM      9  C   UNL     1      -9.119   3.901 133.933  0.00  0.00    +0.000 A 
ATOM     10  N   UNL     1      -8.284   3.234 133.165  0.00  0.00    +0.000 NA
ATOM     11  H   UNL     1     -11.233   6.557 131.367  0.00  0.00    +0.000 HD
ATOM     12  H   UNL     1     -10.705   5.266 133.560  0.00  0.00    +0.000 HD
ENDROOT
BRANCH   1  13
ATOM     13  C   UNL     1     -12.245   5.859 129.633  0.00  0.00    +0.000 C 
BRANCH  13  14
ATOM     14  C   UNL     1     -12.666   7.258 129.279  0.00  0.00    +0.000 A 
ATOM     15  C   UNL     1     -13.382   7.760 128.209  0.00  0.00    +0.000 A 
ATOM     16  C   UNL     1     -13.469   9.153 128.387  0.00  0.00    +0.000 A 
ATOM     17  C   UNL     1     -12.802   9.427 129.557  0.00  0.00    +0.000 A 
ATOM     18  O   UNL     1     -12.305   8.284 130.108  0.00  0.00    +0.000 OA
ENDBRANCH  13  14
ENDBRANCH   1  13
TORSDOF 2
ENDMDL
MODEL 5
REMARK VINA RESULT:      -5.9      1.716      1.755
REMARK  Name = Kinetin
REMARK  2 active torsions:
REMARK  status: ('A' for Active; 'I' for Inactive)
REMARK    1  A    between atoms: C_1  and  N_2
REMARK    2  A    between atoms: C_1  and  C_12
REMARK                            x       y       z     vdW  Elec       q    Type
REMARK                         _______ _______ _______ _____ _____    ______ ____
ROOT
ATOM      1  N   UNL     1     -10.773   5.863 131.148  0.00  0.00    +0.000 N 
ATOM      2  C   UNL     1      -9.867   5.381 132.051  0.00  0.00    +0.000 A 
ATOM      3  N   UNL     1      -9.153   6.206 132.834  0.00  0.00    +0.000 NA
ATOM      4  C   UNL     1      -8.341   5.661 133.767  0.00  0.00    +0.000 A 
ATOM      5  N   UNL     1      -8.087   4.365 133.993  0.00  0.00    +0.000 NA
ATOM      6  C   UNL     1      -8.783   3.556 133.178  0.00  0.00    +0.000 A 
ATOM      7  C   UNL     1      -9.683   4.023 132.236  0.00  0.00    +0.000 A 
ATOM      8  N   UNL     1     -10.171   2.891 131.643  0.00  0.00    +0.000 N 
ATOM      9  C   UNL     1      -9.557   1.815 132.224  0.00  0.00    +0.000 A 
ATOM     10  N   UNL     1      -8.712   2.190 133.160  0.00  0.00    +0.000 NA
ATOM     11  H   UNL     1     -11.610   5.334 130.996  0.00  0.00    +0.000 HD
ATOM     12  H   UNL     1     -10.841   2.854 130.886  0.00  0.00    +0.000 HD
ENDROOT
BRANCH   1  13
ATOM     13  C   UNL     1     -10.561   7.073 130.370  0.00  0.00    +0.000 C 
BRANCH  13  14
ATOM     14  C   UNL     1     -11.763   7.391 129.525  0.00  0.00    +0.000 A 
ATOM     15  C   UNL     1     -12.701   6.579 128.917  0.00  0.00    +0.000 A 
ATOM     16  C   UNL     1     -13.601   7.423 128.239  0.00  0.00    +0.000 A 
ATOM     17  C   UNL     1     -13.163   8.706 128.470  0.00  0.00    +0.000 A 
ATOM     18  O   UNL     1     -12.043   8.701 129.247  0.00  0.00    +0.000 OA
ENDBRANCH  13  14
ENDBRANCH   1  13
TORSDOF 2
ENDMDL
MODEL 6
REMARK VINA RESULT:      -5.8      2.598      5.369
REMARK  Name = Kinetin
REMARK  2 active torsions:
REMARK  status: ('A' for Active; 'I' for Inactive)
REMARK    1  A    between atoms: C_1  and  N_2
REMARK    2  A    between atoms: C_1  and  C_12
REMARK                            x       y       z     vdW  Elec       q    Type
REMARK                         _______ _______ _______ _____ _____    ______ ____
ROOT
ATOM      1  N   UNL     1     -11.079   4.643 130.775  0.00  0.00    +0.000 N 
ATOM      2  C   UNL     1     -11.049   5.778 130.015  0.00  0.00    +0.000 A 
ATOM      3  N   UNL     1     -10.291   5.861 128.910  0.00  0.00    +0.000 NA
ATOM      4  C   UNL     1     -10.377   6.979 128.156  0.00  0.00    +0.000 A 
ATOM      5  N   UNL     1     -11.091   8.089 128.391  0.00  0.00    +0.000 NA
ATOM      6  C   UNL     1     -11.816   8.001 129.517  0.00  0.00    +0.000 A 
ATOM      7  C   UNL     1     -11.838   6.873 130.319  0.00  0.00    +0.000 A 
ATOM      8  N   UNL     1     -12.695   7.195 131.335  0.00  0.00    +0.000 N 
ATOM      9  C   UNL     1     -13.138   8.472 131.122  0.00  0.00    +0.000 A 
ATOM     10  N   UNL     1     -12.622   8.984 130.025  0.00  0.00    +0.000 NA
ATOM     11  H   UNL     1     -11.949   4.387 131.202  0.00  0.00    +0.000 HD
ATOM     12  H   UNL     1     -12.936   6.608 132.123  0.00  0.00    +0.000 HD
ENDROOT
BRANCH   1  13
ATOM     13  C   UNL     1      -9.908   3.819 131.029  0.00  0.00    +0.000 C 
BRANCH  13  14
ATOM     14  C   UNL     1      -9.285   4.156 132.354  0.00  0.00    +0.000 A 
ATOM     15  C   UNL     1      -9.120   3.415 133.508  0.00  0.00    +0.000 A 
ATOM     16  C   UNL     1      -8.479   4.247 134.445  0.00  0.00    +0.000 A 
ATOM     17  C   UNL     1      -8.285   5.451 133.812  0.00  0.00    +0.000 A 
ATOM     18  O   UNL     1      -8.775   5.411 132.541  0.00  0.00    +0.000 OA
ENDBRANCH  13  14
ENDBRANCH   1  13
TORSDOF 2
ENDMDL
MODEL 7
REMARK VINA RESULT:      -5.7      2.561      5.357
REMARK  Name = Kinetin
REMARK  2 active torsions:
REMARK  status: ('A' for Active; 'I' for Inactive)
REMARK    1  A    between atoms: C_1  and  N_2
REMARK    2  A    between atoms: C_1  and  C_12
REMARK                            x       y       z     vdW  Elec       q    Type
REMARK                         _______ _______ _______ _____ _____    ______ ____
ROOT
ATOM      1  N   UNL     1      -9.730   5.047 129.697  0.00  0.00    +0.000 N 
ATOM      2  C   UNL     1     -10.309   6.203 129.254  0.00  0.00    +0.000 A 
ATOM      3  N   UNL     1      -9.965   6.753 128.079  0.00  0.00    +0.000 NA
ATOM      4  C   UNL     1     -10.639   7.846 127.660  0.00  0.00    +0.000 A 
ATOM      5  N   UNL     1     -11.600   8.527 128.301  0.00  0.00    +0.000 NA
ATOM      6  C   UNL     1     -11.908   7.983 129.488  0.00  0.00    +0.000 A 
ATOM      7  C   UNL     1     -11.313   6.829 129.970  0.00  0.00    +0.000 A 
ATOM      8  N   UNL     1     -11.912   6.620 131.182  0.00  0.00    +0.000 N 
ATOM      9  C   UNL     1     -12.811   7.630 131.386  0.00  0.00    +0.000 A 
ATOM     10  N   UNL     1     -12.832   8.470 130.373  0.00  0.00    +0.000 NA
ATOM     11  H   UNL     1     -10.302   4.402 130.208  0.00  0.00    +0.000 HD
ATOM     12  H   UNL     1     -11.705   5.870 131.830  0.00  0.00    +0.000 HD
ENDROOT
BRANCH   1  13
ATOM     13  C   UNL     1      -8.324   4.731 129.503  0.00  0.00    +0.000 C 
BRANCH  13  14
ATOM     14  C   UNL     1      -7.472   5.383 130.554  0.00  0.00    +0.000 A 
ATOM     15  C   UNL     1      -7.433   5.238 131.928  0.00  0.00    +0.000 A 
ATOM     16  C   UNL     1      -6.441   6.113 132.408  0.00  0.00    +0.000 A 
ATOM     17  C   UNL     1      -5.925   6.744 131.302  0.00  0.00    +0.000 A 
ATOM     18  O   UNL     1      -6.547   6.313 130.167  0.00  0.00    +0.000 OA
ENDBRANCH  13  14
ENDBRANCH   1  13
TORSDOF 2
ENDMDL
MODEL 8
REMARK VINA RESULT:      -5.6      2.838      5.774
REMARK  Name = Kinetin
REMARK  2 active torsions:
REMARK  status: ('A' for Active; 'I' for Inactive)
REMARK    1  A    between atoms: C_1  and  N_2
REMARK    2  A    between atoms: C_1  and  C_12
REMARK                            x       y       z     vdW  Elec       q    Type
REMARK                         _______ _______ _______ _____ _____    ______ ____
ROOT
ATOM      1  N   UNL     1      -9.695   5.733 131.090  0.00  0.00    +0.000 N 
ATOM      2  C   UNL     1     -10.792   6.516 130.861  0.00  0.00    +0.000 A 
ATOM      3  N   UNL     1     -11.800   6.584 131.746  0.00  0.00    +0.000 NA
ATOM      4  C   UNL     1     -12.812   7.445 131.500  0.00  0.00    +0.000 A 
ATOM      5  N   UNL     1     -12.994   8.229 130.428  0.00  0.00    +0.000 NA
ATOM      6  C   UNL     1     -11.995   8.123 129.539  0.00  0.00    +0.000 A 
ATOM      7  C   UNL     1     -10.889   7.313 129.736  0.00  0.00    +0.000 A 
ATOM      8  N   UNL     1     -10.124   7.506 128.618  0.00  0.00    +0.000 N 
ATOM      9  C   UNL     1     -10.782   8.390 127.807  0.00  0.00    +0.000 A 
ATOM     10  N   UNL     1     -11.918   8.782 128.342  0.00  0.00    +0.000 NA
ATOM     11  H   UNL     1      -8.805   6.069 130.775  0.00  0.00    +0.000 HD
ATOM     12  H   UNL     1      -9.244   7.052 128.410  0.00  0.00    +0.000 HD
ENDROOT
BRANCH   1  13
ATOM     13  C   UNL     1      -9.763   4.426 131.723  0.00  0.00    +0.000 C 
BRANCH  13  14
ATOM     14  C   UNL     1      -8.703   4.279 132.778  0.00  0.00    +0.000 A 
ATOM     15  C   UNL     1      -8.780   3.968 134.122  0.00  0.00    +0.000 A 
ATOM     16  C   UNL     1      -7.466   3.982 134.626  0.00  0.00    +0.000 A 
ATOM     17  C   UNL     1      -6.656   4.300 133.562  0.00  0.00    +0.000 A 
ATOM     18  O   UNL     1      -7.396   4.488 132.432  0.00  0.00    +0.000 OA
ENDBRANCH  13  14
ENDBRANCH   1  13
TORSDOF 2
ENDMDL
MODEL 9
REMARK VINA RESULT:      -5.5      8.186      9.460
REMARK  Name = Kinetin
REMARK  2 active torsions:
REMARK  status: ('A' for Active; 'I' for Inactive)
REMARK    1  A    between atoms: C_1  and  N_2
REMARK    2  A    between atoms: C_1  and  C_12
REMARK                            x       y       z     vdW  Elec       q    Type
REMARK                         _______ _______ _______ _____ _____    ______ ____
ROOT
ATOM      1  N   UNL     1      -8.013   1.486 123.929  0.00  0.00    +0.000 N 
ATOM      2  C   UNL     1      -8.485   0.206 124.016  0.00  0.00    +0.000 A 
ATOM      3  N   UNL     1      -9.091  -0.389 122.976  0.00  0.00    +0.000 NA
ATOM      4  C   UNL     1      -9.454  -1.685 123.101  0.00  0.00    +0.000 A 
ATOM      5  N   UNL     1      -9.348  -2.478 124.176  0.00  0.00    +0.000 NA
ATOM      6  C   UNL     1      -8.771  -1.857 125.216  0.00  0.00    +0.000 A 
ATOM      7  C   UNL     1      -8.313  -0.551 125.160  0.00  0.00    +0.000 A 
ATOM      8  N   UNL     1      -7.795  -0.320 126.405  0.00  0.00    +0.000 N 
ATOM      9  C   UNL     1      -7.965  -1.456 127.148  0.00  0.00    +0.000 A 
ATOM     10  N   UNL     1      -8.552  -2.405 126.451  0.00  0.00    +0.000 NA
ATOM     11  H   UNL     1      -7.167   1.708 124.417  0.00  0.00    +0.000 HD
ATOM     12  H   UNL     1      -7.388   0.547 126.732  0.00  0.00    +0.000 HD
ENDROOT
BRANCH   1  13
ATOM     13  C   UNL     1      -8.699   2.544 123.205  0.00  0.00    +0.000 C 
BRANCH  13  14
ATOM     14  C   UNL     1      -7.832   3.102 122.111  0.00  0.00    +0.000 A 
ATOM     15  C   UNL     1      -6.460   3.216 121.992  0.00  0.00    +0.000 A 
ATOM     16  C   UNL     1      -6.203   3.832 120.753  0.00  0.00    +0.000 A 
ATOM     17  C   UNL     1      -7.431   4.059 120.181  0.00  0.00    +0.000 A 
ATOM     18  O   UNL     1      -8.432   3.624 120.998  0.00  0.00    +0.000 OA
ENDBRANCH  13  14
ENDBRANCH   1  13
TORSDOF 2
ENDMDL
