MODEL 1
REMARK VINA RESULT:      -4.6      0.000      0.000
REMARK  Name = L-Glutamine
REMARK  6 active torsions:
REMARK  status: ('A' for Active; 'I' for Inactive)
REMARK    1  A    between atoms: N_1  and  CA_2
REMARK    2  A    between atoms: CA_2  and  CB_3
REMARK    3  A    between atoms: CA_2  and  C_8
REMARK    4  A    between atoms: CB_3  and  CG_4
REMARK    5  A    between atoms: CG_4  and  CD_5
REMARK    6  A    between atoms: C_8  and  O_9
REMARK                            x       y       z     vdW  Elec       q    Type
REMARK                         _______ _______ _______ _____ _____    ______ ____
ROOT
ATOM      1  CA  GLN A   1     -12.035   8.142 127.692  0.00  0.00    +0.000 C 
ENDROOT
BRANCH   1   2
ATOM      2  N   GLN A   1     -13.221   7.244 127.653  0.00  0.00    +0.000 NA
ATOM      3  H1  GLN A   1     -14.036   7.829 127.431  0.00  0.00    +0.000 HD
ATOM      4  H2  GLN A   1     -13.423   6.909 128.598  0.00  0.00    +0.000 HD
ENDBRANCH   1   2
BRANCH   1   5
ATOM      5  C   GLN A   1     -10.929   7.601 126.769  0.00  0.00    +0.000 C 
ATOM      6  OXT GLN A   1     -10.774   7.960 125.606  0.00  0.00    +0.000 OA
BRANCH   5   7
ATOM      7  O   GLN A   1     -10.098   6.718 127.374  0.00  0.00    +0.000 OA
ATOM      8  H   GLN A   1     -10.635   6.133 127.956  0.00  0.00    +0.000 HD
ENDBRANCH   5   7
ENDBRANCH   1   5
BRANCH   1   9
ATOM      9  CB  GLN A   1     -11.474   8.257 129.110  0.00  0.00    +0.000 C 
BRANCH   9  10
ATOM     10  CG  GLN A   1     -12.298   7.537 130.176  0.00  0.00    +0.000 C 
BRANCH  10  11
ATOM     11  CD  GLN A   1     -11.798   6.151 130.537  0.00  0.00    +0.000 C 
ATOM     12  NE2 GLN A   1     -11.558   5.875 131.847  0.00  0.00    +0.000 N 
ATOM     13  OE1 GLN A   1     -11.589   5.298 129.678  0.00  0.00    +0.000 OA
ATOM     14 HE21 GLN A   1     -11.736   6.508 132.614  0.00  0.00    +0.000 HD
ATOM     15 HE22 GLN A   1     -11.234   4.946 132.078  0.00  0.00    +0.000 HD
ENDBRANCH  10  11
ENDBRANCH   9  10
ENDBRANCH   1   9
TORSDOF 6
ENDMDL
MODEL 2
REMARK VINA RESULT:      -4.5      1.491      1.636
REMARK  Name = L-Glutamine
REMARK  6 active torsions:
REMARK  status: ('A' for Active; 'I' for Inactive)
REMARK    1  A    between atoms: N_1  and  CA_2
REMARK    2  A    between atoms: CA_2  and  CB_3
REMARK    3  A    between atoms: CA_2  and  C_8
REMARK    4  A    between atoms: CB_3  and  CG_4
REMARK    5  A    between atoms: CG_4  and  CD_5
REMARK    6  A    between atoms: C_8  and  O_9
REMARK                            x       y       z     vdW  Elec       q    Type
REMARK                         _______ _______ _______ _____ _____    ______ ____
ROOT
ATOM      1  CA  GLN A   1     -12.069   8.733 129.269  0.00  0.00    +0.000 C 
ENDROOT
BRANCH   1   2
ATOM      2  N   GLN A   1     -13.035   9.636 128.586  0.00  0.00    +0.000 NA
ATOM      3  H1  GLN A   1     -12.489  10.257 127.976  0.00  0.00    +0.000 HD
ATOM      4  H2  GLN A   1     -13.441  10.279 129.271  0.00  0.00    +0.000 HD
ENDBRANCH   1   2
BRANCH   1   5
ATOM      5  C   GLN A   1     -10.901   8.394 128.326  0.00  0.00    +0.000 C 
ATOM      6  OXT GLN A   1     -10.970   8.459 127.104  0.00  0.00    +0.000 OA
BRANCH   5   7
ATOM      7  O   GLN A   1      -9.759   8.061 128.974  0.00  0.00    +0.000 OA
ATOM      8  H   GLN A   1      -9.573   8.748 129.654  0.00  0.00    +0.000 HD
ENDBRANCH   5   7
ENDBRANCH   1   5
BRANCH   1   9
ATOM      9  CB  GLN A   1     -12.742   7.429 129.702  0.00  0.00    +0.000 C 
BRANCH   9  10
ATOM     10  CG  GLN A   1     -12.485   7.039 131.156  0.00  0.00    +0.000 C 
BRANCH  10  11
ATOM     11  CD  GLN A   1     -11.308   6.106 131.366  0.00  0.00    +0.000 C 
ATOM     12  NE2 GLN A   1     -10.848   5.926 132.632  0.00  0.00    +0.000 N 
ATOM     13  OE1 GLN A   1     -10.760   5.540 130.423  0.00  0.00    +0.000 OA
ATOM     14 HE21 GLN A   1     -11.263   6.326 133.462  0.00  0.00    +0.000 HD
ATOM     15 HE22 GLN A   1     -10.068   5.295 132.763  0.00  0.00    +0.000 HD
ENDBRANCH  10  11
ENDBRANCH   9  10
ENDBRANCH   1   9
TORSDOF 6
ENDMDL
MODEL 3
REMARK VINA RESULT:      -4.3      2.384      2.698
REMARK  Name = L-Glutamine
REMARK  6 active torsions:
REMARK  status: ('A' for Active; 'I' for Inactive)
REMARK    1  A    between atoms: N_1  and  CA_2
REMARK    2  A    between atoms: CA_2  and  CB_3
REMARK    3  A    between atoms: CA_2  and  C_8
REMARK    4  A    between atoms: CB_3  and  CG_4
REMARK    5  A    between atoms: CG_4  and  CD_5
REMARK    6  A    between atoms: C_8  and  O_9
REMARK                            x       y       z     vdW  Elec       q    Type
REMARK                         _______ _______ _______ _____ _____    ______ ____
ROOT
ATOM      1  CA  GLN A   1     -13.103   7.447 129.244  0.00  0.00    +0.000 C 
ENDROOT
BRANCH   1   2
ATOM      2  N   GLN A   1     -12.393   6.390 128.474  0.00  0.00    +0.000 NA
ATOM      3  H1  GLN A   1     -11.951   6.848 127.668  0.00  0.00    +0.000 HD
ATOM      4  H2  GLN A   1     -13.081   5.767 128.042  0.00  0.00    +0.000 HD
ENDBRANCH   1   2
BRANCH   1   5
ATOM      5  C   GLN A   1     -12.732   8.839 128.702  0.00  0.00    +0.000 C 
ATOM      6  OXT GLN A   1     -13.514   9.783 128.655  0.00  0.00    +0.000 OA
BRANCH   5   7
ATOM      7  O   GLN A   1     -11.437   8.947 128.322  0.00  0.00    +0.000 OA
ATOM      8  H   GLN A   1     -11.308   8.427 127.496  0.00  0.00    +0.000 HD
ENDBRANCH   5   7
ENDBRANCH   1   5
BRANCH   1   9
ATOM      9  CB  GLN A   1     -12.739   7.389 130.729  0.00  0.00    +0.000 C 
BRANCH   9  10
ATOM     10  CG  GLN A   1     -11.801   6.244 131.105  0.00  0.00    +0.000 C 
BRANCH  10  11
ATOM     11  CD  GLN A   1     -10.349   6.644 131.285  0.00  0.00    +0.000 C 
ATOM     12  NE2 GLN A   1      -9.690   7.169 130.219  0.00  0.00    +0.000 N 
ATOM     13  OE1 GLN A   1      -9.765   6.482 132.354  0.00  0.00    +0.000 OA
ATOM     14 HE21 GLN A   1     -10.106   7.365 129.319  0.00  0.00    +0.000 HD
ATOM     15 HE22 GLN A   1      -8.725   7.440 130.351  0.00  0.00    +0.000 HD
ENDBRANCH  10  11
ENDBRANCH   9  10
ENDBRANCH   1   9
TORSDOF 6
ENDMDL
MODEL 4
REMARK VINA RESULT:      -4.3      2.272      4.196
REMARK  Name = L-Glutamine
REMARK  6 active torsions:
REMARK  status: ('A' for Active; 'I' for Inactive)
REMARK    1  A    between atoms: N_1  and  CA_2
REMARK    2  A    between atoms: CA_2  and  CB_3
REMARK    3  A    between atoms: CA_2  and  C_8
REMARK    4  A    between atoms: CB_3  and  CG_4
REMARK    5  A    between atoms: CG_4  and  CD_5
REMARK    6  A    between atoms: C_8  and  O_9
REMARK                            x       y       z     vdW  Elec       q    Type
REMARK                         _______ _______ _______ _____ _____    ______ ____
ROOT
ATOM      1  CA  GLN A   1     -10.366   6.137 130.534  0.00  0.00    +0.000 C 
ENDROOT
BRANCH   1   2
ATOM      2  N   GLN A   1     -11.014   5.073 129.721  0.00  0.00    +0.000 NA
ATOM      3  H1  GLN A   1     -11.786   4.691 130.281  0.00  0.00    +0.000 HD
ATOM      4  H2  GLN A   1     -10.375   4.279 129.632  0.00  0.00    +0.000 HD
ENDBRANCH   1   2
BRANCH   1   5
ATOM      5  C   GLN A   1     -11.190   6.409 131.806  0.00  0.00    +0.000 C 
ATOM      6  OXT GLN A   1     -12.409   6.550 131.813  0.00  0.00    +0.000 OA
BRANCH   5   7
ATOM      7  O   GLN A   1     -10.449   6.429 132.940  0.00  0.00    +0.000 OA
ATOM      8  H   GLN A   1     -10.430   7.352 133.284  0.00  0.00    +0.000 HD
ENDBRANCH   5   7
ENDBRANCH   1   5
BRANCH   1   9
ATOM      9  CB  GLN A   1     -10.244   7.441 129.744  0.00  0.00    +0.000 C 
BRANCH   9  10
ATOM     10  CG  GLN A   1     -11.062   7.478 128.455  0.00  0.00    +0.000 C 
BRANCH  10  11
ATOM     11  CD  GLN A   1     -12.481   7.986 128.616  0.00  0.00    +0.000 C 
ATOM     12  NE2 GLN A   1     -13.454   7.088 128.924  0.00  0.00    +0.000 N 
ATOM     13  OE1 GLN A   1     -12.763   9.171 128.454  0.00  0.00    +0.000 OA
ATOM     14 HE21 GLN A   1     -13.300   6.107 129.107  0.00  0.00    +0.000 HD
ATOM     15 HE22 GLN A   1     -14.396   7.438 129.038  0.00  0.00    +0.000 HD
ENDBRANCH  10  11
ENDBRANCH   9  10
ENDBRANCH   1   9
TORSDOF 6
ENDMDL
MODEL 5
REMARK VINA RESULT:      -4.3      1.919      4.473
REMARK  Name = L-Glutamine
REMARK  6 active torsions:
REMARK  status: ('A' for Active; 'I' for Inactive)
REMARK    1  A    between atoms: N_1  and  CA_2
REMARK    2  A    between atoms: CA_2  and  CB_3
REMARK    3  A    between atoms: CA_2  and  C_8
REMARK    4  A    between atoms: CB_3  and  CG_4
REMARK    5  A    between atoms: CG_4  and  CD_5
REMARK    6  A    between atoms: C_8  and  O_9
REMARK                            x       y       z     vdW  Elec       q    Type
REMARK                         _______ _______ _______ _____ _____    ______ ____
ROOT
ATOM      1  CA  GLN A   1     -10.289   6.504 130.269  0.00  0.00    +0.000 C 
ENDROOT
BRANCH   1   2
ATOM      2  N   GLN A   1     -10.296   5.184 129.583  0.00  0.00    +0.000 NA
ATOM      3  H1  GLN A   1     -10.701   4.505 130.238  0.00  0.00    +0.000 HD
ATOM      4  H2  GLN A   1      -9.333   4.856 129.471  0.00  0.00    +0.000 HD
ENDBRANCH   1   2
BRANCH   1   5
ATOM      5  C   GLN A   1     -10.803   6.356 131.712  0.00  0.00    +0.000 C 
ATOM      6  OXT GLN A   1     -10.089   6.457 132.704  0.00  0.00    +0.000 OA
BRANCH   5   7
ATOM      7  O   GLN A   1     -12.139   6.151 131.796  0.00  0.00    +0.000 OA
ATOM      8  H   GLN A   1     -12.388   5.446 131.155  0.00  0.00    +0.000 HD
ENDBRANCH   5   7
ENDBRANCH   1   5
BRANCH   1   9
ATOM      9  CB  GLN A   1     -11.175   7.514 129.537  0.00  0.00    +0.000 C 
BRANCH   9  10
ATOM     10  CG  GLN A   1     -10.562   8.083 128.259  0.00  0.00    +0.000 C 
BRANCH  10  11
ATOM     11  CD  GLN A   1     -10.764   7.230 127.022  0.00  0.00    +0.000 C 
ATOM     12  NE2 GLN A   1     -11.974   7.270 126.403  0.00  0.00    +0.000 N 
ATOM     13  OE1 GLN A   1      -9.874   6.501 126.592  0.00  0.00    +0.000 OA
ATOM     14 HE21 GLN A   1     -12.743   7.867 126.673  0.00  0.00    +0.000 HD
ATOM     15 HE22 GLN A   1     -12.095   6.704 125.574  0.00  0.00    +0.000 HD
ENDBRANCH  10  11
ENDBRANCH   9  10
ENDBRANCH   1   9
TORSDOF 6
ENDMDL
MODEL 6
REMARK VINA RESULT:      -4.2      2.178      3.917
REMARK  Name = L-Glutamine
REMARK  6 active torsions:
REMARK  status: ('A' for Active; 'I' for Inactive)
REMARK    1  A    between atoms: N_1  and  CA_2
REMARK    2  A    between atoms: CA_2  and  CB_3
REMARK    3  A    between atoms: CA_2  and  C_8
REMARK    4  A    between atoms: CB_3  and  CG_4
REMARK    5  A    between atoms: CG_4  and  CD_5
REMARK    6  A    between atoms: C_8  and  O_9
REMARK                            x       y       z     vdW  Elec       q    Type
REMARK                         _______ _______ _______ _____ _____    ______ ____
ROOT
ATOM      1  CA  GLN A   1     -11.502   6.226 131.231  0.00  0.00    +0.000 C 
ENDROOT
BRANCH   1   2
ATOM      2  N   GLN A   1     -10.947   6.300 132.609  0.00  0.00    +0.000 NA
ATOM      3  H1  GLN A   1     -11.536   6.953 133.139  0.00  0.00    +0.000 HD
ATOM      4  H2  GLN A   1     -10.039   6.773 132.583  0.00  0.00    +0.000 HD
ENDBRANCH   1   2
BRANCH   1   5
ATOM      5  C   GLN A   1     -10.361   6.205 130.199  0.00  0.00    +0.000 C 
ATOM      6  OXT GLN A   1     -10.190   5.299 129.389  0.00  0.00    +0.000 OA
BRANCH   5   7
ATOM      7  O   GLN A   1      -9.580   7.311 130.228  0.00  0.00    +0.000 OA
ATOM      8  H   GLN A   1      -8.637   7.028 130.263  0.00  0.00    +0.000 HD
ENDBRANCH   5   7
ENDBRANCH   1   5
BRANCH   1   9
ATOM      9  CB  GLN A   1     -12.407   7.424 130.934  0.00  0.00    +0.000 C 
BRANCH   9  10
ATOM     10  CG  GLN A   1     -12.981   7.446 129.518  0.00  0.00    +0.000 C 
BRANCH  10  11
ATOM     11  CD  GLN A   1     -12.685   8.708 128.732  0.00  0.00    +0.000 C 
ATOM     12  NE2 GLN A   1     -11.432   8.875 128.231  0.00  0.00    +0.000 N 
ATOM     13  OE1 GLN A   1     -13.538   9.576 128.564  0.00  0.00    +0.000 OA
ATOM     14 HE21 GLN A   1     -10.687   8.196 128.296  0.00  0.00    +0.000 HD
ATOM     15 HE22 GLN A   1     -11.247   9.716 127.700  0.00  0.00    +0.000 HD
ENDBRANCH  10  11
ENDBRANCH   9  10
ENDBRANCH   1   9
TORSDOF 6
ENDMDL
MODEL 7
REMARK VINA RESULT:      -4.2      2.081      4.099
REMARK  Name = L-Glutamine
REMARK  6 active torsions:
REMARK  status: ('A' for Active; 'I' for Inactive)
REMARK    1  A    between atoms: N_1  and  CA_2
REMARK    2  A    between atoms: CA_2  and  CB_3
REMARK    3  A    between atoms: CA_2  and  C_8
REMARK    4  A    between atoms: CB_3  and  CG_4
REMARK    5  A    between atoms: CG_4  and  CD_5
REMARK    6  A    between atoms: C_8  and  O_9
REMARK                            x       y       z     vdW  Elec       q    Type
REMARK                         _______ _______ _______ _____ _____    ______ ____
ROOT
ATOM      1  CA  GLN A   1     -12.099   6.265 131.059  0.00  0.00    +0.000 C 
ENDROOT
BRANCH   1   2
ATOM      2  N   GLN A   1     -13.020   7.338 131.521  0.00  0.00    +0.000 NA
ATOM      3  H1  GLN A   1     -13.929   6.897 131.705  0.00  0.00    +0.000 HD
ATOM      4  H2  GLN A   1     -13.220   7.971 130.742  0.00  0.00    +0.000 HD
ENDBRANCH   1   2
BRANCH   1   5
ATOM      5  C   GLN A   1     -10.662   6.562 131.523  0.00  0.00    +0.000 C 
ATOM      6  OXT GLN A   1      -9.771   6.953 130.776  0.00  0.00    +0.000 OA
BRANCH   5   7
ATOM      7  O   GLN A   1     -10.476   6.402 132.855  0.00  0.00    +0.000 OA
ATOM      8  H   GLN A   1     -11.232   6.818 133.328  0.00  0.00    +0.000 HD
ENDBRANCH   5   7
ENDBRANCH   1   5
BRANCH   1   9
ATOM      9  CB  GLN A   1     -12.105   6.148 129.533  0.00  0.00    +0.000 C 
BRANCH   9  10
ATOM     10  CG  GLN A   1     -12.997   7.165 128.825  0.00  0.00    +0.000 C 
BRANCH  10  11
ATOM     11  CD  GLN A   1     -12.297   8.445 128.409  0.00  0.00    +0.000 C 
ATOM     12  NE2 GLN A   1     -12.702   9.612 128.976  0.00  0.00    +0.000 N 
ATOM     13  OE1 GLN A   1     -11.403   8.444 127.567  0.00  0.00    +0.000 OA
ATOM     14 HE21 GLN A   1     -13.404   9.693 129.698  0.00  0.00    +0.000 HD
ATOM     15 HE22 GLN A   1     -12.224  10.459 128.699  0.00  0.00    +0.000 HD
ENDBRANCH  10  11
ENDBRANCH   9  10
ENDBRANCH   1   9
TORSDOF 6
ENDMDL
MODEL 8
REMARK VINA RESULT:      -4.2      2.212      2.817
REMARK  Name = L-Glutamine
REMARK  6 active torsions:
REMARK  status: ('A' for Active; 'I' for Inactive)
REMARK    1  A    between atoms: N_1  and  CA_2
REMARK    2  A    between atoms: CA_2  and  CB_3
REMARK    3  A    between atoms: CA_2  and  C_8
REMARK    4  A    between atoms: CB_3  and  CG_4
REMARK    5  A    between atoms: CG_4  and  CD_5
REMARK    6  A    between atoms: C_8  and  O_9
REMARK                            x       y       z     vdW  Elec       q    Type
REMARK                         _______ _______ _______ _____ _____    ______ ____
ROOT
ATOM      1  CA  GLN A   1     -11.312   7.873 128.685  0.00  0.00    +0.000 C 
ENDROOT
BRANCH   1   2
ATOM      2  N   GLN A   1     -10.868   8.598 127.464  0.00  0.00    +0.000 NA
ATOM      3  H1  GLN A   1     -10.127   8.034 127.030  0.00  0.00    +0.000 HD
ATOM      4  H2  GLN A   1     -10.380   9.455 127.738  0.00  0.00    +0.000 HD
ENDBRANCH   1   2
BRANCH   1   5
ATOM      5  C   GLN A   1     -12.372   8.699 129.436  0.00  0.00    +0.000 C 
ATOM      6  OXT GLN A   1     -12.798   8.411 130.550  0.00  0.00    +0.000 OA
BRANCH   5   7
ATOM      7  O   GLN A   1     -12.762   9.815 128.774  0.00  0.00    +0.000 OA
ATOM      8  H   GLN A   1     -13.593  10.148 129.185  0.00  0.00    +0.000 HD
ENDBRANCH   5   7
ENDBRANCH   1   5
BRANCH   1   9
ATOM      9  CB  GLN A   1     -10.139   7.609 129.631  0.00  0.00    +0.000 C 
BRANCH   9  10
ATOM     10  CG  GLN A   1      -9.871   6.132 129.908  0.00  0.00    +0.000 C 
BRANCH  10  11
ATOM     11  CD  GLN A   1     -11.046   5.371 130.492  0.00  0.00    +0.000 C 
ATOM     12  NE2 GLN A   1     -11.595   5.826 131.649  0.00  0.00    +0.000 N 
ATOM     13  OE1 GLN A   1     -11.484   4.355 129.958  0.00  0.00    +0.000 OA
ATOM     14 HE21 GLN A   1     -11.315   6.669 132.131  0.00  0.00    +0.000 HD
ATOM     15 HE22 GLN A   1     -12.383   5.317 132.027  0.00  0.00    +0.000 HD
ENDBRANCH  10  11
ENDBRANCH   9  10
ENDBRANCH   1   9
TORSDOF 6
ENDMDL
MODEL 9
REMARK VINA RESULT:      -4.2      2.788      4.000
REMARK  Name = L-Glutamine
REMARK  6 active torsions:
REMARK  status: ('A' for Active; 'I' for Inactive)
REMARK    1  A    between atoms: N_1  and  CA_2
REMARK    2  A    between atoms: CA_2  and  CB_3
REMARK    3  A    between atoms: CA_2  and  C_8
REMARK    4  A    between atoms: CB_3  and  CG_4
REMARK    5  A    between atoms: CG_4  and  CD_5
REMARK    6  A    between atoms: C_8  and  O_9
REMARK                            x       y       z     vdW  Elec       q    Type
REMARK                         _______ _______ _______ _____ _____    ______ ____
ROOT
ATOM      1  CA  GLN A   1     -10.383   6.319 129.432  0.00  0.00    +0.000 C 
ENDROOT
BRANCH   1   2
ATOM      2  N   GLN A   1      -9.285   5.580 128.752  0.00  0.00    +0.000 NA
ATOM      3  H1  GLN A   1      -8.524   5.476 129.433  0.00  0.00    +0.000 HD
ATOM      4  H2  GLN A   1      -8.873   6.176 128.029  0.00  0.00    +0.000 HD
ENDBRANCH   1   2
BRANCH   1   5
ATOM      5  C   GLN A   1     -11.232   5.351 130.276  0.00  0.00    +0.000 C 
ATOM      6  OXT GLN A   1     -11.346   4.155 130.032  0.00  0.00    +0.000 OA
BRANCH   5   7
ATOM      7  O   GLN A   1     -11.808   5.933 131.355  0.00  0.00    +0.000 OA
ATOM      8  H   GLN A   1     -12.511   5.333 131.695  0.00  0.00    +0.000 HD
ENDBRANCH   5   7
ENDBRANCH   1   5
BRANCH   1   9
ATOM      9  CB  GLN A   1     -11.296   7.011 128.417  0.00  0.00    +0.000 C 
BRANCH   9  10
ATOM     10  CG  GLN A   1     -11.353   8.531 128.553  0.00  0.00    +0.000 C 
BRANCH  10  11
ATOM     11  CD  GLN A   1     -12.550   9.056 129.321  0.00  0.00    +0.000 C 
ATOM     12  NE2 GLN A   1     -13.292  10.047 128.758  0.00  0.00    +0.000 N 
ATOM     13  OE1 GLN A   1     -12.840   8.624 130.434  0.00  0.00    +0.000 OA
ATOM     14 HE21 GLN A   1     -13.140  10.432 127.836  0.00  0.00    +0.000 HD
ATOM     15 HE22 GLN A   1     -14.093  10.384 129.275  0.00  0.00    +0.000 HD
ENDBRANCH  10  11
ENDBRANCH   9  10
ENDBRANCH   1   9
TORSDOF 6
ENDMDL
