MODEL 1
REMARK VINA RESULT:      -3.8      0.000      0.000
REMARK  Name = L-Lactic acid
REMARK  4 active torsions:
REMARK  status: ('A' for Active; 'I' for Inactive)
REMARK    1  A    between atoms: C_1  and  C_2
REMARK    2  A    between atoms: C_2  and  O_3
REMARK    3  A    between atoms: C_2  and  C_4
REMARK    4  A    between atoms: C_4  and  O_5
REMARK                            x       y       z     vdW  Elec       q    Type
REMARK                         _______ _______ _______ _____ _____    ______ ____
ROOT
ATOM      1  C   UNL     1      -7.458   4.192 119.582  0.00  0.00    +0.000 C 
ATOM      2  C   UNL     1      -6.101   4.298 120.265  0.00  0.00    +0.000 C 
ENDROOT
BRANCH   2   3
ATOM      3  O   UNL     1      -6.256   4.367 121.687  0.00  0.00    +0.000 OA
ATOM      4  H   UNL     1      -5.368   4.361 122.088  0.00  0.00    +0.000 HD
ENDBRANCH   2   3
BRANCH   2   5
ATOM      5  C   UNL     1      -5.349   5.525 119.741  0.00  0.00    +0.000 C 
ATOM      6  O   UNL     1      -4.589   6.207 120.418  0.00  0.00    +0.000 OA
BRANCH   5   7
ATOM      7  O   UNL     1      -5.576   5.775 118.427  0.00  0.00    +0.000 OA
ATOM      8  H   UNL     1      -5.919   6.683 118.293  0.00  0.00    +0.000 HD
ENDBRANCH   5   7
ENDBRANCH   2   5
TORSDOF 3
ENDMDL
MODEL 2
REMARK VINA RESULT:      -3.6      8.816      9.569
REMARK  Name = L-Lactic acid
REMARK  4 active torsions:
REMARK  status: ('A' for Active; 'I' for Inactive)
REMARK    1  A    between atoms: C_1  and  C_2
REMARK    2  A    between atoms: C_2  and  O_3
REMARK    3  A    between atoms: C_2  and  C_4
REMARK    4  A    between atoms: C_4  and  O_5
REMARK                            x       y       z     vdW  Elec       q    Type
REMARK                         _______ _______ _______ _____ _____    ______ ____
ROOT
ATOM      1  C   UNL     1     -12.352   7.089 126.453  0.00  0.00    +0.000 C 
ATOM      2  C   UNL     1     -10.934   7.620 126.621  0.00  0.00    +0.000 C 
ENDROOT
BRANCH   2   3
ATOM      3  O   UNL     1      -9.980   6.561 126.485  0.00  0.00    +0.000 OA
ATOM      4  H   UNL     1     -10.209   6.049 125.690  0.00  0.00    +0.000 HD
ENDBRANCH   2   3
BRANCH   2   5
ATOM      5  C   UNL     1     -10.793   8.306 127.983  0.00  0.00    +0.000 C 
ATOM      6  O   UNL     1      -9.814   8.194 128.712  0.00  0.00    +0.000 OA
BRANCH   5   7
ATOM      7  O   UNL     1     -11.852   9.090 128.303  0.00  0.00    +0.000 OA
ATOM      8  H   UNL     1     -12.691   8.710 127.965  0.00  0.00    +0.000 HD
ENDBRANCH   5   7
ENDBRANCH   2   5
TORSDOF 3
ENDMDL
MODEL 3
REMARK VINA RESULT:      -3.6      8.914      9.598
REMARK  Name = L-Lactic acid
REMARK  4 active torsions:
REMARK  status: ('A' for Active; 'I' for Inactive)
REMARK    1  A    between atoms: C_1  and  C_2
REMARK    2  A    between atoms: C_2  and  O_3
REMARK    3  A    between atoms: C_2  and  C_4
REMARK    4  A    between atoms: C_4  and  O_5
REMARK                            x       y       z     vdW  Elec       q    Type
REMARK                         _______ _______ _______ _____ _____    ______ ____
ROOT
ATOM      1  C   UNL     1     -12.881   6.881 128.392  0.00  0.00    +0.000 C 
ATOM      2  C   UNL     1     -12.101   7.422 127.200  0.00  0.00    +0.000 C 
ENDROOT
BRANCH   2   3
ATOM      3  O   UNL     1     -12.270   6.571 126.060  0.00  0.00    +0.000 OA
ATOM      4  H   UNL     1     -13.224   6.431 125.927  0.00  0.00    +0.000 HD
ENDBRANCH   2   3
BRANCH   2   5
ATOM      5  C   UNL     1     -10.620   7.555 127.563  0.00  0.00    +0.000 C 
ATOM      6  O   UNL     1     -10.152   8.480 128.217  0.00  0.00    +0.000 OA
BRANCH   5   7
ATOM      7  O   UNL     1      -9.861   6.524 127.117  0.00  0.00    +0.000 OA
ATOM      8  H   UNL     1      -9.769   5.828 127.803  0.00  0.00    +0.000 HD
ENDBRANCH   5   7
ENDBRANCH   2   5
TORSDOF 3
ENDMDL
MODEL 4
REMARK VINA RESULT:      -3.4      9.562     10.400
REMARK  Name = L-Lactic acid
REMARK  4 active torsions:
REMARK  status: ('A' for Active; 'I' for Inactive)
REMARK    1  A    between atoms: C_1  and  C_2
REMARK    2  A    between atoms: C_2  and  O_3
REMARK    3  A    between atoms: C_2  and  C_4
REMARK    4  A    between atoms: C_4  and  O_5
REMARK                            x       y       z     vdW  Elec       q    Type
REMARK                         _______ _______ _______ _____ _____    ______ ____
ROOT
ATOM      1  C   UNL     1     -10.214   7.975 129.011  0.00  0.00    +0.000 C 
ATOM      2  C   UNL     1     -11.240   8.342 127.946  0.00  0.00    +0.000 C 
ENDROOT
BRANCH   2   3
ATOM      3  O   UNL     1     -12.169   9.306 128.453  0.00  0.00    +0.000 OA
ATOM      4  H   UNL     1     -12.230  10.034 127.809  0.00  0.00    +0.000 HD
ENDBRANCH   2   3
BRANCH   2   5
ATOM      5  C   UNL     1     -11.970   7.083 127.471  0.00  0.00    +0.000 C 
ATOM      6  O   UNL     1     -12.704   6.404 128.180  0.00  0.00    +0.000 OA
BRANCH   5   7
ATOM      7  O   UNL     1     -11.756   6.797 126.163  0.00  0.00    +0.000 OA
ATOM      8  H   UNL     1     -11.231   5.975 126.060  0.00  0.00    +0.000 HD
ENDBRANCH   5   7
ENDBRANCH   2   5
TORSDOF 3
ENDMDL
MODEL 5
REMARK VINA RESULT:      -3.4      9.597     10.281
REMARK  Name = L-Lactic acid
REMARK  4 active torsions:
REMARK  status: ('A' for Active; 'I' for Inactive)
REMARK    1  A    between atoms: C_1  and  C_2
REMARK    2  A    between atoms: C_2  and  O_3
REMARK    3  A    between atoms: C_2  and  C_4
REMARK    4  A    between atoms: C_4  and  O_5
REMARK                            x       y       z     vdW  Elec       q    Type
REMARK                         _______ _______ _______ _____ _____    ______ ____
ROOT
ATOM      1  C   UNL     1     -12.458   8.457 129.317  0.00  0.00    +0.000 C 
ATOM      2  C   UNL     1     -12.648   7.342 128.296  0.00  0.00    +0.000 C 
ENDROOT
BRANCH   2   3
ATOM      3  O   UNL     1     -12.435   6.063 128.903  0.00  0.00    +0.000 OA
ATOM      4  H   UNL     1     -12.981   5.410 128.430  0.00  0.00    +0.000 HD
ENDBRANCH   2   3
BRANCH   2   5
ATOM      5  C   UNL     1     -11.695   7.549 127.116  0.00  0.00    +0.000 C 
ATOM      6  O   UNL     1     -10.824   8.409 127.077  0.00  0.00    +0.000 OA
BRANCH   5   7
ATOM      7  O   UNL     1     -11.882   6.657 126.111  0.00  0.00    +0.000 OA
ATOM      8  H   UNL     1     -12.831   6.435 126.005  0.00  0.00    +0.000 HD
ENDBRANCH   5   7
ENDBRANCH   2   5
TORSDOF 3
ENDMDL
MODEL 6
REMARK VINA RESULT:      -3.4      9.908     10.508
REMARK  Name = L-Lactic acid
REMARK  4 active torsions:
REMARK  status: ('A' for Active; 'I' for Inactive)
REMARK    1  A    between atoms: C_1  and  C_2
REMARK    2  A    between atoms: C_2  and  O_3
REMARK    3  A    between atoms: C_2  and  C_4
REMARK    4  A    between atoms: C_4  and  O_5
REMARK                            x       y       z     vdW  Elec       q    Type
REMARK                         _______ _______ _______ _____ _____    ______ ____
ROOT
ATOM      1  C   UNL     1     -13.252   7.472 127.750  0.00  0.00    +0.000 C 
ATOM      2  C   UNL     1     -12.326   8.374 128.556  0.00  0.00    +0.000 C 
ENDROOT
BRANCH   2   3
ATOM      3  O   UNL     1     -12.831   9.713 128.590  0.00  0.00    +0.000 OA
ATOM      4  H   UNL     1     -13.397   9.842 127.808  0.00  0.00    +0.000 HD
ENDBRANCH   2   3
BRANCH   2   5
ATOM      5  C   UNL     1     -10.916   8.341 127.958  0.00  0.00    +0.000 C 
ATOM      6  O   UNL     1      -9.886   8.365 128.622  0.00  0.00    +0.000 OA
BRANCH   5   7
ATOM      7  O   UNL     1     -10.907   8.247 126.606  0.00  0.00    +0.000 OA
ATOM      8  H   UNL     1     -10.659   9.102 126.192  0.00  0.00    +0.000 HD
ENDBRANCH   5   7
ENDBRANCH   2   5
TORSDOF 3
ENDMDL
MODEL 7
REMARK VINA RESULT:      -3.2     11.158     12.019
REMARK  Name = L-Lactic acid
REMARK  4 active torsions:
REMARK  status: ('A' for Active; 'I' for Inactive)
REMARK    1  A    between atoms: C_1  and  C_2
REMARK    2  A    between atoms: C_2  and  O_3
REMARK    3  A    between atoms: C_2  and  C_4
REMARK    4  A    between atoms: C_4  and  O_5
REMARK                            x       y       z     vdW  Elec       q    Type
REMARK                         _______ _______ _______ _____ _____    ______ ____
ROOT
ATOM      1  C   UNL     1     -12.590   8.645 129.828  0.00  0.00    +0.000 C 
ATOM      2  C   UNL     1     -13.038   7.225 130.149  0.00  0.00    +0.000 C 
ENDROOT
BRANCH   2   3
ATOM      3  O   UNL     1     -12.852   6.942 131.541  0.00  0.00    +0.000 OA
ATOM      4  H   UNL     1     -11.901   7.010 131.739  0.00  0.00    +0.000 HD
ENDBRANCH   2   3
BRANCH   2   5
ATOM      5  C   UNL     1     -12.263   6.226 129.285  0.00  0.00    +0.000 C 
ATOM      6  O   UNL     1     -11.711   5.222 129.720  0.00  0.00    +0.000 OA
BRANCH   5   7
ATOM      7  O   UNL     1     -12.270   6.538 127.965  0.00  0.00    +0.000 OA
ATOM      8  H   UNL     1     -11.969   7.460 127.816  0.00  0.00    +0.000 HD
ENDBRANCH   5   7
ENDBRANCH   2   5
TORSDOF 3
ENDMDL
MODEL 8
REMARK VINA RESULT:      -3.2      1.594      2.091
REMARK  Name = L-Lactic acid
REMARK  4 active torsions:
REMARK  status: ('A' for Active; 'I' for Inactive)
REMARK    1  A    between atoms: C_1  and  C_2
REMARK    2  A    between atoms: C_2  and  O_3
REMARK    3  A    between atoms: C_2  and  C_4
REMARK    4  A    between atoms: C_4  and  O_5
REMARK                            x       y       z     vdW  Elec       q    Type
REMARK                         _______ _______ _______ _____ _____    ______ ____
ROOT
ATOM      1  C   UNL     1      -5.920   5.453 118.840  0.00  0.00    +0.000 C 
ATOM      2  C   UNL     1      -5.723   4.506 120.017  0.00  0.00    +0.000 C 
ENDROOT
BRANCH   2   3
ATOM      3  O   UNL     1      -6.987   4.041 120.505  0.00  0.00    +0.000 OA
ATOM      4  H   UNL     1      -7.086   4.346 121.424  0.00  0.00    +0.000 HD
ENDBRANCH   2   3
BRANCH   2   5
ATOM      5  C   UNL     1      -4.940   5.212 121.127  0.00  0.00    +0.000 C 
ATOM      6  O   UNL     1      -4.217   6.185 120.948  0.00  0.00    +0.000 OA
BRANCH   5   7
ATOM      7  O   UNL     1      -5.145   4.675 122.355  0.00  0.00    +0.000 OA
ATOM      8  H   UNL     1      -5.215   5.373 123.041  0.00  0.00    +0.000 HD
ENDBRANCH   5   7
ENDBRANCH   2   5
TORSDOF 3
ENDMDL
MODEL 9
REMARK VINA RESULT:      -3.2     11.840     12.507
REMARK  Name = L-Lactic acid
REMARK  4 active torsions:
REMARK  status: ('A' for Active; 'I' for Inactive)
REMARK    1  A    between atoms: C_1  and  C_2
REMARK    2  A    between atoms: C_2  and  O_3
REMARK    3  A    between atoms: C_2  and  C_4
REMARK    4  A    between atoms: C_4  and  O_5
REMARK                            x       y       z     vdW  Elec       q    Type
REMARK                         _______ _______ _______ _____ _____    ______ ____
ROOT
ATOM      1  C   UNL     1     -12.839   6.592 129.107  0.00  0.00    +0.000 C 
ATOM      2  C   UNL     1     -12.459   7.554 130.225  0.00  0.00    +0.000 C 
ENDROOT
BRANCH   2   3
ATOM      3  O   UNL     1     -13.224   7.283 131.405  0.00  0.00    +0.000 OA
ATOM      4  H   UNL     1     -13.011   6.380 131.702  0.00  0.00    +0.000 HD
ENDBRANCH   2   3
BRANCH   2   5
ATOM      5  C   UNL     1     -12.668   8.999 129.763  0.00  0.00    +0.000 C 
ATOM      6  O   UNL     1     -13.154   9.881 130.460  0.00  0.00    +0.000 OA
BRANCH   5   7
ATOM      7  O   UNL     1     -12.229   9.229 128.501  0.00  0.00    +0.000 OA
ATOM      8  H   UNL     1     -11.600   9.981 128.475  0.00  0.00    +0.000 HD
ENDBRANCH   5   7
ENDBRANCH   2   5
TORSDOF 3
ENDMDL
