MODEL 1
REMARK VINA RESULT:      -6.3      0.000      0.000
REMARK  Name = Labetalol
REMARK  11 active torsions:
REMARK  status: ('A' for Active; 'I' for Inactive)
REMARK    1  A    between atoms: C_1  and  C_2
REMARK    2  A    between atoms: C_2  and  C_3
REMARK    3  A    between atoms: C_2  and  N_11
REMARK    4  A    between atoms: C_3  and  C_4
REMARK    5  A    between atoms: C_4  and  C_5
REMARK    6  A    between atoms: N_11  and  C_12
REMARK    7  A    between atoms: C_12  and  C_13
REMARK    8  A    between atoms: C_13  and  O_14
REMARK    9  A    between atoms: C_13  and  C_15
REMARK   10  A    between atoms: C_17  and  C_18
REMARK   11  A    between atoms: C_21  and  O_22
REMARK                            x       y       z     vdW  Elec       q    Type
REMARK                         _______ _______ _______ _____ _____    ______ ____
ROOT
ATOM      1  C   UNL     1      -6.331   0.295 127.050  0.00  0.00    +0.000 C 
ENDROOT
BRANCH   1   2
ATOM      2  C   UNL     1      -7.076   0.744 125.806  0.00  0.00    +0.000 A 
ATOM      3  C   UNL     1      -6.432   1.513 124.833  0.00  0.00    +0.000 A 
ATOM      4  C   UNL     1      -7.148   2.083 123.776  0.00  0.00    +0.000 A 
ATOM      5  C   UNL     1      -8.496   1.738 123.605  0.00  0.00    +0.000 A 
ATOM      6  C   UNL     1      -9.147   0.947 124.543  0.00  0.00    +0.000 A 
ATOM      7  C   UNL     1      -8.448   0.478 125.652  0.00  0.00    +0.000 A 
BRANCH   4   8
ATOM      8  C   UNL     1      -6.529   3.125 122.918  0.00  0.00    +0.000 C 
ATOM      9  N   UNL     1      -6.122   4.299 123.484  0.00  0.00    +0.000 N 
ATOM     10  O   UNL     1      -6.428   2.945 121.702  0.00  0.00    +0.000 OA
ATOM     11  H   UNL     1      -6.241   4.550 124.453  0.00  0.00    +0.000 HD
ATOM     12  H   UNL     1      -5.794   5.028 122.863  0.00  0.00    +0.000 HD
ENDBRANCH   4   8
BRANCH   5  13
ATOM     13  O   UNL     1      -9.247   2.140 122.534  0.00  0.00    +0.000 OA
ATOM     14  H   UNL     1     -10.174   2.247 122.843  0.00  0.00    +0.000 HD
ENDBRANCH   5  13
ENDBRANCH   1   2
BRANCH   1  15
ATOM     15  O   UNL     1      -5.115  -0.388 126.719  0.00  0.00    +0.000 OA
ATOM     16  H   UNL     1      -5.371  -1.179 126.218  0.00  0.00    +0.000 HD
ENDBRANCH   1  15
BRANCH   1  17
ATOM     17  C   UNL     1      -7.209  -0.635 127.893  0.00  0.00    +0.000 C 
BRANCH  17  18
ATOM     18  N   UNL     1      -6.540  -1.902 128.194  0.00  0.00    +0.000 NA
ATOM     19  H   UNL     1      -5.776  -2.045 127.532  0.00  0.00    +0.000 HD
BRANCH  18  21
ATOM     20  C   UNL     1      -8.094  -3.166 129.563  0.00  0.00    +0.000 C 
ATOM     21  C   UNL     1      -7.475  -3.029 128.175  0.00  0.00    +0.000 C 
BRANCH  21  22
ATOM     22  C   UNL     1      -8.557  -2.781 127.126  0.00  0.00    +0.000 C 
BRANCH  22  23
ATOM     23  C   UNL     1      -8.492  -3.735 125.948  0.00  0.00    +0.000 C 
BRANCH  23  24
ATOM     24  C   UNL     1      -7.835  -3.115 124.744  0.00  0.00    +0.000 A 
ATOM     25  C   UNL     1      -6.456  -2.859 124.668  0.00  0.00    +0.000 A 
ATOM     26  C   UNL     1      -5.936  -2.108 123.623  0.00  0.00    +0.000 A 
ATOM     27  C   UNL     1      -6.771  -1.699 122.591  0.00  0.00    +0.000 A 
ATOM     28  C   UNL     1      -8.131  -2.005 122.622  0.00  0.00    +0.000 A 
ATOM     29  C   UNL     1      -8.664  -2.706 123.697  0.00  0.00    +0.000 A 
ENDBRANCH  23  24
ENDBRANCH  22  23
ENDBRANCH  21  22
ENDBRANCH  18  21
ENDBRANCH  17  18
ENDBRANCH   1  17
TORSDOF 10
ENDMDL
MODEL 2
REMARK VINA RESULT:      -6.1      2.349      5.540
REMARK  Name = Labetalol
REMARK  11 active torsions:
REMARK  status: ('A' for Active; 'I' for Inactive)
REMARK    1  A    between atoms: C_1  and  C_2
REMARK    2  A    between atoms: C_2  and  C_3
REMARK    3  A    between atoms: C_2  and  N_11
REMARK    4  A    between atoms: C_3  and  C_4
REMARK    5  A    between atoms: C_4  and  C_5
REMARK    6  A    between atoms: N_11  and  C_12
REMARK    7  A    between atoms: C_12  and  C_13
REMARK    8  A    between atoms: C_13  and  O_14
REMARK    9  A    between atoms: C_13  and  C_15
REMARK   10  A    between atoms: C_17  and  C_18
REMARK   11  A    between atoms: C_21  and  O_22
REMARK                            x       y       z     vdW  Elec       q    Type
REMARK                         _______ _______ _______ _____ _____    ______ ____
ROOT
ATOM      1  C   UNL     1      -8.584   1.359 126.397  0.00  0.00    +0.000 C 
ENDROOT
BRANCH   1   2
ATOM      2  C   UNL     1      -7.645   0.200 126.675  0.00  0.00    +0.000 A 
ATOM      3  C   UNL     1      -8.136  -1.001 127.196  0.00  0.00    +0.000 A 
ATOM      4  C   UNL     1      -7.266  -2.009 127.625  0.00  0.00    +0.000 A 
ATOM      5  C   UNL     1      -5.894  -1.873 127.373  0.00  0.00    +0.000 A 
ATOM      6  C   UNL     1      -5.388  -0.700 126.825  0.00  0.00    +0.000 A 
ATOM      7  C   UNL     1      -6.256   0.341 126.507  0.00  0.00    +0.000 A 
BRANCH   4   8
ATOM      8  C   UNL     1      -7.768  -3.147 128.436  0.00  0.00    +0.000 C 
ATOM      9  N   UNL     1      -7.125  -3.474 129.594  0.00  0.00    +0.000 N 
ATOM     10  O   UNL     1      -8.728  -3.812 128.039  0.00  0.00    +0.000 OA
ATOM     11  H   UNL     1      -6.291  -3.028 129.944  0.00  0.00    +0.000 HD
ATOM     12  H   UNL     1      -7.427  -4.311 130.076  0.00  0.00    +0.000 HD
ENDBRANCH   4   8
BRANCH   5  13
ATOM     13  O   UNL     1      -4.978  -2.855 127.638  0.00  0.00    +0.000 OA
ATOM     14  H   UNL     1      -5.120  -3.154 128.563  0.00  0.00    +0.000 HD
ENDBRANCH   5  13
ENDBRANCH   1   2
BRANCH   1  15
ATOM     15  O   UNL     1      -9.099   1.925 127.609  0.00  0.00    +0.000 OA
ATOM     16  H   UNL     1      -8.359   1.952 128.236  0.00  0.00    +0.000 HD
ENDBRANCH   1  15
BRANCH   1  17
ATOM     17  C   UNL     1      -9.759   0.898 125.528  0.00  0.00    +0.000 C 
BRANCH  17  18
ATOM     18  N   UNL     1     -10.118   1.890 124.514  0.00  0.00    +0.000 NA
ATOM     19  H   UNL     1     -11.132   2.014 124.509  0.00  0.00    +0.000 HD
BRANCH  18  21
ATOM     20  C   UNL     1      -8.407   2.376 122.863  0.00  0.00    +0.000 C 
ATOM     21  C   UNL     1      -9.625   1.515 123.186  0.00  0.00    +0.000 C 
BRANCH  21  22
ATOM     22  C   UNL     1      -9.254   0.034 123.176  0.00  0.00    +0.000 C 
BRANCH  22  23
ATOM     23  C   UNL     1      -7.771  -0.222 122.985  0.00  0.00    +0.000 C 
BRANCH  23  24
ATOM     24  C   UNL     1      -7.371  -1.611 123.404  0.00  0.00    +0.000 A 
ATOM     25  C   UNL     1      -8.284  -2.560 123.890  0.00  0.00    +0.000 A 
ATOM     26  C   UNL     1      -7.835  -3.750 124.445  0.00  0.00    +0.000 A 
ATOM     27  C   UNL     1      -6.479  -4.049 124.423  0.00  0.00    +0.000 A 
ATOM     28  C   UNL     1      -5.568  -3.142 123.881  0.00  0.00    +0.000 A 
ATOM     29  C   UNL     1      -6.010  -1.925 123.378  0.00  0.00    +0.000 A 
ENDBRANCH  23  24
ENDBRANCH  22  23
ENDBRANCH  21  22
ENDBRANCH  18  21
ENDBRANCH  17  18
ENDBRANCH   1  17
TORSDOF 10
ENDMDL
MODEL 3
REMARK VINA RESULT:      -6.0      7.489      9.040
REMARK  Name = Labetalol
REMARK  11 active torsions:
REMARK  status: ('A' for Active; 'I' for Inactive)
REMARK    1  A    between atoms: C_1  and  C_2
REMARK    2  A    between atoms: C_2  and  C_3
REMARK    3  A    between atoms: C_2  and  N_11
REMARK    4  A    between atoms: C_3  and  C_4
REMARK    5  A    between atoms: C_4  and  C_5
REMARK    6  A    between atoms: N_11  and  C_12
REMARK    7  A    between atoms: C_12  and  C_13
REMARK    8  A    between atoms: C_13  and  O_14
REMARK    9  A    between atoms: C_13  and  C_15
REMARK   10  A    between atoms: C_17  and  C_18
REMARK   11  A    between atoms: C_21  and  O_22
REMARK                            x       y       z     vdW  Elec       q    Type
REMARK                         _______ _______ _______ _____ _____    ______ ____
ROOT
ATOM      1  C   UNL     1      -6.445   6.806 131.254  0.00  0.00    +0.000 C 
ENDROOT
BRANCH   1   2
ATOM      2  C   UNL     1      -7.937   6.570 131.402  0.00  0.00    +0.000 A 
ATOM      3  C   UNL     1      -8.823   6.995 130.407  0.00  0.00    +0.000 A 
ATOM      4  C   UNL     1     -10.206   6.948 130.607  0.00  0.00    +0.000 A 
ATOM      5  C   UNL     1     -10.705   6.313 131.753  0.00  0.00    +0.000 A 
ATOM      6  C   UNL     1      -9.840   5.853 132.739  0.00  0.00    +0.000 A 
ATOM      7  C   UNL     1      -8.466   6.009 132.577  0.00  0.00    +0.000 A 
BRANCH   4   8
ATOM      8  C   UNL     1     -11.129   7.658 129.686  0.00  0.00    +0.000 C 
ATOM      9  N   UNL     1     -10.759   7.844 128.385  0.00  0.00    +0.000 N 
ATOM     10  O   UNL     1     -12.195   8.113 130.108  0.00  0.00    +0.000 OA
ATOM     11  H   UNL     1      -9.874   7.570 127.986  0.00  0.00    +0.000 HD
ATOM     12  H   UNL     1     -11.361   8.413 127.805  0.00  0.00    +0.000 HD
ENDBRANCH   4   8
BRANCH   5  13
ATOM     13  O   UNL     1     -12.038   6.103 131.980  0.00  0.00    +0.000 OA
ATOM     14  H   UNL     1     -12.526   6.884 131.636  0.00  0.00    +0.000 HD
ENDBRANCH   5  13
ENDBRANCH   1   2
BRANCH   1  15
ATOM     15  O   UNL     1      -5.935   6.225 130.047  0.00  0.00    +0.000 OA
ATOM     16  H   UNL     1      -6.245   5.305 130.033  0.00  0.00    +0.000 HD
ENDBRANCH   1  15
BRANCH   1  17
ATOM     17  C   UNL     1      -5.690   6.214 132.448  0.00  0.00    +0.000 C 
BRANCH  17  18
ATOM     18  N   UNL     1      -4.629   5.296 132.029  0.00  0.00    +0.000 NA
ATOM     19  H   UNL     1      -4.743   5.080 131.038  0.00  0.00    +0.000 HD
BRANCH  18  21
ATOM     20  C   UNL     1      -5.396   4.338 134.122  0.00  0.00    +0.000 C 
ATOM     21  C   UNL     1      -4.615   4.075 132.839  0.00  0.00    +0.000 C 
BRANCH  21  22
ATOM     22  C   UNL     1      -5.246   2.929 132.050  0.00  0.00    +0.000 C 
BRANCH  22  23
ATOM     23  C   UNL     1      -6.501   2.368 132.690  0.00  0.00    +0.000 C 
BRANCH  23  24
ATOM     24  C   UNL     1      -7.707   2.501 131.798  0.00  0.00    +0.000 A 
ATOM     25  C   UNL     1      -7.645   3.016 130.494  0.00  0.00    +0.000 A 
ATOM     26  C   UNL     1      -8.809   3.301 129.793  0.00  0.00    +0.000 A 
ATOM     27  C   UNL     1     -10.040   2.974 130.346  0.00  0.00    +0.000 A 
ATOM     28  C   UNL     1     -10.111   2.399 131.614  0.00  0.00    +0.000 A 
ATOM     29  C   UNL     1      -8.950   2.168 132.342  0.00  0.00    +0.000 A 
ENDBRANCH  23  24
ENDBRANCH  22  23
ENDBRANCH  21  22
ENDBRANCH  18  21
ENDBRANCH  17  18
ENDBRANCH   1  17
TORSDOF 10
ENDMDL
MODEL 4
REMARK VINA RESULT:      -5.9      6.759      8.414
REMARK  Name = Labetalol
REMARK  11 active torsions:
REMARK  status: ('A' for Active; 'I' for Inactive)
REMARK    1  A    between atoms: C_1  and  C_2
REMARK    2  A    between atoms: C_2  and  C_3
REMARK    3  A    between atoms: C_2  and  N_11
REMARK    4  A    between atoms: C_3  and  C_4
REMARK    5  A    between atoms: C_4  and  C_5
REMARK    6  A    between atoms: N_11  and  C_12
REMARK    7  A    between atoms: C_12  and  C_13
REMARK    8  A    between atoms: C_13  and  O_14
REMARK    9  A    between atoms: C_13  and  C_15
REMARK   10  A    between atoms: C_17  and  C_18
REMARK   11  A    between atoms: C_21  and  O_22
REMARK                            x       y       z     vdW  Elec       q    Type
REMARK                         _______ _______ _______ _____ _____    ______ ____
ROOT
ATOM      1  C   UNL     1      -7.087   6.434 131.248  0.00  0.00    +0.000 C 
ENDROOT
BRANCH   1   2
ATOM      2  C   UNL     1      -8.604   6.418 131.199  0.00  0.00    +0.000 A 
ATOM      3  C   UNL     1      -9.277   6.680 130.002  0.00  0.00    +0.000 A 
ATOM      4  C   UNL     1     -10.665   6.846 129.979  0.00  0.00    +0.000 A 
ATOM      5  C   UNL     1     -11.400   6.580 131.143  0.00  0.00    +0.000 A 
ATOM      6  C   UNL     1     -10.752   6.284 132.336  0.00  0.00    +0.000 A 
ATOM      7  C   UNL     1      -9.362   6.233 132.369  0.00  0.00    +0.000 A 
BRANCH   4   8
ATOM      8  C   UNL     1     -11.340   7.406 128.781  0.00  0.00    +0.000 C 
ATOM      9  N   UNL     1     -11.120   8.709 128.440  0.00  0.00    +0.000 N 
ATOM     10  O   UNL     1     -12.124   6.709 128.131  0.00  0.00    +0.000 OA
ATOM     11  H   UNL     1     -10.555   9.361 128.964  0.00  0.00    +0.000 HD
ATOM     12  H   UNL     1     -11.666   9.091 127.679  0.00  0.00    +0.000 HD
ENDBRANCH   4   8
BRANCH   5  13
ATOM     13  O   UNL     1     -12.768   6.589 131.190  0.00  0.00    +0.000 OA
ATOM     14  H   UNL     1     -13.036   7.116 131.975  0.00  0.00    +0.000 HD
ENDBRANCH   5  13
ENDBRANCH   1   2
BRANCH   1  15
ATOM     15  O   UNL     1      -6.547   7.552 130.531  0.00  0.00    +0.000 OA
ATOM     16  H   UNL     1      -6.093   7.187 129.754  0.00  0.00    +0.000 HD
ENDBRANCH   1  15
BRANCH   1  17
ATOM     17  C   UNL     1      -6.519   5.142 130.652  0.00  0.00    +0.000 C 
BRANCH  17  18
ATOM     18  N   UNL     1      -5.838   5.375 129.378  0.00  0.00    +0.000 NA
ATOM     19  H   UNL     1      -6.215   6.219 128.944  0.00  0.00    +0.000 HD
BRANCH  18  21
ATOM     20  C   UNL     1      -5.254   3.033 129.131  0.00  0.00    +0.000 C 
ATOM     21  C   UNL     1      -5.954   4.222 128.480  0.00  0.00    +0.000 C 
BRANCH  21  22
ATOM     22  C   UNL     1      -7.428   3.911 128.233  0.00  0.00    +0.000 C 
BRANCH  22  23
ATOM     23  C   UNL     1      -7.765   2.436 128.343  0.00  0.00    +0.000 C 
BRANCH  23  24
ATOM     24  C   UNL     1      -8.590   2.127 129.564  0.00  0.00    +0.000 A 
ATOM     25  C   UNL     1      -9.544   3.012 130.091  0.00  0.00    +0.000 A 
ATOM     26  C   UNL     1     -10.130   2.764 131.325  0.00  0.00    +0.000 A 
ATOM     27  C   UNL     1      -9.848   1.579 131.992  0.00  0.00    +0.000 A 
ATOM     28  C   UNL     1      -8.952   0.661 131.446  0.00  0.00    +0.000 A 
ATOM     29  C   UNL     1      -8.320   0.935 130.239  0.00  0.00    +0.000 A 
ENDBRANCH  23  24
ENDBRANCH  22  23
ENDBRANCH  21  22
ENDBRANCH  18  21
ENDBRANCH  17  18
ENDBRANCH   1  17
TORSDOF 10
ENDMDL
MODEL 5
REMARK VINA RESULT:      -5.8      2.572      3.762
REMARK  Name = Labetalol
REMARK  11 active torsions:
REMARK  status: ('A' for Active; 'I' for Inactive)
REMARK    1  A    between atoms: C_1  and  C_2
REMARK    2  A    between atoms: C_2  and  C_3
REMARK    3  A    between atoms: C_2  and  N_11
REMARK    4  A    between atoms: C_3  and  C_4
REMARK    5  A    between atoms: C_4  and  C_5
REMARK    6  A    between atoms: N_11  and  C_12
REMARK    7  A    between atoms: C_12  and  C_13
REMARK    8  A    between atoms: C_13  and  O_14
REMARK    9  A    between atoms: C_13  and  C_15
REMARK   10  A    between atoms: C_17  and  C_18
REMARK   11  A    between atoms: C_21  and  O_22
REMARK                            x       y       z     vdW  Elec       q    Type
REMARK                         _______ _______ _______ _____ _____    ______ ____
ROOT
ATOM      1  C   UNL     1      -8.573  -3.734 127.697  0.00  0.00    +0.000 C 
ENDROOT
BRANCH   1   2
ATOM      2  C   UNL     1      -8.812  -2.995 126.393  0.00  0.00    +0.000 A 
ATOM      3  C   UNL     1      -8.898  -1.600 126.375  0.00  0.00    +0.000 A 
ATOM      4  C   UNL     1      -9.294  -0.919 125.220  0.00  0.00    +0.000 A 
ATOM      5  C   UNL     1      -9.444  -1.637 124.026  0.00  0.00    +0.000 A 
ATOM      6  C   UNL     1      -9.329  -3.022 124.015  0.00  0.00    +0.000 A 
ATOM      7  C   UNL     1      -9.045  -3.698 125.198  0.00  0.00    +0.000 A 
BRANCH   4   8
ATOM      8  C   UNL     1      -9.665   0.518 125.279  0.00  0.00    +0.000 C 
ATOM      9  N   UNL     1      -9.016   1.338 126.156  0.00  0.00    +0.000 N 
ATOM     10  O   UNL     1     -10.580   0.950 124.573  0.00  0.00    +0.000 OA
ATOM     11  H   UNL     1      -8.313   1.045 126.817  0.00  0.00    +0.000 HD
ATOM     12  H   UNL     1      -9.353   2.288 126.244  0.00  0.00    +0.000 HD
ENDBRANCH   4   8
BRANCH   5  13
ATOM     13  O   UNL     1      -9.704  -1.048 122.818  0.00  0.00    +0.000 OA
ATOM     14  H   UNL     1     -10.082  -1.736 122.226  0.00  0.00    +0.000 HD
ENDBRANCH   5  13
ENDBRANCH   1   2
BRANCH   1  15
ATOM     15  O   UNL     1      -9.766  -4.375 128.168  0.00  0.00    +0.000 OA
ATOM     16  H   UNL     1     -10.153  -4.832 127.404  0.00  0.00    +0.000 HD
ENDBRANCH   1  15
BRANCH   1  17
ATOM     17  C   UNL     1      -8.072  -2.768 128.775  0.00  0.00    +0.000 C 
BRANCH  17  18
ATOM     18  N   UNL     1      -6.736  -3.122 129.257  0.00  0.00    +0.000 NA
ATOM     19  H   UNL     1      -6.782  -3.325 130.257  0.00  0.00    +0.000 HD
BRANCH  18  21
ATOM     20  C   UNL     1      -4.622  -2.181 129.987  0.00  0.00    +0.000 C 
ATOM     21  C   UNL     1      -5.758  -2.068 128.975  0.00  0.00    +0.000 C 
BRANCH  21  22
ATOM     22  C   UNL     1      -5.229  -2.226 127.552  0.00  0.00    +0.000 C 
BRANCH  22  23
ATOM     23  C   UNL     1      -5.450  -1.004 126.681  0.00  0.00    +0.000 C 
BRANCH  23  24
ATOM     24  C   UNL     1      -5.580  -1.355 125.223  0.00  0.00    +0.000 A 
ATOM     25  C   UNL     1      -6.051  -0.455 124.254  0.00  0.00    +0.000 A 
ATOM     26  C   UNL     1      -6.338  -0.890 122.968  0.00  0.00    +0.000 A 
ATOM     27  C   UNL     1      -6.055  -2.201 122.609  0.00  0.00    +0.000 A 
ATOM     28  C   UNL     1      -5.523  -3.088 123.544  0.00  0.00    +0.000 A 
ATOM     29  C   UNL     1      -5.291  -2.669 124.849  0.00  0.00    +0.000 A 
ENDBRANCH  23  24
ENDBRANCH  22  23
ENDBRANCH  21  22
ENDBRANCH  18  21
ENDBRANCH  17  18
ENDBRANCH   1  17
TORSDOF 10
ENDMDL
MODEL 6
REMARK VINA RESULT:      -5.8      1.483      2.068
REMARK  Name = Labetalol
REMARK  11 active torsions:
REMARK  status: ('A' for Active; 'I' for Inactive)
REMARK    1  A    between atoms: C_1  and  C_2
REMARK    2  A    between atoms: C_2  and  C_3
REMARK    3  A    between atoms: C_2  and  N_11
REMARK    4  A    between atoms: C_3  and  C_4
REMARK    5  A    between atoms: C_4  and  C_5
REMARK    6  A    between atoms: N_11  and  C_12
REMARK    7  A    between atoms: C_12  and  C_13
REMARK    8  A    between atoms: C_13  and  O_14
REMARK    9  A    between atoms: C_13  and  C_15
REMARK   10  A    between atoms: C_17  and  C_18
REMARK   11  A    between atoms: C_21  and  O_22
REMARK                            x       y       z     vdW  Elec       q    Type
REMARK                         _______ _______ _______ _____ _____    ______ ____
ROOT
ATOM      1  C   UNL     1      -6.493   2.123 127.273  0.00  0.00    +0.000 C 
ENDROOT
BRANCH   1   2
ATOM      2  C   UNL     1      -7.338   1.789 126.057  0.00  0.00    +0.000 A 
ATOM      3  C   UNL     1      -6.962   2.240 124.788  0.00  0.00    +0.000 A 
ATOM      4  C   UNL     1      -7.817   2.096 123.691  0.00  0.00    +0.000 A 
ATOM      5  C   UNL     1      -8.990   1.343 123.839  0.00  0.00    +0.000 A 
ATOM      6  C   UNL     1      -9.365   0.857 125.086  0.00  0.00    +0.000 A 
ATOM      7  C   UNL     1      -8.558   1.105 126.192  0.00  0.00    +0.000 A 
BRANCH   4   8
ATOM      8  C   UNL     1      -7.551   2.823 122.424  0.00  0.00    +0.000 C 
ATOM      9  N   UNL     1      -8.581   3.459 121.792  0.00  0.00    +0.000 N 
ATOM     10  O   UNL     1      -6.421   2.811 121.930  0.00  0.00    +0.000 OA
ATOM     11  H   UNL     1      -9.544   3.450 122.092  0.00  0.00    +0.000 HD
ATOM     12  H   UNL     1      -8.393   3.863 120.884  0.00  0.00    +0.000 HD
ENDBRANCH   4   8
BRANCH   5  13
ATOM     13  O   UNL     1      -9.827   1.038 122.800  0.00  0.00    +0.000 OA
ATOM     14  H   UNL     1      -9.269   0.778 122.034  0.00  0.00    +0.000 HD
ENDBRANCH   5  13
ENDBRANCH   1   2
BRANCH   1  15
ATOM     15  O   UNL     1      -5.218   2.662 126.899  0.00  0.00    +0.000 OA
ATOM     16  H   UNL     1      -5.084   2.430 125.966  0.00  0.00    +0.000 HD
ENDBRANCH   1  15
BRANCH   1  17
ATOM     17  C   UNL     1      -6.269   0.872 128.128  0.00  0.00    +0.000 C 
BRANCH  17  18
ATOM     18  N   UNL     1      -5.265  -0.022 127.549  0.00  0.00    +0.000 NA
ATOM     19  H   UNL     1      -5.228   0.124 126.539  0.00  0.00    +0.000 HD
BRANCH  18  21
ATOM     20  C   UNL     1      -6.908  -1.514 128.530  0.00  0.00    +0.000 C 
ATOM     21  C   UNL     1      -5.535  -1.425 127.871  0.00  0.00    +0.000 C 
BRANCH  21  22
ATOM     22  C   UNL     1      -5.495  -2.262 126.594  0.00  0.00    +0.000 C 
BRANCH  22  23
ATOM     23  C   UNL     1      -5.767  -1.462 125.334  0.00  0.00    +0.000 C 
BRANCH  23  24
ATOM     24  C   UNL     1      -6.937  -2.002 124.554  0.00  0.00    +0.000 A 
ATOM     25  C   UNL     1      -7.123  -1.761 123.184  0.00  0.00    +0.000 A 
ATOM     26  C   UNL     1      -8.314  -2.112 122.563  0.00  0.00    +0.000 A 
ATOM     27  C   UNL     1      -9.284  -2.802 123.279  0.00  0.00    +0.000 A 
ATOM     28  C   UNL     1      -9.081  -3.106 124.624  0.00  0.00    +0.000 A 
ATOM     29  C   UNL     1      -7.915  -2.703 125.263  0.00  0.00    +0.000 A 
ENDBRANCH  23  24
ENDBRANCH  22  23
ENDBRANCH  21  22
ENDBRANCH  18  21
ENDBRANCH  17  18
ENDBRANCH   1  17
TORSDOF 10
ENDMDL
MODEL 7
REMARK VINA RESULT:      -5.8      9.974     11.952
REMARK  Name = Labetalol
REMARK  11 active torsions:
REMARK  status: ('A' for Active; 'I' for Inactive)
REMARK    1  A    between atoms: C_1  and  C_2
REMARK    2  A    between atoms: C_2  and  C_3
REMARK    3  A    between atoms: C_2  and  N_11
REMARK    4  A    between atoms: C_3  and  C_4
REMARK    5  A    between atoms: C_4  and  C_5
REMARK    6  A    between atoms: N_11  and  C_12
REMARK    7  A    between atoms: C_12  and  C_13
REMARK    8  A    between atoms: C_13  and  O_14
REMARK    9  A    between atoms: C_13  and  C_15
REMARK   10  A    between atoms: C_17  and  C_18
REMARK   11  A    between atoms: C_21  and  O_22
REMARK                            x       y       z     vdW  Elec       q    Type
REMARK                         _______ _______ _______ _____ _____    ______ ____
ROOT
ATOM      1  C   UNL     1      -7.867   6.553 131.551  0.00  0.00    +0.000 C 
ENDROOT
BRANCH   1   2
ATOM      2  C   UNL     1      -9.322   6.672 131.138  0.00  0.00    +0.000 A 
ATOM      3  C   UNL     1      -9.669   7.289 129.933  0.00  0.00    +0.000 A 
ATOM      4  C   UNL     1     -11.004   7.566 129.625  0.00  0.00    +0.000 A 
ATOM      5  C   UNL     1     -12.012   7.067 130.462  0.00  0.00    +0.000 A 
ATOM      6  C   UNL     1     -11.689   6.420 131.648  0.00  0.00    +0.000 A 
ATOM      7  C   UNL     1     -10.352   6.251 131.998  0.00  0.00    +0.000 A 
BRANCH   4   8
ATOM      8  C   UNL     1     -11.349   8.471 128.498  0.00  0.00    +0.000 C 
ATOM      9  N   UNL     1     -12.359   9.375 128.655  0.00  0.00    +0.000 N 
ATOM     10  O   UNL     1     -10.755   8.371 127.422  0.00  0.00    +0.000 OA
ATOM     11  H   UNL     1     -12.940   9.464 129.475  0.00  0.00    +0.000 HD
ATOM     12  H   UNL     1     -12.637   9.911 127.843  0.00  0.00    +0.000 HD
ENDBRANCH   4   8
BRANCH   5  13
ATOM     13  O   UNL     1     -13.347   7.174 130.181  0.00  0.00    +0.000 OA
ATOM     14  H   UNL     1     -13.459   7.056 129.211  0.00  0.00    +0.000 HD
ENDBRANCH   5  13
ENDBRANCH   1   2
BRANCH   1  15
ATOM     15  O   UNL     1      -7.016   7.358 130.724  0.00  0.00    +0.000 OA
ATOM     16  H   UNL     1      -6.895   6.868 129.894  0.00  0.00    +0.000 HD
ENDBRANCH   1  15
BRANCH   1  17
ATOM     17  C   UNL     1      -7.404   5.095 131.467  0.00  0.00    +0.000 C 
BRANCH  17  18
ATOM     18  N   UNL     1      -6.749   4.651 132.698  0.00  0.00    +0.000 NA
ATOM     19  H   UNL     1      -6.816   3.635 132.766  0.00  0.00    +0.000 HD
BRANCH  18  21
ATOM     20  C   UNL     1      -8.288   4.326 134.546  0.00  0.00    +0.000 C 
ATOM     21  C   UNL     1      -7.319   5.300 133.882  0.00  0.00    +0.000 C 
BRANCH  21  22
ATOM     22  C   UNL     1      -6.199   5.685 134.845  0.00  0.00    +0.000 C 
BRANCH  22  23
ATOM     23  C   UNL     1      -6.560   5.495 136.306  0.00  0.00    +0.000 C 
BRANCH  23  24
ATOM     24  C   UNL     1      -6.983   6.781 136.964  0.00  0.00    +0.000 A 
ATOM     25  C   UNL     1      -6.099   7.842 137.218  0.00  0.00    +0.000 A 
ATOM     26  C   UNL     1      -6.494   8.917 138.002  0.00  0.00    +0.000 A 
ATOM     27  C   UNL     1      -7.808   8.994 138.447  0.00  0.00    +0.000 A 
ATOM     28  C   UNL     1      -8.714   7.979 138.144  0.00  0.00    +0.000 A 
ATOM     29  C   UNL     1      -8.304   6.873 137.409  0.00  0.00    +0.000 A 
ENDBRANCH  23  24
ENDBRANCH  22  23
ENDBRANCH  21  22
ENDBRANCH  18  21
ENDBRANCH  17  18
ENDBRANCH   1  17
TORSDOF 10
ENDMDL
MODEL 8
REMARK VINA RESULT:      -5.7      2.897      6.218
REMARK  Name = Labetalol
REMARK  11 active torsions:
REMARK  status: ('A' for Active; 'I' for Inactive)
REMARK    1  A    between atoms: C_1  and  C_2
REMARK    2  A    between atoms: C_2  and  C_3
REMARK    3  A    between atoms: C_2  and  N_11
REMARK    4  A    between atoms: C_3  and  C_4
REMARK    5  A    between atoms: C_4  and  C_5
REMARK    6  A    between atoms: N_11  and  C_12
REMARK    7  A    between atoms: C_12  and  C_13
REMARK    8  A    between atoms: C_13  and  O_14
REMARK    9  A    between atoms: C_13  and  C_15
REMARK   10  A    between atoms: C_17  and  C_18
REMARK   11  A    between atoms: C_21  and  O_22
REMARK                            x       y       z     vdW  Elec       q    Type
REMARK                         _______ _______ _______ _____ _____    ______ ____
ROOT
ATOM      1  C   UNL     1      -8.082   0.568 126.375  0.00  0.00    +0.000 C 
ENDROOT
BRANCH   1   2
ATOM      2  C   UNL     1      -7.917  -0.868 125.913  0.00  0.00    +0.000 A 
ATOM      3  C   UNL     1      -6.835  -1.233 125.107  0.00  0.00    +0.000 A 
ATOM      4  C   UNL     1      -6.766  -2.504 124.527  0.00  0.00    +0.000 A 
ATOM      5  C   UNL     1      -7.711  -3.470 124.897  0.00  0.00    +0.000 A 
ATOM      6  C   UNL     1      -8.777  -3.137 125.724  0.00  0.00    +0.000 A 
ATOM      7  C   UNL     1      -8.895  -1.836 126.204  0.00  0.00    +0.000 A 
BRANCH   4   8
ATOM      8  C   UNL     1      -5.783  -2.792 123.452  0.00  0.00    +0.000 C 
ATOM      9  N   UNL     1      -4.814  -3.728 123.669  0.00  0.00    +0.000 N 
ATOM     10  O   UNL     1      -5.820  -2.158 122.395  0.00  0.00    +0.000 OA
ATOM     11  H   UNL     1      -4.672  -4.231 124.532  0.00  0.00    +0.000 HD
ATOM     12  H   UNL     1      -4.101  -3.835 122.959  0.00  0.00    +0.000 HD
ENDBRANCH   4   8
BRANCH   5  13
ATOM     13  O   UNL     1      -7.657  -4.775 124.485  0.00  0.00    +0.000 OA
ATOM     14  H   UNL     1      -7.827  -4.790 123.517  0.00  0.00    +0.000 HD
ENDBRANCH   5  13
ENDBRANCH   1   2
BRANCH   1  15
ATOM     15  O   UNL     1      -7.937   0.686 127.797  0.00  0.00    +0.000 OA
ATOM     16  H   UNL     1      -8.264  -0.146 128.176  0.00  0.00    +0.000 HD
ENDBRANCH   1  15
BRANCH   1  17
ATOM     17  C   UNL     1      -9.458   1.106 125.971  0.00  0.00    +0.000 C 
BRANCH  17  18
ATOM     18  N   UNL     1      -9.360   2.236 125.046  0.00  0.00    +0.000 NA
ATOM     19  H   UNL     1     -10.293   2.617 124.881  0.00  0.00    +0.000 HD
BRANCH  18  21
ATOM     20  C   UNL     1      -9.740   1.133 122.918  0.00  0.00    +0.000 C 
ATOM     21  C   UNL     1      -8.714   1.854 123.787  0.00  0.00    +0.000 C 
BRANCH  21  22
ATOM     22  C   UNL     1      -8.192   3.102 123.079  0.00  0.00    +0.000 C 
BRANCH  22  23
ATOM     23  C   UNL     1      -8.537   3.154 121.603  0.00  0.00    +0.000 C 
BRANCH  23  24
ATOM     24  C   UNL     1      -7.442   3.778 120.780  0.00  0.00    +0.000 A 
ATOM     25  C   UNL     1      -6.137   3.974 121.260  0.00  0.00    +0.000 A 
ATOM     26  C   UNL     1      -5.226   4.730 120.535  0.00  0.00    +0.000 A 
ATOM     27  C   UNL     1      -5.576   5.206 119.278  0.00  0.00    +0.000 A 
ATOM     28  C   UNL     1      -6.848   4.960 118.762  0.00  0.00    +0.000 A 
ATOM     29  C   UNL     1      -7.781   4.254 119.512  0.00  0.00    +0.000 A 
ENDBRANCH  23  24
ENDBRANCH  22  23
ENDBRANCH  21  22
ENDBRANCH  18  21
ENDBRANCH  17  18
ENDBRANCH   1  17
TORSDOF 10
ENDMDL
MODEL 9
REMARK VINA RESULT:      -5.7      2.174      4.415
REMARK  Name = Labetalol
REMARK  11 active torsions:
REMARK  status: ('A' for Active; 'I' for Inactive)
REMARK    1  A    between atoms: C_1  and  C_2
REMARK    2  A    between atoms: C_2  and  C_3
REMARK    3  A    between atoms: C_2  and  N_11
REMARK    4  A    between atoms: C_3  and  C_4
REMARK    5  A    between atoms: C_4  and  C_5
REMARK    6  A    between atoms: N_11  and  C_12
REMARK    7  A    between atoms: C_12  and  C_13
REMARK    8  A    between atoms: C_13  and  O_14
REMARK    9  A    between atoms: C_13  and  C_15
REMARK   10  A    between atoms: C_17  and  C_18
REMARK   11  A    between atoms: C_21  and  O_22
REMARK                            x       y       z     vdW  Elec       q    Type
REMARK                         _______ _______ _______ _____ _____    ______ ____
ROOT
ATOM      1  C   UNL     1      -9.144  -1.729 123.132  0.00  0.00    +0.000 C 
ENDROOT
BRANCH   1   2
ATOM      2  C   UNL     1      -9.167  -0.300 123.642  0.00  0.00    +0.000 A 
ATOM      3  C   UNL     1      -8.856   0.763 122.788  0.00  0.00    +0.000 A 
ATOM      4  C   UNL     1      -8.698   2.061 123.282  0.00  0.00    +0.000 A 
ATOM      5  C   UNL     1      -9.019   2.321 124.622  0.00  0.00    +0.000 A 
ATOM      6  C   UNL     1      -9.363   1.283 125.480  0.00  0.00    +0.000 A 
ATOM      7  C   UNL     1      -9.407  -0.022 124.999  0.00  0.00    +0.000 A 
BRANCH   4   8
ATOM      8  C   UNL     1      -8.090   3.122 122.441  0.00  0.00    +0.000 C 
ATOM      9  N   UNL     1      -8.759   3.560 121.334  0.00  0.00    +0.000 N 
ATOM     10  O   UNL     1      -6.973   3.567 122.718  0.00  0.00    +0.000 OA
ATOM     11  H   UNL     1      -9.637   3.192 121.000  0.00  0.00    +0.000 HD
ATOM     12  H   UNL     1      -8.280   4.212 120.726  0.00  0.00    +0.000 HD
ENDBRANCH   4   8
BRANCH   5  13
ATOM     13  O   UNL     1      -9.019   3.576 125.168  0.00  0.00    +0.000 OA
ATOM     14  H   UNL     1      -8.529   3.531 126.019  0.00  0.00    +0.000 HD
ENDBRANCH   5  13
ENDBRANCH   1   2
BRANCH   1  15
ATOM     15  O   UNL     1      -9.921  -2.600 123.964  0.00  0.00    +0.000 OA
ATOM     16  H   UNL     1     -10.434  -3.167 123.365  0.00  0.00    +0.000 HD
ENDBRANCH   1  15
BRANCH   1  17
ATOM     17  C   UNL     1      -7.706  -2.253 123.074  0.00  0.00    +0.000 C 
BRANCH  17  18
ATOM     18  N   UNL     1      -7.463  -3.310 124.057  0.00  0.00    +0.000 NA
ATOM     19  H   UNL     1      -8.261  -3.368 124.691  0.00  0.00    +0.000 HD
BRANCH  18  21
ATOM     20  C   UNL     1      -5.244  -2.342 123.887  0.00  0.00    +0.000 C 
ATOM     21  C   UNL     1      -6.216  -3.092 124.794  0.00  0.00    +0.000 C 
BRANCH  21  22
ATOM     22  C   UNL     1      -6.501  -2.287 126.059  0.00  0.00    +0.000 C 
BRANCH  22  23
ATOM     23  C   UNL     1      -7.788  -2.686 126.757  0.00  0.00    +0.000 C 
BRANCH  23  24
ATOM     24  C   UNL     1      -7.792  -2.303 128.213  0.00  0.00    +0.000 A 
ATOM     25  C   UNL     1      -7.754  -0.972 128.658  0.00  0.00    +0.000 A 
ATOM     26  C   UNL     1      -7.559  -0.684 130.001  0.00  0.00    +0.000 A 
ATOM     27  C   UNL     1      -7.509  -1.720 130.925  0.00  0.00    +0.000 A 
ATOM     28  C   UNL     1      -7.615  -3.044 130.502  0.00  0.00    +0.000 A 
ATOM     29  C   UNL     1      -7.750  -3.337 129.150  0.00  0.00    +0.000 A 
ENDBRANCH  23  24
ENDBRANCH  22  23
ENDBRANCH  21  22
ENDBRANCH  18  21
ENDBRANCH  17  18
ENDBRANCH   1  17
TORSDOF 10
ENDMDL
