MODEL 1
REMARK VINA RESULT:      -6.2      0.000      0.000
REMARK  Name = Lacosamide
REMARK  8 active torsions:
REMARK  status: ('A' for Active; 'I' for Inactive)
REMARK    1  A    between atoms: C_1  and  O_2
REMARK    2  A    between atoms: O_2  and  C_3
REMARK    3  A    between atoms: C_3  and  C_4
REMARK    4  A    between atoms: C_4  and  N_5
REMARK    5  A    between atoms: C_4  and  C_9
REMARK    6  A    between atoms: C_6  and  C_7
REMARK    7  A    between atoms: N_11  and  C_12
REMARK    8  A    between atoms: C_12  and  C_13
REMARK                            x       y       z     vdW  Elec       q    Type
REMARK                         _______ _______ _______ _____ _____    ______ ____
ROOT
ATOM      1  C   UNL     1      -8.028   0.870 123.477  0.00  0.00    +0.000 C 
ATOM      2  O   UNL     1      -9.124   1.430 123.355  0.00  0.00    +0.000 OA
ATOM      3  N   UNL     1      -6.878   1.601 123.607  0.00  0.00    +0.000 N 
ATOM      4  H   UNL     1      -6.016   1.090 123.718  0.00  0.00    +0.000 HD
ENDROOT
BRANCH   1   5
ATOM      5  C   UNL     1      -7.884  -0.675 123.611  0.00  0.00    +0.000 C 
BRANCH   5   6
ATOM      6  N   UNL     1      -8.730  -1.252 124.680  0.00  0.00    +0.000 N 
ATOM      7  C   UNL     1      -9.381  -2.459 124.693  0.00  0.00    +0.000 C 
ATOM      8  C   UNL     1      -9.490  -3.313 123.452  0.00  0.00    +0.000 C 
ATOM      9  O   UNL     1      -9.887  -2.843 125.753  0.00  0.00    +0.000 OA
ATOM     10  H   UNL     1      -8.715  -0.812 125.594  0.00  0.00    +0.000 HD
ENDBRANCH   5   6
BRANCH   5  11
ATOM     11  C   UNL     1      -6.370  -0.940 123.797  0.00  0.00    +0.000 C 
BRANCH  11  13
ATOM     12  C   UNL     1      -5.521  -3.182 123.826  0.00  0.00    +0.000 C 
ATOM     13  O   UNL     1      -5.973  -2.086 123.069  0.00  0.00    +0.000 OA
ENDBRANCH  11  13
ENDBRANCH   5  11
ENDBRANCH   1   5
BRANCH   3  14
ATOM     14  C   UNL     1      -6.882   3.062 123.556  0.00  0.00    +0.000 C 
BRANCH  14  15
ATOM     15  C   UNL     1      -6.373   3.654 122.259  0.00  0.00    +0.000 A 
ATOM     16  C   UNL     1      -5.143   4.340 122.232  0.00  0.00    +0.000 A 
ATOM     17  C   UNL     1      -4.731   5.019 121.076  0.00  0.00    +0.000 A 
ATOM     18  C   UNL     1      -5.497   4.958 119.915  0.00  0.00    +0.000 A 
ATOM     19  C   UNL     1      -6.684   4.238 119.911  0.00  0.00    +0.000 A 
ATOM     20  C   UNL     1      -7.109   3.590 121.067  0.00  0.00    +0.000 A 
ENDBRANCH  14  15
ENDBRANCH   3  14
TORSDOF 6
ENDMDL
MODEL 2
REMARK VINA RESULT:      -6.2      8.990     10.163
REMARK  Name = Lacosamide
REMARK  8 active torsions:
REMARK  status: ('A' for Active; 'I' for Inactive)
REMARK    1  A    between atoms: C_1  and  O_2
REMARK    2  A    between atoms: O_2  and  C_3
REMARK    3  A    between atoms: C_3  and  C_4
REMARK    4  A    between atoms: C_4  and  N_5
REMARK    5  A    between atoms: C_4  and  C_9
REMARK    6  A    between atoms: C_6  and  C_7
REMARK    7  A    between atoms: N_11  and  C_12
REMARK    8  A    between atoms: C_12  and  C_13
REMARK                            x       y       z     vdW  Elec       q    Type
REMARK                         _______ _______ _______ _____ _____    ______ ____
ROOT
ATOM      1  C   UNL     1     -10.042   5.706 131.348  0.00  0.00    +0.000 C 
ATOM      2  O   UNL     1      -9.436   6.763 131.556  0.00  0.00    +0.000 OA
ATOM      3  N   UNL     1     -11.410   5.675 131.320  0.00  0.00    +0.000 N 
ATOM      4  H   UNL     1     -11.849   4.788 131.132  0.00  0.00    +0.000 HD
ENDROOT
BRANCH   1   5
ATOM      5  C   UNL     1      -9.314   4.376 130.992  0.00  0.00    +0.000 C 
BRANCH   5   6
ATOM      6  N   UNL     1      -8.668   3.731 132.158  0.00  0.00    +0.000 N 
ATOM      7  C   UNL     1      -8.799   2.438 132.598  0.00  0.00    +0.000 C 
ATOM      8  C   UNL     1      -9.847   1.511 132.029  0.00  0.00    +0.000 C 
ATOM      9  O   UNL     1      -8.033   2.037 133.481  0.00  0.00    +0.000 OA
ATOM     10  H   UNL     1      -7.902   4.217 132.613  0.00  0.00    +0.000 HD
ENDBRANCH   5   6
BRANCH   5  11
ATOM     11  C   UNL     1      -8.334   4.727 129.848  0.00  0.00    +0.000 C 
BRANCH  11  13
ATOM     12  C   UNL     1      -7.719   4.066 127.627  0.00  0.00    +0.000 C 
ATOM     13  O   UNL     1      -8.644   3.987 128.683  0.00  0.00    +0.000 OA
ENDBRANCH  11  13
ENDBRANCH   5  11
ENDBRANCH   1   5
BRANCH   3  14
ATOM     14  C   UNL     1     -12.214   6.868 131.580  0.00  0.00    +0.000 C 
BRANCH  14  15
ATOM     15  C   UNL     1     -12.757   7.551 130.343  0.00  0.00    +0.000 A 
ATOM     16  C   UNL     1     -13.218   6.782 129.257  0.00  0.00    +0.000 A 
ATOM     17  C   UNL     1     -13.584   7.397 128.052  0.00  0.00    +0.000 A 
ATOM     18  C   UNL     1     -13.570   8.785 127.940  0.00  0.00    +0.000 A 
ATOM     19  C   UNL     1     -13.172   9.559 129.021  0.00  0.00    +0.000 A 
ATOM     20  C   UNL     1     -12.779   8.947 130.207  0.00  0.00    +0.000 A 
ENDBRANCH  14  15
ENDBRANCH   3  14
TORSDOF 6
ENDMDL
MODEL 3
REMARK VINA RESULT:      -6.2      1.586      2.167
REMARK  Name = Lacosamide
REMARK  8 active torsions:
REMARK  status: ('A' for Active; 'I' for Inactive)
REMARK    1  A    between atoms: C_1  and  O_2
REMARK    2  A    between atoms: O_2  and  C_3
REMARK    3  A    between atoms: C_3  and  C_4
REMARK    4  A    between atoms: C_4  and  N_5
REMARK    5  A    between atoms: C_4  and  C_9
REMARK    6  A    between atoms: C_6  and  C_7
REMARK    7  A    between atoms: N_11  and  C_12
REMARK    8  A    between atoms: C_12  and  C_13
REMARK                            x       y       z     vdW  Elec       q    Type
REMARK                         _______ _______ _______ _____ _____    ______ ____
ROOT
ATOM      1  C   UNL     1      -8.948   0.256 123.450  0.00  0.00    +0.000 C 
ATOM      2  O   UNL     1     -10.164   0.280 123.223  0.00  0.00    +0.000 OA
ATOM      3  N   UNL     1      -8.194   1.395 123.352  0.00  0.00    +0.000 N 
ATOM      4  H   UNL     1      -7.212   1.318 123.562  0.00  0.00    +0.000 HD
ENDROOT
BRANCH   1   5
ATOM      5  C   UNL     1      -8.215  -1.015 123.971  0.00  0.00    +0.000 C 
BRANCH   5   6
ATOM      6  N   UNL     1      -8.917  -1.678 125.092  0.00  0.00    +0.000 N 
ATOM      7  C   UNL     1      -8.834  -2.988 125.494  0.00  0.00    +0.000 C 
ATOM      8  C   UNL     1      -8.126  -4.029 124.660  0.00  0.00    +0.000 C 
ATOM      9  O   UNL     1      -9.356  -3.307 126.568  0.00  0.00    +0.000 OA
ATOM     10  H   UNL     1      -9.395  -1.096 125.772  0.00  0.00    +0.000 HD
ENDBRANCH   5   6
BRANCH   5  11
ATOM     11  C   UNL     1      -6.776  -0.559 124.314  0.00  0.00    +0.000 C 
BRANCH  11  13
ATOM     12  C   UNL     1      -5.459   0.394 126.076  0.00  0.00    +0.000 C 
ATOM     13  O   UNL     1      -6.715  -0.060 125.637  0.00  0.00    +0.000 OA
ENDBRANCH  11  13
ENDBRANCH   5  11
ENDBRANCH   1   5
BRANCH   3  14
ATOM     14  C   UNL     1      -8.773   2.669 122.929  0.00  0.00    +0.000 C 
BRANCH  14  15
ATOM     15  C   UNL     1      -8.072   3.328 121.759  0.00  0.00    +0.000 A 
ATOM     16  C   UNL     1      -8.813   3.747 120.638  0.00  0.00    +0.000 A 
ATOM     17  C   UNL     1      -8.162   4.222 119.490  0.00  0.00    +0.000 A 
ATOM     18  C   UNL     1      -6.776   4.359 119.475  0.00  0.00    +0.000 A 
ATOM     19  C   UNL     1      -6.037   4.003 120.594  0.00  0.00    +0.000 A 
ATOM     20  C   UNL     1      -6.680   3.502 121.722  0.00  0.00    +0.000 A 
ENDBRANCH  14  15
ENDBRANCH   3  14
TORSDOF 6
ENDMDL
MODEL 4
REMARK VINA RESULT:      -6.1      9.111     10.303
REMARK  Name = Lacosamide
REMARK  8 active torsions:
REMARK  status: ('A' for Active; 'I' for Inactive)
REMARK    1  A    between atoms: C_1  and  O_2
REMARK    2  A    between atoms: O_2  and  C_3
REMARK    3  A    between atoms: C_3  and  C_4
REMARK    4  A    between atoms: C_4  and  N_5
REMARK    5  A    between atoms: C_4  and  C_9
REMARK    6  A    between atoms: C_6  and  C_7
REMARK    7  A    between atoms: N_11  and  C_12
REMARK    8  A    between atoms: C_12  and  C_13
REMARK                            x       y       z     vdW  Elec       q    Type
REMARK                         _______ _______ _______ _____ _____    ______ ____
ROOT
ATOM      1  C   UNL     1     -10.049   5.531 132.290  0.00  0.00    +0.000 C 
ATOM      2  O   UNL     1      -9.709   6.440 133.056  0.00  0.00    +0.000 OA
ATOM      3  N   UNL     1     -11.197   5.629 131.551  0.00  0.00    +0.000 N 
ATOM      4  H   UNL     1     -11.416   4.864 130.933  0.00  0.00    +0.000 HD
ENDROOT
BRANCH   1   5
ATOM      5  C   UNL     1      -9.158   4.282 132.018  0.00  0.00    +0.000 C 
BRANCH   5   6
ATOM      6  N   UNL     1      -9.530   3.555 130.785  0.00  0.00    +0.000 N 
ATOM      7  C   UNL     1      -8.731   3.214 129.723  0.00  0.00    +0.000 C 
ATOM      8  C   UNL     1      -7.329   3.755 129.581  0.00  0.00    +0.000 C 
ATOM      9  O   UNL     1      -9.184   2.443 128.869  0.00  0.00    +0.000 OA
ATOM     10  H   UNL     1     -10.430   3.087 130.755  0.00  0.00    +0.000 HD
ENDBRANCH   5   6
BRANCH   5  11
ATOM     11  C   UNL     1      -9.239   3.422 133.302  0.00  0.00    +0.000 C 
BRANCH  11  13
ATOM     12  C   UNL     1      -7.355   1.942 133.233  0.00  0.00    +0.000 C 
ATOM     13  O   UNL     1      -8.738   2.121 133.062  0.00  0.00    +0.000 OA
ENDBRANCH  11  13
ENDBRANCH   5  11
ENDBRANCH   1   5
BRANCH   3  14
ATOM     14  C   UNL     1     -12.094   6.778 131.669  0.00  0.00    +0.000 C 
BRANCH  14  15
ATOM     15  C   UNL     1     -12.585   7.339 130.351  0.00  0.00    +0.000 A 
ATOM     16  C   UNL     1     -12.884   6.471 129.283  0.00  0.00    +0.000 A 
ATOM     17  C   UNL     1     -13.196   6.983 128.015  0.00  0.00    +0.000 A 
ATOM     18  C   UNL     1     -13.290   8.358 127.816  0.00  0.00    +0.000 A 
ATOM     19  C   UNL     1     -13.054   9.224 128.875  0.00  0.00    +0.000 A 
ATOM     20  C   UNL     1     -12.713   8.717 130.125  0.00  0.00    +0.000 A 
ENDBRANCH  14  15
ENDBRANCH   3  14
TORSDOF 6
ENDMDL
MODEL 5
REMARK VINA RESULT:      -6.0      8.985     10.550
REMARK  Name = Lacosamide
REMARK  8 active torsions:
REMARK  status: ('A' for Active; 'I' for Inactive)
REMARK    1  A    between atoms: C_1  and  O_2
REMARK    2  A    between atoms: O_2  and  C_3
REMARK    3  A    between atoms: C_3  and  C_4
REMARK    4  A    between atoms: C_4  and  N_5
REMARK    5  A    between atoms: C_4  and  C_9
REMARK    6  A    between atoms: C_6  and  C_7
REMARK    7  A    between atoms: N_11  and  C_12
REMARK    8  A    between atoms: C_12  and  C_13
REMARK                            x       y       z     vdW  Elec       q    Type
REMARK                         _______ _______ _______ _____ _____    ______ ____
ROOT
ATOM      1  C   UNL     1      -9.876   5.669 131.952  0.00  0.00    +0.000 C 
ATOM      2  O   UNL     1      -9.729   6.427 132.918  0.00  0.00    +0.000 OA
ATOM      3  N   UNL     1     -10.986   5.754 131.156  0.00  0.00    +0.000 N 
ATOM      4  H   UNL     1     -11.044   5.120 130.375  0.00  0.00    +0.000 HD
ENDROOT
BRANCH   1   5
ATOM      5  C   UNL     1      -8.779   4.658 131.503  0.00  0.00    +0.000 C 
BRANCH   5   6
ATOM      6  N   UNL     1      -7.820   5.229 130.531  0.00  0.00    +0.000 N 
ATOM      7  C   UNL     1      -6.613   5.831 130.779  0.00  0.00    +0.000 C 
ATOM      8  C   UNL     1      -6.182   6.194 132.181  0.00  0.00    +0.000 C 
ATOM      9  O   UNL     1      -5.870   6.076 129.822  0.00  0.00    +0.000 OA
ATOM     10  H   UNL     1      -7.951   5.020 129.547  0.00  0.00    +0.000 HD
ENDBRANCH   5   6
BRANCH   5  11
ATOM     11  C   UNL     1      -9.542   3.418 130.977  0.00  0.00    +0.000 C 
BRANCH  11  13
ATOM     12  C   UNL     1      -8.795   2.285 129.001  0.00  0.00    +0.000 C 
ATOM     13  O   UNL     1      -9.494   3.368 129.564  0.00  0.00    +0.000 OA
ENDBRANCH  11  13
ENDBRANCH   5  11
ENDBRANCH   1   5
BRANCH   3  14
ATOM     14  C   UNL     1     -12.064   6.702 131.434  0.00  0.00    +0.000 C 
BRANCH  14  15
ATOM     15  C   UNL     1     -12.649   7.376 130.211  0.00  0.00    +0.000 A 
ATOM     16  C   UNL     1     -13.100   6.600 129.126  0.00  0.00    +0.000 A 
ATOM     17  C   UNL     1     -13.506   7.212 127.932  0.00  0.00    +0.000 A 
ATOM     18  C   UNL     1     -13.542   8.600 127.832  0.00  0.00    +0.000 A 
ATOM     19  C   UNL     1     -13.155   9.379 128.913  0.00  0.00    +0.000 A 
ATOM     20  C   UNL     1     -12.722   8.771 130.088  0.00  0.00    +0.000 A 
ENDBRANCH  14  15
ENDBRANCH   3  14
TORSDOF 6
ENDMDL
MODEL 6
REMARK VINA RESULT:      -6.0      8.738      9.830
REMARK  Name = Lacosamide
REMARK  8 active torsions:
REMARK  status: ('A' for Active; 'I' for Inactive)
REMARK    1  A    between atoms: C_1  and  O_2
REMARK    2  A    between atoms: O_2  and  C_3
REMARK    3  A    between atoms: C_3  and  C_4
REMARK    4  A    between atoms: C_4  and  N_5
REMARK    5  A    between atoms: C_4  and  C_9
REMARK    6  A    between atoms: C_6  and  C_7
REMARK    7  A    between atoms: N_11  and  C_12
REMARK    8  A    between atoms: C_12  and  C_13
REMARK                            x       y       z     vdW  Elec       q    Type
REMARK                         _______ _______ _______ _____ _____    ______ ____
ROOT
ATOM      1  C   UNL     1     -10.775   4.554 131.015  0.00  0.00    +0.000 C 
ATOM      2  O   UNL     1     -11.376   4.024 130.074  0.00  0.00    +0.000 OA
ATOM      3  N   UNL     1     -11.164   5.775 131.496  0.00  0.00    +0.000 N 
ATOM      4  H   UNL     1     -10.646   6.152 132.274  0.00  0.00    +0.000 HD
ENDROOT
BRANCH   1   5
ATOM      5  C   UNL     1      -9.628   3.840 131.790  0.00  0.00    +0.000 C 
BRANCH   5   6
ATOM      6  N   UNL     1      -9.920   2.420 132.090  0.00  0.00    +0.000 N 
ATOM      7  C   UNL     1      -9.374   1.299 131.518  0.00  0.00    +0.000 C 
ATOM      8  C   UNL     1      -8.501   1.382 130.288  0.00  0.00    +0.000 C 
ATOM      9  O   UNL     1      -9.611   0.201 132.034  0.00  0.00    +0.000 OA
ATOM     10  H   UNL     1     -10.455   2.205 132.925  0.00  0.00    +0.000 HD
ENDBRANCH   5   6
BRANCH   5  11
ATOM     11  C   UNL     1      -9.368   4.705 133.046  0.00  0.00    +0.000 C 
BRANCH  11  13
ATOM     12  C   UNL     1      -7.916   4.665 134.953  0.00  0.00    +0.000 C 
ATOM     13  O   UNL     1      -8.715   3.947 134.046  0.00  0.00    +0.000 OA
ENDBRANCH  11  13
ENDBRANCH   5  11
ENDBRANCH   1   5
BRANCH   3  14
ATOM     14  C   UNL     1     -12.264   6.526 130.895  0.00  0.00    +0.000 C 
BRANCH  14  15
ATOM     15  C   UNL     1     -11.964   7.111 129.530  0.00  0.00    +0.000 A 
ATOM     16  C   UNL     1     -12.804   6.821 128.438  0.00  0.00    +0.000 A 
ATOM     17  C   UNL     1     -12.458   7.232 127.143  0.00  0.00    +0.000 A 
ATOM     18  C   UNL     1     -11.316   8.001 126.933  0.00  0.00    +0.000 A 
ATOM     19  C   UNL     1     -10.509   8.343 128.009  0.00  0.00    +0.000 A 
ATOM     20  C   UNL     1     -10.836   7.908 129.290  0.00  0.00    +0.000 A 
ENDBRANCH  14  15
ENDBRANCH   3  14
TORSDOF 6
ENDMDL
MODEL 7
REMARK VINA RESULT:      -5.9      1.715      2.168
REMARK  Name = Lacosamide
REMARK  8 active torsions:
REMARK  status: ('A' for Active; 'I' for Inactive)
REMARK    1  A    between atoms: C_1  and  O_2
REMARK    2  A    between atoms: O_2  and  C_3
REMARK    3  A    between atoms: C_3  and  C_4
REMARK    4  A    between atoms: C_4  and  N_5
REMARK    5  A    between atoms: C_4  and  C_9
REMARK    6  A    between atoms: C_6  and  C_7
REMARK    7  A    between atoms: N_11  and  C_12
REMARK    8  A    between atoms: C_12  and  C_13
REMARK                            x       y       z     vdW  Elec       q    Type
REMARK                         _______ _______ _______ _____ _____    ______ ____
ROOT
ATOM      1  C   UNL     1      -9.326   0.412 123.274  0.00  0.00    +0.000 C 
ATOM      2  O   UNL     1     -10.421   0.431 122.700  0.00  0.00    +0.000 OA
ATOM      3  N   UNL     1      -8.504   1.506 123.251  0.00  0.00    +0.000 N 
ATOM      4  H   UNL     1      -7.630   1.439 123.749  0.00  0.00    +0.000 HD
ENDROOT
BRANCH   1   5
ATOM      5  C   UNL     1      -8.856  -0.787 124.150  0.00  0.00    +0.000 C 
BRANCH   5   6
ATOM      6  N   UNL     1      -8.219  -0.370 125.420  0.00  0.00    +0.000 N 
ATOM      7  C   UNL     1      -8.031  -1.109 126.561  0.00  0.00    +0.000 C 
ATOM      8  C   UNL     1      -8.677  -2.462 126.744  0.00  0.00    +0.000 C 
ATOM      9  O   UNL     1      -7.312  -0.642 127.451  0.00  0.00    +0.000 OA
ATOM     10  H   UNL     1      -7.697   0.500 125.433  0.00  0.00    +0.000 HD
ENDBRANCH   5   6
BRANCH   5  11
ATOM     11  C   UNL     1      -7.939  -1.638 123.239  0.00  0.00    +0.000 C 
BRANCH  11  13
ATOM     12  C   UNL     1      -9.613  -3.348 123.382  0.00  0.00    +0.000 C 
ATOM     13  O   UNL     1      -8.248  -3.012 123.368  0.00  0.00    +0.000 OA
ENDBRANCH  11  13
ENDBRANCH   5  11
ENDBRANCH   1   5
BRANCH   3  14
ATOM     14  C   UNL     1      -8.854   2.719 122.513  0.00  0.00    +0.000 C 
BRANCH  14  15
ATOM     15  C   UNL     1      -7.746   3.274 121.642  0.00  0.00    +0.000 A 
ATOM     16  C   UNL     1      -6.416   3.265 122.102  0.00  0.00    +0.000 A 
ATOM     17  C   UNL     1      -5.405   3.908 121.372  0.00  0.00    +0.000 A 
ATOM     18  C   UNL     1      -5.692   4.496 120.143  0.00  0.00    +0.000 A 
ATOM     19  C   UNL     1      -6.989   4.462 119.650  0.00  0.00    +0.000 A 
ATOM     20  C   UNL     1      -7.998   3.853 120.389  0.00  0.00    +0.000 A 
ENDBRANCH  14  15
ENDBRANCH   3  14
TORSDOF 6
ENDMDL
MODEL 8
REMARK VINA RESULT:      -5.8      4.790      6.539
REMARK  Name = Lacosamide
REMARK  8 active torsions:
REMARK  status: ('A' for Active; 'I' for Inactive)
REMARK    1  A    between atoms: C_1  and  O_2
REMARK    2  A    between atoms: O_2  and  C_3
REMARK    3  A    between atoms: C_3  and  C_4
REMARK    4  A    between atoms: C_4  and  N_5
REMARK    5  A    between atoms: C_4  and  C_9
REMARK    6  A    between atoms: C_6  and  C_7
REMARK    7  A    between atoms: N_11  and  C_12
REMARK    8  A    between atoms: C_12  and  C_13
REMARK                            x       y       z     vdW  Elec       q    Type
REMARK                         _______ _______ _______ _____ _____    ______ ____
ROOT
ATOM      1  C   UNL     1      -5.834   4.239 126.343  0.00  0.00    +0.000 C 
ATOM      2  O   UNL     1      -6.790   5.018 126.434  0.00  0.00    +0.000 OA
ATOM      3  N   UNL     1      -5.716   3.397 125.270  0.00  0.00    +0.000 N 
ATOM      4  H   UNL     1      -4.908   2.795 125.242  0.00  0.00    +0.000 HD
ENDROOT
BRANCH   1   5
ATOM      5  C   UNL     1      -4.651   4.237 127.356  0.00  0.00    +0.000 C 
BRANCH   5   6
ATOM      6  N   UNL     1      -3.860   5.488 127.335  0.00  0.00    +0.000 N 
ATOM      7  C   UNL     1      -2.991   5.962 128.284  0.00  0.00    +0.000 C 
ATOM      8  C   UNL     1      -2.884   5.325 129.649  0.00  0.00    +0.000 C 
ATOM      9  O   UNL     1      -2.283   6.936 128.000  0.00  0.00    +0.000 OA
ATOM     10  H   UNL     1      -3.793   6.000 126.461  0.00  0.00    +0.000 HD
ENDBRANCH   5   6
BRANCH   5  11
ATOM     11  C   UNL     1      -3.825   2.968 127.035  0.00  0.00    +0.000 C 
BRANCH  11  13
ATOM     12  C   UNL     1      -1.459   2.942 126.654  0.00  0.00    +0.000 C 
ATOM     13  O   UNL     1      -2.740   3.283 126.185  0.00  0.00    +0.000 OA
ENDBRANCH  11  13
ENDBRANCH   5  11
ENDBRANCH   1   5
BRANCH   3  14
ATOM     14  C   UNL     1      -6.730   3.341 124.218  0.00  0.00    +0.000 C 
BRANCH  14  15
ATOM     15  C   UNL     1      -6.235   3.722 122.839  0.00  0.00    +0.000 A 
ATOM     16  C   UNL     1      -5.012   4.404 122.691  0.00  0.00    +0.000 A 
ATOM     17  C   UNL     1      -4.615   4.893 121.438  0.00  0.00    +0.000 A 
ATOM     18  C   UNL     1      -5.389   4.640 120.309  0.00  0.00    +0.000 A 
ATOM     19  C   UNL     1      -6.569   3.920 120.430  0.00  0.00    +0.000 A 
ATOM     20  C   UNL     1      -6.979   3.463 121.679  0.00  0.00    +0.000 A 
ENDBRANCH  14  15
ENDBRANCH   3  14
TORSDOF 6
ENDMDL
MODEL 9
REMARK VINA RESULT:      -5.8      9.189     10.732
REMARK  Name = Lacosamide
REMARK  8 active torsions:
REMARK  status: ('A' for Active; 'I' for Inactive)
REMARK    1  A    between atoms: C_1  and  O_2
REMARK    2  A    between atoms: O_2  and  C_3
REMARK    3  A    between atoms: C_3  and  C_4
REMARK    4  A    between atoms: C_4  and  N_5
REMARK    5  A    between atoms: C_4  and  C_9
REMARK    6  A    between atoms: C_6  and  C_7
REMARK    7  A    between atoms: N_11  and  C_12
REMARK    8  A    between atoms: C_12  and  C_13
REMARK                            x       y       z     vdW  Elec       q    Type
REMARK                         _______ _______ _______ _____ _____    ______ ____
ROOT
ATOM      1  C   UNL     1     -10.672   4.396 130.459  0.00  0.00    +0.000 C 
ATOM      2  O   UNL     1     -11.420   3.443 130.212  0.00  0.00    +0.000 OA
ATOM      3  N   UNL     1     -11.040   5.676 130.146  0.00  0.00    +0.000 N 
ATOM      4  H   UNL     1     -10.396   6.414 130.384  0.00  0.00    +0.000 HD
ENDROOT
BRANCH   1   5
ATOM      5  C   UNL     1      -9.332   4.233 131.236  0.00  0.00    +0.000 C 
BRANCH   5   6
ATOM      6  N   UNL     1      -8.136   4.486 130.402  0.00  0.00    +0.000 N 
ATOM      7  C   UNL     1      -7.298   5.571 130.422  0.00  0.00    +0.000 C 
ATOM      8  C   UNL     1      -7.633   6.817 131.207  0.00  0.00    +0.000 C 
ATOM      9  O   UNL     1      -6.245   5.513 129.776  0.00  0.00    +0.000 OA
ATOM     10  H   UNL     1      -7.759   3.718 129.856  0.00  0.00    +0.000 HD
ENDBRANCH   5   6
BRANCH   5  11
ATOM     11  C   UNL     1      -9.376   2.815 131.856  0.00  0.00    +0.000 C 
BRANCH  11  13
ATOM     12  C   UNL     1      -8.737   3.815 133.939  0.00  0.00    +0.000 C 
ATOM     13  O   UNL     1      -9.549   2.891 133.258  0.00  0.00    +0.000 OA
ENDBRANCH  11  13
ENDBRANCH   5  11
ENDBRANCH   1   5
BRANCH   3  14
ATOM     14  C   UNL     1     -12.300   5.972 129.466  0.00  0.00    +0.000 C 
BRANCH  14  15
ATOM     15  C   UNL     1     -12.747   7.416 129.555  0.00  0.00    +0.000 A 
ATOM     16  C   UNL     1     -13.165   8.098 128.397  0.00  0.00    +0.000 A 
ATOM     17  C   UNL     1     -13.440   9.473 128.438  0.00  0.00    +0.000 A 
ATOM     18  C   UNL     1     -13.377  10.165 129.645  0.00  0.00    +0.000 A 
ATOM     19  C   UNL     1     -13.021   9.493 130.806  0.00  0.00    +0.000 A 
ATOM     20  C   UNL     1     -12.718   8.135 130.759  0.00  0.00    +0.000 A 
ENDBRANCH  14  15
ENDBRANCH   3  14
TORSDOF 6
ENDMDL
