MODEL 1
REMARK VINA RESULT:      -6.4      0.000      0.000
REMARK  Name = Lactitol
REMARK  17 active torsions:
REMARK  status: ('A' for Active; 'I' for Inactive)
REMARK    1  A    between atoms: O_1  and  C_2
REMARK    2  A    between atoms: C_2  and  C_3
REMARK    3  A    between atoms: C_3  and  O_4
REMARK    4  A    between atoms: C_3  and  C_5
REMARK    5  A    between atoms: C_5  and  O_6
REMARK    6  A    between atoms: C_5  and  C_7
REMARK    7  A    between atoms: C_7  and  O_8
REMARK    8  A    between atoms: C_7  and  C_20
REMARK    9  A    between atoms: O_8  and  C_9
REMARK   10  A    between atoms: C_11  and  C_12
REMARK   11  A    between atoms: C_12  and  O_13
REMARK   12  A    between atoms: C_14  and  O_15
REMARK   13  A    between atoms: C_16  and  O_17
REMARK   14  A    between atoms: C_18  and  O_19
REMARK   15  A    between atoms: C_20  and  O_21
REMARK   16  A    between atoms: C_20  and  C_22
REMARK   17  A    between atoms: C_22  and  O_23
REMARK                            x       y       z     vdW  Elec       q    Type
REMARK                         _______ _______ _______ _____ _____    ______ ____
ROOT
ATOM      1  C   UNL     1      -9.242   5.027 130.062  0.00  0.00    +0.000 C 
ENDROOT
BRANCH   1   2
ATOM      2  C   UNL     1      -9.064   4.770 131.631  0.00  0.00    +0.000 C 
BRANCH   2   3
ATOM      3  O   UNL     1     -10.095   4.170 132.391  0.00  0.00    +0.000 OA
ATOM      4  H   UNL     1      -9.699   3.496 132.972  0.00  0.00    +0.000 HD
ENDBRANCH   2   3
BRANCH   2   5
ATOM      5  C   UNL     1      -8.618   6.146 132.201  0.00  0.00    +0.000 C 
BRANCH   5   6
ATOM      6  O   UNL     1      -9.566   6.348 133.222  0.00  0.00    +0.000 OA
ATOM      7  H   UNL     1      -9.884   5.797 133.969  0.00  0.00    +0.000 HD
ENDBRANCH   5   6
ENDBRANCH   2   5
ENDBRANCH   1   2
BRANCH   1   8
ATOM      8  O   UNL     1     -10.760   4.621 129.881  0.00  0.00    +0.000 OA
BRANCH   8   9
ATOM      9  C   UNL     1     -11.729   5.743 129.644  0.00  0.00    +0.000 C 
ATOM     10  O   UNL     1     -11.411   6.524 128.421  0.00  0.00    +0.000 OA
ATOM     11  C   UNL     1     -12.511   7.138 127.562  0.00  0.00    +0.000 C 
ATOM     12  C   UNL     1     -12.450   8.349 128.408  0.00  0.00    +0.000 C 
ATOM     13  C   UNL     1     -12.783   7.880 129.903  0.00  0.00    +0.000 C 
ATOM     14  C   UNL     1     -11.815   6.832 130.630  0.00  0.00    +0.000 C 
BRANCH  14  15
ATOM     15  O   UNL     1     -12.362   6.337 131.859  0.00  0.00    +0.000 OA
ATOM     16  H   UNL     1     -12.545   5.383 131.773  0.00  0.00    +0.000 HD
ENDBRANCH  14  15
BRANCH  12  17
ATOM     17  O   UNL     1     -11.077   8.798 128.324  0.00  0.00    +0.000 OA
ATOM     18  H   UNL     1     -10.547   7.960 128.335  0.00  0.00    +0.000 HD
ENDBRANCH  12  17
BRANCH  13  19
ATOM     19  O   UNL     1     -12.742   9.048 130.682  0.00  0.00    +0.000 OA
ATOM     20  H   UNL     1     -11.898   8.930 131.163  0.00  0.00    +0.000 HD
ENDBRANCH  13  19
BRANCH  11  21
ATOM     21  C   UNL     1     -12.096   7.342 126.006  0.00  0.00    +0.000 C 
BRANCH  21  22
ATOM     22  O   UNL     1     -10.817   7.912 125.625  0.00  0.00    +0.000 OA
ATOM     23  H   UNL     1     -10.063   7.689 126.190  0.00  0.00    +0.000 HD
ENDBRANCH  21  22
ENDBRANCH  11  21
ENDBRANCH   8   9
ENDBRANCH   1   8
BRANCH   1  24
ATOM     24  C   UNL     1      -8.215   4.239 128.836  0.00  0.00    +0.000 C 
BRANCH  24  25
ATOM     25  O   UNL     1      -8.378   2.807 128.977  0.00  0.00    +0.000 OA
ATOM     26  H   UNL     1      -8.362   2.506 128.040  0.00  0.00    +0.000 HD
ENDBRANCH  24  25
BRANCH  24  27
ATOM     27  C   UNL     1      -8.321   4.436 127.123  0.00  0.00    +0.000 C 
BRANCH  27  28
ATOM     28  O   UNL     1      -8.993   5.728 126.930  0.00  0.00    +0.000 OA
ATOM     29  H   UNL     1      -9.932   5.376 126.831  0.00  0.00    +0.000 HD
ENDBRANCH  27  28
BRANCH  27  30
ATOM     30  C   UNL     1      -7.022   4.603 126.400  0.00  0.00    +0.000 C 
BRANCH  30  31
ATOM     31  O   UNL     1      -7.703   5.539 125.417  0.00  0.00    +0.000 OA
ATOM     32  H   UNL     1      -8.174   5.344 124.674  0.00  0.00    +0.000 HD
ENDBRANCH  30  31
ENDBRANCH  27  30
ENDBRANCH  24  27
ENDBRANCH   1  24
TORSDOF 17
ENDMDL
MODEL 2
REMARK VINA RESULT:      -6.3      1.370      1.789
REMARK  Name = Lactitol
REMARK  17 active torsions:
REMARK  status: ('A' for Active; 'I' for Inactive)
REMARK    1  A    between atoms: O_1  and  C_2
REMARK    2  A    between atoms: C_2  and  C_3
REMARK    3  A    between atoms: C_3  and  O_4
REMARK    4  A    between atoms: C_3  and  C_5
REMARK    5  A    between atoms: C_5  and  O_6
REMARK    6  A    between atoms: C_5  and  C_7
REMARK    7  A    between atoms: C_7  and  O_8
REMARK    8  A    between atoms: C_7  and  C_20
REMARK    9  A    between atoms: O_8  and  C_9
REMARK   10  A    between atoms: C_11  and  C_12
REMARK   11  A    between atoms: C_12  and  O_13
REMARK   12  A    between atoms: C_14  and  O_15
REMARK   13  A    between atoms: C_16  and  O_17
REMARK   14  A    between atoms: C_18  and  O_19
REMARK   15  A    between atoms: C_20  and  O_21
REMARK   16  A    between atoms: C_20  and  C_22
REMARK   17  A    between atoms: C_22  and  O_23
REMARK                            x       y       z     vdW  Elec       q    Type
REMARK                         _______ _______ _______ _____ _____    ______ ____
ROOT
ATOM      1  C   UNL     1      -9.276   5.082 130.219  0.00  0.00    +0.000 C 
ENDROOT
BRANCH   1   2
ATOM      2  C   UNL     1      -9.117   4.702 131.764  0.00  0.00    +0.000 C 
BRANCH   2   3
ATOM      3  O   UNL     1     -10.188   4.123 132.485  0.00  0.00    +0.000 OA
ATOM      4  H   UNL     1     -10.271   3.190 132.221  0.00  0.00    +0.000 HD
ENDBRANCH   2   3
BRANCH   2   5
ATOM      5  C   UNL     1      -8.574   5.997 132.430  0.00  0.00    +0.000 C 
BRANCH   5   6
ATOM      6  O   UNL     1      -9.637   6.341 133.287  0.00  0.00    +0.000 OA
ATOM      7  H   UNL     1      -9.682   6.713 134.193  0.00  0.00    +0.000 HD
ENDBRANCH   5   6
ENDBRANCH   2   5
ENDBRANCH   1   2
BRANCH   1   8
ATOM      8  O   UNL     1     -10.782   4.662 129.980  0.00  0.00    +0.000 OA
BRANCH   8   9
ATOM      9  C   UNL     1     -11.755   5.774 129.719  0.00  0.00    +0.000 C 
ATOM     10  O   UNL     1     -11.444   6.528 128.477  0.00  0.00    +0.000 OA
ATOM     11  C   UNL     1     -12.549   7.118 127.608  0.00  0.00    +0.000 C 
ATOM     12  C   UNL     1     -12.488   8.349 128.425  0.00  0.00    +0.000 C 
ATOM     13  C   UNL     1     -12.815   7.914 129.932  0.00  0.00    +0.000 C 
ATOM     14  C   UNL     1     -11.841   6.887 130.679  0.00  0.00    +0.000 C 
BRANCH  14  15
ATOM     15  O   UNL     1     -12.382   6.419 131.922  0.00  0.00    +0.000 OA
ATOM     16  H   UNL     1     -11.721   6.535 132.629  0.00  0.00    +0.000 HD
ENDBRANCH  14  15
BRANCH  12  17
ATOM     17  O   UNL     1     -11.117   8.799 128.324  0.00  0.00    +0.000 OA
ATOM     18  H   UNL     1     -10.581   7.994 128.542  0.00  0.00    +0.000 HD
ENDBRANCH  12  17
BRANCH  13  19
ATOM     19  O   UNL     1     -12.774   9.100 130.683  0.00  0.00    +0.000 OA
ATOM     20  H   UNL     1     -12.241   9.680 130.102  0.00  0.00    +0.000 HD
ENDBRANCH  13  19
BRANCH  11  21
ATOM     21  C   UNL     1     -12.140   7.285 126.046  0.00  0.00    +0.000 C 
BRANCH  21  22
ATOM     22  O   UNL     1     -10.920   7.960 125.644  0.00  0.00    +0.000 OA
ATOM     23  H   UNL     1     -10.607   8.664 126.230  0.00  0.00    +0.000 HD
ENDBRANCH  21  22
ENDBRANCH  11  21
ENDBRANCH   8   9
ENDBRANCH   1   8
BRANCH   1  24
ATOM     24  C   UNL     1      -8.214   4.420 128.951  0.00  0.00    +0.000 C 
BRANCH  24  25
ATOM     25  O   UNL     1      -8.536   5.090 127.708  0.00  0.00    +0.000 OA
ATOM     26  H   UNL     1      -7.688   5.540 127.492  0.00  0.00    +0.000 HD
ENDBRANCH  24  25
BRANCH  24  27
ATOM     27  C   UNL     1      -6.486   4.458 128.930  0.00  0.00    +0.000 C 
BRANCH  27  28
ATOM     28  O   UNL     1      -6.126   5.700 129.627  0.00  0.00    +0.000 OA
ATOM     29  H   UNL     1      -6.367   5.405 130.559  0.00  0.00    +0.000 HD
ENDBRANCH  27  28
BRANCH  27  30
ATOM     30  C   UNL     1      -5.797   3.396 129.725  0.00  0.00    +0.000 C 
BRANCH  30  31
ATOM     31  O   UNL     1      -4.533   4.237 129.731  0.00  0.00    +0.000 OA
ATOM     32  H   UNL     1      -3.914   4.345 129.085  0.00  0.00    +0.000 HD
ENDBRANCH  30  31
ENDBRANCH  27  30
ENDBRANCH  24  27
ENDBRANCH   1  24
TORSDOF 17
ENDMDL
MODEL 3
REMARK VINA RESULT:      -6.3      1.846      2.984
REMARK  Name = Lactitol
REMARK  17 active torsions:
REMARK  status: ('A' for Active; 'I' for Inactive)
REMARK    1  A    between atoms: O_1  and  C_2
REMARK    2  A    between atoms: C_2  and  C_3
REMARK    3  A    between atoms: C_3  and  O_4
REMARK    4  A    between atoms: C_3  and  C_5
REMARK    5  A    between atoms: C_5  and  O_6
REMARK    6  A    between atoms: C_5  and  C_7
REMARK    7  A    between atoms: C_7  and  O_8
REMARK    8  A    between atoms: C_7  and  C_20
REMARK    9  A    between atoms: O_8  and  C_9
REMARK   10  A    between atoms: C_11  and  C_12
REMARK   11  A    between atoms: C_12  and  O_13
REMARK   12  A    between atoms: C_14  and  O_15
REMARK   13  A    between atoms: C_16  and  O_17
REMARK   14  A    between atoms: C_18  and  O_19
REMARK   15  A    between atoms: C_20  and  O_21
REMARK   16  A    between atoms: C_20  and  C_22
REMARK   17  A    between atoms: C_22  and  O_23
REMARK                            x       y       z     vdW  Elec       q    Type
REMARK                         _______ _______ _______ _____ _____    ______ ____
ROOT
ATOM      1  C   UNL     1     -10.007   5.132 130.482  0.00  0.00    +0.000 C 
ENDROOT
BRANCH   1   2
ATOM      2  C   UNL     1      -9.253   5.767 131.742  0.00  0.00    +0.000 C 
BRANCH   2   3
ATOM      3  O   UNL     1      -9.981   6.299 132.833  0.00  0.00    +0.000 OA
ATOM      4  H   UNL     1      -9.370   6.427 133.579  0.00  0.00    +0.000 HD
ENDBRANCH   2   3
BRANCH   2   5
ATOM      5  C   UNL     1      -8.261   6.792 131.124  0.00  0.00    +0.000 C 
BRANCH   5   6
ATOM      6  O   UNL     1      -8.993   7.263 130.018  0.00  0.00    +0.000 OA
ATOM      7  H   UNL     1      -9.944   7.239 129.777  0.00  0.00    +0.000 HD
ENDBRANCH   5   6
ENDBRANCH   2   5
ENDBRANCH   1   2
BRANCH   1   8
ATOM      8  O   UNL     1     -11.512   5.365 130.908  0.00  0.00    +0.000 OA
BRANCH   8   9
ATOM      9  C   UNL     1     -12.252   6.452 130.183  0.00  0.00    +0.000 C 
ATOM     10  O   UNL     1     -11.582   6.858 128.921  0.00  0.00    +0.000 OA
ATOM     11  C   UNL     1     -12.384   7.301 127.703  0.00  0.00    +0.000 C 
ATOM     12  C   UNL     1     -12.344   8.685 128.222  0.00  0.00    +0.000 C 
ATOM     13  C   UNL     1     -13.047   8.652 129.662  0.00  0.00    +0.000 C 
ATOM     14  C   UNL     1     -12.402   7.766 130.828  0.00  0.00    +0.000 C 
BRANCH  14  15
ATOM     15  O   UNL     1     -13.258   7.654 131.973  0.00  0.00    +0.000 OA
ATOM     16  H   UNL     1     -12.793   7.171 132.681  0.00  0.00    +0.000 HD
ENDBRANCH  14  15
BRANCH  12  17
ATOM     17  O   UNL     1     -10.938   8.994 128.364  0.00  0.00    +0.000 OA
ATOM     18  H   UNL     1     -10.832   9.205 129.326  0.00  0.00    +0.000 HD
ENDBRANCH  12  17
BRANCH  13  19
ATOM     19  O   UNL     1     -13.019   9.978 130.124  0.00  0.00    +0.000 OA
ATOM     20  H   UNL     1     -12.058  10.159 130.139  0.00  0.00    +0.000 HD
ENDBRANCH  13  19
BRANCH  11  21
ATOM     21  C   UNL     1     -11.624   7.056 126.289  0.00  0.00    +0.000 C 
BRANCH  21  22
ATOM     22  O   UNL     1     -10.736   8.050 125.716  0.00  0.00    +0.000 OA
ATOM     23  H   UNL     1      -9.799   7.973 125.949  0.00  0.00    +0.000 HD
ENDBRANCH  21  22
ENDBRANCH  11  21
ENDBRANCH   8   9
ENDBRANCH   1   8
BRANCH   1  24
ATOM     24  C   UNL     1      -9.742   3.451 129.950  0.00  0.00    +0.000 C 
BRANCH  24  25
ATOM     25  O   UNL     1      -8.849   3.484 128.810  0.00  0.00    +0.000 OA
ATOM     26  H   UNL     1      -7.965   3.488 129.243  0.00  0.00    +0.000 HD
ENDBRANCH  24  25
BRANCH  24  27
ATOM     27  C   UNL     1      -9.063   2.168 130.888  0.00  0.00    +0.000 C 
BRANCH  27  28
ATOM     28  O   UNL     1      -7.706   2.619 131.223  0.00  0.00    +0.000 OA
ATOM     29  H   UNL     1      -7.884   3.610 131.192  0.00  0.00    +0.000 HD
ENDBRANCH  27  28
BRANCH  27  30
ATOM     30  C   UNL     1      -9.694   1.927 132.222  0.00  0.00    +0.000 C 
BRANCH  30  31
ATOM     31  O   UNL     1      -9.781   0.446 131.901  0.00  0.00    +0.000 OA
ATOM     32  H   UNL     1      -9.522   0.005 131.159  0.00  0.00    +0.000 HD
ENDBRANCH  30  31
ENDBRANCH  27  30
ENDBRANCH  24  27
ENDBRANCH   1  24
TORSDOF 17
ENDMDL
MODEL 4
REMARK VINA RESULT:      -6.1      1.857      4.758
REMARK  Name = Lactitol
REMARK  17 active torsions:
REMARK  status: ('A' for Active; 'I' for Inactive)
REMARK    1  A    between atoms: O_1  and  C_2
REMARK    2  A    between atoms: C_2  and  C_3
REMARK    3  A    between atoms: C_3  and  O_4
REMARK    4  A    between atoms: C_3  and  C_5
REMARK    5  A    between atoms: C_5  and  O_6
REMARK    6  A    between atoms: C_5  and  C_7
REMARK    7  A    between atoms: C_7  and  O_8
REMARK    8  A    between atoms: C_7  and  C_20
REMARK    9  A    between atoms: O_8  and  C_9
REMARK   10  A    between atoms: C_11  and  C_12
REMARK   11  A    between atoms: C_12  and  O_13
REMARK   12  A    between atoms: C_14  and  O_15
REMARK   13  A    between atoms: C_16  and  O_17
REMARK   14  A    between atoms: C_18  and  O_19
REMARK   15  A    between atoms: C_20  and  O_21
REMARK   16  A    between atoms: C_20  and  C_22
REMARK   17  A    between atoms: C_22  and  O_23
REMARK                            x       y       z     vdW  Elec       q    Type
REMARK                         _______ _______ _______ _____ _____    ______ ____
ROOT
ATOM      1  C   UNL     1      -9.485   5.782 130.439  0.00  0.00    +0.000 C 
ENDROOT
BRANCH   1   2
ATOM      2  C   UNL     1      -8.478   4.712 129.808  0.00  0.00    +0.000 C 
BRANCH   2   3
ATOM      3  O   UNL     1      -7.864   4.942 128.554  0.00  0.00    +0.000 OA
ATOM      4  H   UNL     1      -7.901   5.895 128.361  0.00  0.00    +0.000 HD
ENDBRANCH   2   3
BRANCH   2   5
ATOM      5  C   UNL     1      -9.256   3.368 129.860  0.00  0.00    +0.000 C 
BRANCH   5   6
ATOM      6  O   UNL     1     -10.582   3.816 130.012  0.00  0.00    +0.000 OA
ATOM      7  H   UNL     1     -11.046   4.649 129.781  0.00  0.00    +0.000 HD
ENDBRANCH   5   6
ENDBRANCH   2   5
ENDBRANCH   1   2
BRANCH   1   8
ATOM      8  O   UNL     1      -9.125   7.054 129.572  0.00  0.00    +0.000 OA
BRANCH   8   9
ATOM      9  C   UNL     1     -10.199   7.568 128.657  0.00  0.00    +0.000 C 
ATOM     10  O   UNL     1     -11.452   7.905 129.380  0.00  0.00    +0.000 OA
ATOM     11  C   UNL     1     -12.342   9.059 128.932  0.00  0.00    +0.000 C 
ATOM     12  C   UNL     1     -13.055   8.119 128.041  0.00  0.00    +0.000 C 
ATOM     13  C   UNL     1     -11.960   7.528 127.032  0.00  0.00    +0.000 C 
ATOM     14  C   UNL     1     -10.735   6.678 127.615  0.00  0.00    +0.000 C 
BRANCH  14  15
ATOM     15  O   UNL     1      -9.727   6.416 126.630  0.00  0.00    +0.000 OA
ATOM     16  H   UNL     1      -9.931   5.581 126.170  0.00  0.00    +0.000 HD
ENDBRANCH  14  15
BRANCH  12  17
ATOM     17  O   UNL     1     -13.544   7.073 128.911  0.00  0.00    +0.000 OA
ATOM     18  H   UNL     1     -12.723   6.622 129.234  0.00  0.00    +0.000 HD
ENDBRANCH  12  17
BRANCH  13  19
ATOM     19  O   UNL     1     -12.663   6.658 126.181  0.00  0.00    +0.000 OA
ATOM     20  H   UNL     1     -13.091   6.060 126.826  0.00  0.00    +0.000 HD
ENDBRANCH  13  19
BRANCH  11  21
ATOM     21  C   UNL     1     -13.229   9.709 130.127  0.00  0.00    +0.000 C 
BRANCH  21  22
ATOM     22  O   UNL     1     -13.364  11.145 130.283  0.00  0.00    +0.000 OA
ATOM     23  H   UNL     1     -12.552  11.633 130.484  0.00  0.00    +0.000 HD
ENDBRANCH  21  22
ENDBRANCH  11  21
ENDBRANCH   8   9
ENDBRANCH   1   8
BRANCH   1  24
ATOM     24  C   UNL     1      -9.506   6.175 132.178  0.00  0.00    +0.000 C 
BRANCH  24  25
ATOM     25  O   UNL     1     -10.660   5.524 132.765  0.00  0.00    +0.000 OA
ATOM     26  H   UNL     1     -11.013   5.009 132.004  0.00  0.00    +0.000 HD
ENDBRANCH  24  25
BRANCH  24  27
ATOM     27  C   UNL     1      -8.274   5.807 133.332  0.00  0.00    +0.000 C 
BRANCH  27  28
ATOM     28  O   UNL     1      -8.785   6.322 134.610  0.00  0.00    +0.000 OA
ATOM     29  H   UNL     1      -8.954   7.270 134.313  0.00  0.00    +0.000 HD
ENDBRANCH  27  28
BRANCH  27  30
ATOM     30  C   UNL     1      -8.044   4.355 133.606  0.00  0.00    +0.000 C 
BRANCH  30  31
ATOM     31  O   UNL     1      -8.803   4.493 134.914  0.00  0.00    +0.000 OA
ATOM     32  H   UNL     1      -8.629   4.125 135.718  0.00  0.00    +0.000 HD
ENDBRANCH  30  31
ENDBRANCH  27  30
ENDBRANCH  24  27
ENDBRANCH   1  24
TORSDOF 17
ENDMDL
MODEL 5
REMARK VINA RESULT:      -6.0      1.873      2.992
REMARK  Name = Lactitol
REMARK  17 active torsions:
REMARK  status: ('A' for Active; 'I' for Inactive)
REMARK    1  A    between atoms: O_1  and  C_2
REMARK    2  A    between atoms: C_2  and  C_3
REMARK    3  A    between atoms: C_3  and  O_4
REMARK    4  A    between atoms: C_3  and  C_5
REMARK    5  A    between atoms: C_5  and  O_6
REMARK    6  A    between atoms: C_5  and  C_7
REMARK    7  A    between atoms: C_7  and  O_8
REMARK    8  A    between atoms: C_7  and  C_20
REMARK    9  A    between atoms: O_8  and  C_9
REMARK   10  A    between atoms: C_11  and  C_12
REMARK   11  A    between atoms: C_12  and  O_13
REMARK   12  A    between atoms: C_14  and  O_15
REMARK   13  A    between atoms: C_16  and  O_17
REMARK   14  A    between atoms: C_18  and  O_19
REMARK   15  A    between atoms: C_20  and  O_21
REMARK   16  A    between atoms: C_20  and  C_22
REMARK   17  A    between atoms: C_22  and  O_23
REMARK                            x       y       z     vdW  Elec       q    Type
REMARK                         _______ _______ _______ _____ _____    ______ ____
ROOT
ATOM      1  C   UNL     1      -7.620   3.465 128.596  0.00  0.00    +0.000 C 
ENDROOT
BRANCH   1   2
ATOM      2  C   UNL     1      -6.407   3.177 129.598  0.00  0.00    +0.000 C 
BRANCH   2   3
ATOM      3  O   UNL     1      -6.633   2.573 130.858  0.00  0.00    +0.000 OA
ATOM      4  H   UNL     1      -5.787   2.224 131.190  0.00  0.00    +0.000 HD
ENDBRANCH   2   3
BRANCH   2   5
ATOM      5  C   UNL     1      -5.662   4.536 129.707  0.00  0.00    +0.000 C 
BRANCH   5   6
ATOM      6  O   UNL     1      -6.713   5.451 129.508  0.00  0.00    +0.000 OA
ATOM      7  H   UNL     1      -6.782   6.312 129.043  0.00  0.00    +0.000 HD
ENDBRANCH   5   6
ENDBRANCH   2   5
ENDBRANCH   1   2
BRANCH   1   8
ATOM      8  O   UNL     1      -8.840   3.010 129.492  0.00  0.00    +0.000 OA
BRANCH   8   9
ATOM      9  C   UNL     1      -9.723   4.101 130.027  0.00  0.00    +0.000 C 
ATOM     10  O   UNL     1      -9.551   5.384 129.297  0.00  0.00    +0.000 OA
ATOM     11  C   UNL     1     -10.721   6.338 129.084  0.00  0.00    +0.000 C 
ATOM     12  C   UNL     1     -10.393   6.977 130.376  0.00  0.00    +0.000 C 
ATOM     13  C   UNL     1     -10.501   5.832 131.492  0.00  0.00    +0.000 C 
ATOM     14  C   UNL     1      -9.526   4.564 131.410  0.00  0.00    +0.000 C 
BRANCH  14  15
ATOM     15  O   UNL     1      -9.892   3.527 132.329  0.00  0.00    +0.000 OA
ATOM     16  H   UNL     1      -9.447   3.677 133.184  0.00  0.00    +0.000 HD
ENDBRANCH  14  15
BRANCH  12  17
ATOM     17  O   UNL     1      -9.020   7.411 130.243  0.00  0.00    +0.000 OA
ATOM     18  H   UNL     1      -9.088   8.390 130.102  0.00  0.00    +0.000 HD
ENDBRANCH  12  17
BRANCH  13  19
ATOM     19  O   UNL     1     -10.208   6.465 132.711  0.00  0.00    +0.000 OA
ATOM     20  H   UNL     1     -10.109   5.697 133.309  0.00  0.00    +0.000 HD
ENDBRANCH  13  19
BRANCH  11  21
ATOM     21  C   UNL     1     -10.570   7.282 127.771  0.00  0.00    +0.000 C 
BRANCH  21  22
ATOM     22  O   UNL     1     -10.418   6.722 126.441  0.00  0.00    +0.000 OA
ATOM     23  H   UNL     1      -9.518   6.702 126.085  0.00  0.00    +0.000 HD
ENDBRANCH  21  22
ENDBRANCH  11  21
ENDBRANCH   8   9
ENDBRANCH   1   8
BRANCH   1  24
ATOM     24  C   UNL     1      -7.714   2.745 126.968  0.00  0.00    +0.000 C 
BRANCH  24  25
ATOM     25  O   UNL     1      -8.943   1.982 126.891  0.00  0.00    +0.000 OA
ATOM     26  H   UNL     1      -9.625   2.690 126.931  0.00  0.00    +0.000 HD
ENDBRANCH  24  25
BRANCH  24  27
ATOM     27  C   UNL     1      -7.737   3.596 125.464  0.00  0.00    +0.000 C 
BRANCH  27  28
ATOM     28  O   UNL     1      -9.050   4.252 125.420  0.00  0.00    +0.000 OA
ATOM     29  H   UNL     1      -9.055   4.606 126.363  0.00  0.00    +0.000 HD
ENDBRANCH  27  28
BRANCH  27  30
ATOM     30  C   UNL     1      -6.772   4.731 125.338  0.00  0.00    +0.000 C 
BRANCH  30  31
ATOM     31  O   UNL     1      -7.939   5.699 125.256  0.00  0.00    +0.000 OA
ATOM     32  H   UNL     1      -8.759   5.640 125.625  0.00  0.00    +0.000 HD
ENDBRANCH  30  31
ENDBRANCH  27  30
ENDBRANCH  24  27
ENDBRANCH   1  24
TORSDOF 17
ENDMDL
MODEL 6
REMARK VINA RESULT:      -6.0      2.814      5.681
REMARK  Name = Lactitol
REMARK  17 active torsions:
REMARK  status: ('A' for Active; 'I' for Inactive)
REMARK    1  A    between atoms: O_1  and  C_2
REMARK    2  A    between atoms: C_2  and  C_3
REMARK    3  A    between atoms: C_3  and  O_4
REMARK    4  A    between atoms: C_3  and  C_5
REMARK    5  A    between atoms: C_5  and  O_6
REMARK    6  A    between atoms: C_5  and  C_7
REMARK    7  A    between atoms: C_7  and  O_8
REMARK    8  A    between atoms: C_7  and  C_20
REMARK    9  A    between atoms: O_8  and  C_9
REMARK   10  A    between atoms: C_11  and  C_12
REMARK   11  A    between atoms: C_12  and  O_13
REMARK   12  A    between atoms: C_14  and  O_15
REMARK   13  A    between atoms: C_16  and  O_17
REMARK   14  A    between atoms: C_18  and  O_19
REMARK   15  A    between atoms: C_20  and  O_21
REMARK   16  A    between atoms: C_20  and  C_22
REMARK   17  A    between atoms: C_22  and  O_23
REMARK                            x       y       z     vdW  Elec       q    Type
REMARK                         _______ _______ _______ _____ _____    ______ ____
ROOT
ATOM      1  C   UNL     1      -9.825   6.152 129.622  0.00  0.00    +0.000 C 
ENDROOT
BRANCH   1   2
ATOM      2  C   UNL     1     -11.002   5.432 130.431  0.00  0.00    +0.000 C 
BRANCH   2   3
ATOM      3  O   UNL     1     -12.148   4.940 129.763  0.00  0.00    +0.000 OA
ATOM      4  H   UNL     1     -11.865   4.274 129.112  0.00  0.00    +0.000 HD
ENDBRANCH   2   3
BRANCH   2   5
ATOM      5  C   UNL     1     -11.352   6.426 131.574  0.00  0.00    +0.000 C 
BRANCH   5   6
ATOM      6  O   UNL     1     -10.907   5.719 132.707  0.00  0.00    +0.000 OA
ATOM      7  H   UNL     1     -10.687   5.984 133.626  0.00  0.00    +0.000 HD
ENDBRANCH   5   6
ENDBRANCH   2   5
ENDBRANCH   1   2
BRANCH   1   8
ATOM      8  O   UNL     1      -9.125   6.951 130.794  0.00  0.00    +0.000 OA
BRANCH   8   9
ATOM      9  C   UNL     1      -7.787   6.442 131.246  0.00  0.00    +0.000 C 
ATOM     10  O   UNL     1      -6.679   6.879 130.358  0.00  0.00    +0.000 OA
ATOM     11  C   UNL     1      -5.289   7.176 130.909  0.00  0.00    +0.000 C 
ATOM     12  C   UNL     1      -4.944   5.751 130.714  0.00  0.00    +0.000 C 
ATOM     13  C   UNL     1      -5.981   4.906 131.597  0.00  0.00    +0.000 C 
ATOM     14  C   UNL     1      -7.544   4.991 131.264  0.00  0.00    +0.000 C 
BRANCH  14  15
ATOM     15  O   UNL     1      -8.357   4.372 132.271  0.00  0.00    +0.000 OA
ATOM     16  H   UNL     1      -9.014   3.791 131.846  0.00  0.00    +0.000 HD
ENDBRANCH  14  15
BRANCH  12  17
ATOM     17  O   UNL     1      -5.169   5.498 129.308  0.00  0.00    +0.000 OA
ATOM     18  H   UNL     1      -6.063   5.888 129.131  0.00  0.00    +0.000 HD
ENDBRANCH  12  17
BRANCH  13  19
ATOM     19  O   UNL     1      -5.620   3.561 131.415  0.00  0.00    +0.000 OA
ATOM     20  H   UNL     1      -5.091   3.611 130.594  0.00  0.00    +0.000 HD
ENDBRANCH  13  19
BRANCH  11  21
ATOM     21  C   UNL     1      -4.440   8.236 130.019  0.00  0.00    +0.000 C 
BRANCH  21  22
ATOM     22  O   UNL     1      -4.041   7.941 128.656  0.00  0.00    +0.000 OA
ATOM     23  H   UNL     1      -3.485   8.604 128.220  0.00  0.00    +0.000 HD
ENDBRANCH  21  22
ENDBRANCH  11  21
ENDBRANCH   8   9
ENDBRANCH   1   8
BRANCH   1  24
ATOM     24  C   UNL     1     -10.128   7.207 128.217  0.00  0.00    +0.000 C 
BRANCH  24  25
ATOM     25  O   UNL     1      -9.742   6.479 127.026  0.00  0.00    +0.000 OA
ATOM     26  H   UNL     1     -10.312   6.894 126.339  0.00  0.00    +0.000 HD
ENDBRANCH  24  25
BRANCH  24  27
ATOM     27  C   UNL     1     -11.649   7.875 127.739  0.00  0.00    +0.000 C 
BRANCH  27  28
ATOM     28  O   UNL     1     -12.510   6.713 127.483  0.00  0.00    +0.000 OA
ATOM     29  H   UNL     1     -12.831   6.574 128.428  0.00  0.00    +0.000 HD
ENDBRANCH  27  28
BRANCH  27  30
ATOM     30  C   UNL     1     -12.390   8.637 128.792  0.00  0.00    +0.000 C 
BRANCH  30  31
ATOM     31  O   UNL     1     -13.429   7.531 128.844  0.00  0.00    +0.000 OA
ATOM     32  H   UNL     1     -14.328   7.591 128.868  0.00  0.00    +0.000 HD
ENDBRANCH  30  31
ENDBRANCH  27  30
ENDBRANCH  24  27
ENDBRANCH   1  24
TORSDOF 17
ENDMDL
MODEL 7
REMARK VINA RESULT:      -5.9      4.590      8.138
REMARK  Name = Lactitol
REMARK  17 active torsions:
REMARK  status: ('A' for Active; 'I' for Inactive)
REMARK    1  A    between atoms: O_1  and  C_2
REMARK    2  A    between atoms: C_2  and  C_3
REMARK    3  A    between atoms: C_3  and  O_4
REMARK    4  A    between atoms: C_3  and  C_5
REMARK    5  A    between atoms: C_5  and  O_6
REMARK    6  A    between atoms: C_5  and  C_7
REMARK    7  A    between atoms: C_7  and  O_8
REMARK    8  A    between atoms: C_7  and  C_20
REMARK    9  A    between atoms: O_8  and  C_9
REMARK   10  A    between atoms: C_11  and  C_12
REMARK   11  A    between atoms: C_12  and  O_13
REMARK   12  A    between atoms: C_14  and  O_15
REMARK   13  A    between atoms: C_16  and  O_17
REMARK   14  A    between atoms: C_18  and  O_19
REMARK   15  A    between atoms: C_20  and  O_21
REMARK   16  A    between atoms: C_20  and  C_22
REMARK   17  A    between atoms: C_22  and  O_23
REMARK                            x       y       z     vdW  Elec       q    Type
REMARK                         _______ _______ _______ _____ _____    ______ ____
ROOT
ATOM      1  C   UNL     1      -7.791  -0.310 124.420  0.00  0.00    +0.000 C 
ENDROOT
BRANCH   1   2
ATOM      2  C   UNL     1      -7.736  -1.908 124.373  0.00  0.00    +0.000 C 
BRANCH   2   3
ATOM      3  O   UNL     1      -8.174  -2.617 123.229  0.00  0.00    +0.000 OA
ATOM      4  H   UNL     1      -8.020  -2.064 122.443  0.00  0.00    +0.000 HD
ENDBRANCH   2   3
BRANCH   2   5
ATOM      5  C   UNL     1      -8.455  -2.361 125.674  0.00  0.00    +0.000 C 
BRANCH   5   6
ATOM      6  O   UNL     1      -9.805  -2.330 125.275  0.00  0.00    +0.000 OA
ATOM      7  H   UNL     1     -10.519  -3.003 125.252  0.00  0.00    +0.000 HD
ENDBRANCH   5   6
ENDBRANCH   2   5
ENDBRANCH   1   2
BRANCH   1   8
ATOM      8  O   UNL     1      -8.041  -0.083 125.965  0.00  0.00    +0.000 OA
BRANCH   8   9
ATOM      9  C   UNL     1      -7.010   0.724 126.699  0.00  0.00    +0.000 C 
ATOM     10  O   UNL     1      -7.297   2.181 126.670  0.00  0.00    +0.000 OA
ATOM     11  C   UNL     1      -6.942   3.085 127.845  0.00  0.00    +0.000 C 
ATOM     12  C   UNL     1      -5.608   3.289 127.242  0.00  0.00    +0.000 C 
ATOM     13  C   UNL     1      -4.932   1.841 127.126  0.00  0.00    +0.000 C 
ATOM     14  C   UNL     1      -5.623   0.726 126.208  0.00  0.00    +0.000 C 
BRANCH  14  15
ATOM     15  O   UNL     1      -5.040  -0.572 126.385  0.00  0.00    +0.000 OA
ATOM     16  H   UNL     1      -4.189  -0.486 126.853  0.00  0.00    +0.000 HD
ENDBRANCH  14  15
BRANCH  12  17
ATOM     17  O   UNL     1      -5.868   3.821 125.923  0.00  0.00    +0.000 OA
ATOM     18  H   UNL     1      -5.776   4.802 126.034  0.00  0.00    +0.000 HD
ENDBRANCH  12  17
BRANCH  13  19
ATOM     19  O   UNL     1      -3.660   2.061 126.574  0.00  0.00    +0.000 OA
ATOM     20  H   UNL     1      -3.785   2.929 126.139  0.00  0.00    +0.000 HD
ENDBRANCH  13  19
BRANCH  11  21
ATOM     21  C   UNL     1      -7.874   4.409 127.963  0.00  0.00    +0.000 C 
BRANCH  21  22
ATOM     22  O   UNL     1      -8.532   4.986 126.805  0.00  0.00    +0.000 OA
ATOM     23  H   UNL     1      -9.168   5.694 126.983  0.00  0.00    +0.000 HD
ENDBRANCH  21  22
ENDBRANCH  11  21
ENDBRANCH   8   9
ENDBRANCH   1   8
BRANCH   1  24
ATOM     24  C   UNL     1      -8.933   0.642 123.437  0.00  0.00    +0.000 C 
BRANCH  24  25
ATOM     25  O   UNL     1     -10.274   0.204 123.768  0.00  0.00    +0.000 OA
ATOM     26  H   UNL     1     -10.770   0.427 122.947  0.00  0.00    +0.000 HD
ENDBRANCH  24  25
BRANCH  24  27
ATOM     27  C   UNL     1      -9.115   2.361 123.445  0.00  0.00    +0.000 C 
BRANCH  27  28
ATOM     28  O   UNL     1      -9.354   2.710 124.852  0.00  0.00    +0.000 OA
ATOM     29  H   UNL     1     -10.360   2.650 124.835  0.00  0.00    +0.000 HD
ENDBRANCH  27  28
BRANCH  27  30
ATOM     30  C   UNL     1      -7.897   3.151 123.089  0.00  0.00    +0.000 C 
BRANCH  30  31
ATOM     31  O   UNL     1      -8.152   4.059 124.278  0.00  0.00    +0.000 OA
ATOM     32  H   UNL     1      -7.562   4.498 124.800  0.00  0.00    +0.000 HD
ENDBRANCH  30  31
ENDBRANCH  27  30
ENDBRANCH  24  27
ENDBRANCH   1  24
TORSDOF 17
ENDMDL
MODEL 8
REMARK VINA RESULT:      -5.7      5.486      8.890
REMARK  Name = Lactitol
REMARK  17 active torsions:
REMARK  status: ('A' for Active; 'I' for Inactive)
REMARK    1  A    between atoms: O_1  and  C_2
REMARK    2  A    between atoms: C_2  and  C_3
REMARK    3  A    between atoms: C_3  and  O_4
REMARK    4  A    between atoms: C_3  and  C_5
REMARK    5  A    between atoms: C_5  and  O_6
REMARK    6  A    between atoms: C_5  and  C_7
REMARK    7  A    between atoms: C_7  and  O_8
REMARK    8  A    between atoms: C_7  and  C_20
REMARK    9  A    between atoms: O_8  and  C_9
REMARK   10  A    between atoms: C_11  and  C_12
REMARK   11  A    between atoms: C_12  and  O_13
REMARK   12  A    between atoms: C_14  and  O_15
REMARK   13  A    between atoms: C_16  and  O_17
REMARK   14  A    between atoms: C_18  and  O_19
REMARK   15  A    between atoms: C_20  and  O_21
REMARK   16  A    between atoms: C_20  and  C_22
REMARK   17  A    between atoms: C_22  and  O_23
REMARK                            x       y       z     vdW  Elec       q    Type
REMARK                         _______ _______ _______ _____ _____    ______ ____
ROOT
ATOM      1  C   UNL     1      -8.863  -0.907 123.760  0.00  0.00    +0.000 C 
ENDROOT
BRANCH   1   2
ATOM      2  C   UNL     1      -8.946  -2.424 123.261  0.00  0.00    +0.000 C 
BRANCH   2   3
ATOM      3  O   UNL     1     -10.062  -3.234 123.576  0.00  0.00    +0.000 OA
ATOM      4  H   UNL     1     -10.692  -3.196 122.835  0.00  0.00    +0.000 HD
ENDBRANCH   2   3
BRANCH   2   5
ATOM      5  C   UNL     1      -7.598  -3.055 123.709  0.00  0.00    +0.000 C 
BRANCH   5   6
ATOM      6  O   UNL     1      -8.039  -4.091 124.554  0.00  0.00    +0.000 OA
ATOM      7  H   UNL     1      -8.827  -4.677 124.552  0.00  0.00    +0.000 HD
ENDBRANCH   5   6
ENDBRANCH   2   5
ENDBRANCH   1   2
BRANCH   1   8
ATOM      8  O   UNL     1      -9.641  -1.020 125.133  0.00  0.00    +0.000 OA
BRANCH   8   9
ATOM      9  C   UNL     1      -8.861  -0.694 126.374  0.00  0.00    +0.000 C 
ATOM     10  O   UNL     1      -7.992   0.499 126.206  0.00  0.00    +0.000 OA
ATOM     11  C   UNL     1      -7.721   1.453 127.364  0.00  0.00    +0.000 C 
ATOM     12  C   UNL     1      -6.568   0.610 127.746  0.00  0.00    +0.000 C 
ATOM     13  C   UNL     1      -7.151  -0.852 128.046  0.00  0.00    +0.000 C 
ATOM     14  C   UNL     1      -7.872  -1.664 126.870  0.00  0.00    +0.000 C 
BRANCH  14  15
ATOM     15  O   UNL     1      -8.538  -2.843 127.343  0.00  0.00    +0.000 OA
ATOM     16  H   UNL     1      -8.660  -3.466 126.603  0.00  0.00    +0.000 HD
ENDBRANCH  14  15
BRANCH  12  17
ATOM     17  O   UNL     1      -5.723   0.576 126.573  0.00  0.00    +0.000 OA
ATOM     18  H   UNL     1      -5.750   1.504 126.226  0.00  0.00    +0.000 HD
ENDBRANCH  12  17
BRANCH  13  19
ATOM     19  O   UNL     1      -6.044  -1.627 128.429  0.00  0.00    +0.000 OA
ATOM     20  H   UNL     1      -5.418  -0.937 128.728  0.00  0.00    +0.000 HD
ENDBRANCH  13  19
BRANCH  11  21
ATOM     21  C   UNL     1      -7.365   2.968 126.900  0.00  0.00    +0.000 C 
BRANCH  21  22
ATOM     22  O   UNL     1      -8.402   3.941 126.608  0.00  0.00    +0.000 OA
ATOM     23  H   UNL     1      -8.639   4.047 125.676  0.00  0.00    +0.000 HD
ENDBRANCH  21  22
ENDBRANCH  11  21
ENDBRANCH   8   9
ENDBRANCH   1   8
BRANCH   1  24
ATOM     24  C   UNL     1      -9.467   0.460 122.789  0.00  0.00    +0.000 C 
BRANCH  24  25
ATOM     25  O   UNL     1     -10.911   0.363 122.738  0.00  0.00    +0.000 OA
ATOM     26  H   UNL     1     -11.048  -0.608 122.663  0.00  0.00    +0.000 HD
ENDBRANCH  24  25
BRANCH  24  27
ATOM     27  C   UNL     1      -9.242   2.141 123.124  0.00  0.00    +0.000 C 
BRANCH  27  28
ATOM     28  O   UNL     1      -9.758   2.329 124.486  0.00  0.00    +0.000 OA
ATOM     29  H   UNL     1      -9.546   1.409 124.837  0.00  0.00    +0.000 HD
ENDBRANCH  27  28
BRANCH  27  30
ATOM     30  C   UNL     1      -7.824   2.607 123.217  0.00  0.00    +0.000 C 
BRANCH  30  31
ATOM     31  O   UNL     1      -8.311   3.951 123.726  0.00  0.00    +0.000 OA
ATOM     32  H   UNL     1      -7.875   4.571 124.215  0.00  0.00    +0.000 HD
ENDBRANCH  30  31
ENDBRANCH  27  30
ENDBRANCH  24  27
ENDBRANCH   1  24
TORSDOF 17
ENDMDL
MODEL 9
REMARK VINA RESULT:      -5.7      1.781      5.374
REMARK  Name = Lactitol
REMARK  17 active torsions:
REMARK  status: ('A' for Active; 'I' for Inactive)
REMARK    1  A    between atoms: O_1  and  C_2
REMARK    2  A    between atoms: C_2  and  C_3
REMARK    3  A    between atoms: C_3  and  O_4
REMARK    4  A    between atoms: C_3  and  C_5
REMARK    5  A    between atoms: C_5  and  O_6
REMARK    6  A    between atoms: C_5  and  C_7
REMARK    7  A    between atoms: C_7  and  O_8
REMARK    8  A    between atoms: C_7  and  C_20
REMARK    9  A    between atoms: O_8  and  C_9
REMARK   10  A    between atoms: C_11  and  C_12
REMARK   11  A    between atoms: C_12  and  O_13
REMARK   12  A    between atoms: C_14  and  O_15
REMARK   13  A    between atoms: C_16  and  O_17
REMARK   14  A    between atoms: C_18  and  O_19
REMARK   15  A    between atoms: C_20  and  O_21
REMARK   16  A    between atoms: C_20  and  C_22
REMARK   17  A    between atoms: C_22  and  O_23
REMARK                            x       y       z     vdW  Elec       q    Type
REMARK                         _______ _______ _______ _____ _____    ______ ____
ROOT
ATOM      1  C   UNL     1      -9.582   6.160 129.958  0.00  0.00    +0.000 C 
ENDROOT
BRANCH   1   2
ATOM      2  C   UNL     1      -9.692   6.588 131.496  0.00  0.00    +0.000 C 
BRANCH   2   3
ATOM      3  O   UNL     1      -8.664   6.268 132.415  0.00  0.00    +0.000 OA
ATOM      4  H   UNL     1      -7.870   6.011 131.914  0.00  0.00    +0.000 HD
ENDBRANCH   2   3
BRANCH   2   5
ATOM      5  C   UNL     1     -11.085   6.067 131.946  0.00  0.00    +0.000 C 
BRANCH   5   6
ATOM      6  O   UNL     1     -11.307   5.024 131.026  0.00  0.00    +0.000 OA
ATOM      7  H   UNL     1     -11.967   4.879 130.314  0.00  0.00    +0.000 HD
ENDBRANCH   5   6
ENDBRANCH   2   5
ENDBRANCH   1   2
BRANCH   1   8
ATOM      8  O   UNL     1      -8.014   6.021 129.816  0.00  0.00    +0.000 OA
BRANCH   8   9
ATOM      9  C   UNL     1      -7.496   4.677 129.393  0.00  0.00    +0.000 C 
ATOM     10  O   UNL     1      -8.163   4.167 128.168  0.00  0.00    +0.000 OA
ATOM     11  C   UNL     1      -7.410   3.320 127.147  0.00  0.00    +0.000 C 
ATOM     12  C   UNL     1      -7.793   2.115 127.913  0.00  0.00    +0.000 C 
ATOM     13  C   UNL     1      -7.190   2.300 129.386  0.00  0.00    +0.000 C 
ATOM     14  C   UNL     1      -7.687   3.525 130.289  0.00  0.00    +0.000 C 
BRANCH  14  15
ATOM     15  O   UNL     1      -6.898   3.692 131.474  0.00  0.00    +0.000 OA
ATOM     16  H   UNL     1      -7.228   3.094 132.171  0.00  0.00    +0.000 HD
ENDBRANCH  14  15
BRANCH  12  17
ATOM     17  O   UNL     1      -9.238   2.144 127.962  0.00  0.00    +0.000 OA
ATOM     18  H   UNL     1      -9.472   3.070 127.696  0.00  0.00    +0.000 HD
ENDBRANCH  12  17
BRANCH  13  19
ATOM     19  O   UNL     1      -7.545   1.135 130.087  0.00  0.00    +0.000 OA
ATOM     20  H   UNL     1      -8.518   1.140 129.990  0.00  0.00    +0.000 HD
ENDBRANCH  13  19
BRANCH  11  21
ATOM     21  C   UNL     1      -8.007   3.419 125.641  0.00  0.00    +0.000 C 
BRANCH  21  22
ATOM     22  O   UNL     1      -8.854   4.522 125.225  0.00  0.00    +0.000 OA
ATOM     23  H   UNL     1      -8.446   5.179 124.642  0.00  0.00    +0.000 HD
ENDBRANCH  21  22
ENDBRANCH  11  21
ENDBRANCH   8   9
ENDBRANCH   1   8
BRANCH   1  24
ATOM     24  C   UNL     1     -10.264   7.143 128.636  0.00  0.00    +0.000 C 
BRANCH  24  25
ATOM     25  O   UNL     1      -9.951   6.481 127.387  0.00  0.00    +0.000 OA
ATOM     26  H   UNL     1      -9.487   5.670 127.695  0.00  0.00    +0.000 HD
ENDBRANCH  24  25
BRANCH  24  27
ATOM     27  C   UNL     1     -11.928   7.550 128.407  0.00  0.00    +0.000 C 
BRANCH  27  28
ATOM     28  O   UNL     1     -12.651   6.278 128.533  0.00  0.00    +0.000 OA
ATOM     29  H   UNL     1     -11.915   5.749 128.971  0.00  0.00    +0.000 HD
ENDBRANCH  27  28
BRANCH  27  30
ATOM     30  C   UNL     1     -12.543   8.411 129.464  0.00  0.00    +0.000 C 
BRANCH  30  31
ATOM     31  O   UNL     1     -12.869   9.454 128.409  0.00  0.00    +0.000 OA
ATOM     32  H   UNL     1     -12.678   9.456 127.529  0.00  0.00    +0.000 HD
ENDBRANCH  30  31
ENDBRANCH  27  30
ENDBRANCH  24  27
ENDBRANCH   1  24
TORSDOF 17
ENDMDL
