MODEL 1
REMARK VINA RESULT:      -3.8      0.000      0.000
REMARK  Name = Lactic acid
REMARK  4 active torsions:
REMARK  status: ('A' for Active; 'I' for Inactive)
REMARK    1  A    between atoms: C_1  and  C_2
REMARK    2  A    between atoms: C_2  and  O_3
REMARK    3  A    between atoms: C_2  and  C_4
REMARK    4  A    between atoms: C_4  and  O_5
REMARK                            x       y       z     vdW  Elec       q    Type
REMARK                         _______ _______ _______ _____ _____    ______ ____
ROOT
ATOM      1  C   UNL     1     -12.162   8.588 128.305  0.00  0.00    +0.000 C 
ATOM      2  C   UNL     1     -10.811   8.293 127.677  0.00  0.00    +0.000 C 
ENDROOT
BRANCH   2   3
ATOM      3  O   UNL     1      -9.865   8.146 128.732  0.00  0.00    +0.000 OA
ATOM      4  H   UNL     1      -9.616   7.208 128.786  0.00  0.00    +0.000 HD
ENDBRANCH   2   3
BRANCH   2   5
ATOM      5  C   UNL     1     -10.793   7.102 126.695  0.00  0.00    +0.000 C 
ATOM      6  O   UNL     1      -9.776   6.462 126.444  0.00  0.00    +0.000 OA
BRANCH   5   7
ATOM      7  O   UNL     1     -11.972   6.755 126.134  0.00  0.00    +0.000 OA
ATOM      8  H   UNL     1     -12.277   7.259 125.360  0.00  0.00    +0.000 HD
ENDBRANCH   5   7
ENDBRANCH   2   5
TORSDOF 3
ENDMDL
MODEL 2
REMARK VINA RESULT:      -3.7      9.144      9.690
REMARK  Name = Lactic acid
REMARK  4 active torsions:
REMARK  status: ('A' for Active; 'I' for Inactive)
REMARK    1  A    between atoms: C_1  and  C_2
REMARK    2  A    between atoms: C_2  and  O_3
REMARK    3  A    between atoms: C_2  and  C_4
REMARK    4  A    between atoms: C_4  and  O_5
REMARK                            x       y       z     vdW  Elec       q    Type
REMARK                         _______ _______ _______ _____ _____    ______ ____
ROOT
ATOM      1  C   UNL     1      -6.930   4.442 119.475  0.00  0.00    +0.000 C 
ATOM      2  C   UNL     1      -5.516   4.995 119.450  0.00  0.00    +0.000 C 
ENDROOT
BRANCH   2   3
ATOM      3  O   UNL     1      -5.539   6.211 118.709  0.00  0.00    +0.000 OA
ATOM      4  H   UNL     1      -4.634   6.566 118.681  0.00  0.00    +0.000 HD
ENDBRANCH   2   3
BRANCH   2   5
ATOM      5  C   UNL     1      -4.853   5.158 120.835  0.00  0.00    +0.000 C 
ATOM      6  O   UNL     1      -4.909   4.295 121.706  0.00  0.00    +0.000 OA
BRANCH   5   7
ATOM      7  O   UNL     1      -4.159   6.297 121.050  0.00  0.00    +0.000 OA
ATOM      8  H   UNL     1      -3.211   6.223 121.258  0.00  0.00    +0.000 HD
ENDBRANCH   5   7
ENDBRANCH   2   5
TORSDOF 3
ENDMDL
MODEL 3
REMARK VINA RESULT:      -3.6      8.672      9.487
REMARK  Name = Lactic acid
REMARK  4 active torsions:
REMARK  status: ('A' for Active; 'I' for Inactive)
REMARK    1  A    between atoms: C_1  and  C_2
REMARK    2  A    between atoms: C_2  and  O_3
REMARK    3  A    between atoms: C_2  and  C_4
REMARK    4  A    between atoms: C_4  and  O_5
REMARK                            x       y       z     vdW  Elec       q    Type
REMARK                         _______ _______ _______ _____ _____    ______ ____
ROOT
ATOM      1  C   UNL     1      -5.633   3.990 121.862  0.00  0.00    +0.000 C 
ATOM      2  C   UNL     1      -5.987   4.128 120.391  0.00  0.00    +0.000 C 
ENDROOT
BRANCH   2   3
ATOM      3  O   UNL     1      -7.402   4.013 120.274  0.00  0.00    +0.000 OA
ATOM      4  H   UNL     1      -7.762   3.790 121.149  0.00  0.00    +0.000 HD
ENDBRANCH   2   3
BRANCH   2   5
ATOM      5  C   UNL     1      -5.438   5.397 119.703  0.00  0.00    +0.000 C 
ATOM      6  O   UNL     1      -5.741   5.717 118.558  0.00  0.00    +0.000 OA
BRANCH   5   7
ATOM      7  O   UNL     1      -4.618   6.183 120.436  0.00  0.00    +0.000 OA
ATOM      8  H   UNL     1      -4.124   5.773 121.167  0.00  0.00    +0.000 HD
ENDBRANCH   5   7
ENDBRANCH   2   5
TORSDOF 3
ENDMDL
MODEL 4
REMARK VINA RESULT:      -3.6      1.626      2.696
REMARK  Name = Lactic acid
REMARK  4 active torsions:
REMARK  status: ('A' for Active; 'I' for Inactive)
REMARK    1  A    between atoms: C_1  and  C_2
REMARK    2  A    between atoms: C_2  and  O_3
REMARK    3  A    between atoms: C_2  and  C_4
REMARK    4  A    between atoms: C_4  and  O_5
REMARK                            x       y       z     vdW  Elec       q    Type
REMARK                         _______ _______ _______ _____ _____    ______ ____
ROOT
ATOM      1  C   UNL     1     -13.748   7.179 127.730  0.00  0.00    +0.000 C 
ATOM      2  C   UNL     1     -12.241   7.080 127.574  0.00  0.00    +0.000 C 
ENDROOT
BRANCH   2   3
ATOM      3  O   UNL     1     -11.968   6.735 126.219  0.00  0.00    +0.000 OA
ATOM      4  H   UNL     1     -12.412   7.383 125.646  0.00  0.00    +0.000 HD
ENDBRANCH   2   3
BRANCH   2   5
ATOM      5  C   UNL     1     -11.453   8.325 128.038  0.00  0.00    +0.000 C 
ATOM      6  O   UNL     1     -10.232   8.409 127.953  0.00  0.00    +0.000 OA
BRANCH   5   7
ATOM      7  O   UNL     1     -12.176   9.361 128.518  0.00  0.00    +0.000 OA
ATOM      8  H   UNL     1     -11.711  10.194 128.709  0.00  0.00    +0.000 HD
ENDBRANCH   5   7
ENDBRANCH   2   5
TORSDOF 3
ENDMDL
MODEL 5
REMARK VINA RESULT:      -3.4      9.357      9.848
REMARK  Name = Lactic acid
REMARK  4 active torsions:
REMARK  status: ('A' for Active; 'I' for Inactive)
REMARK    1  A    between atoms: C_1  and  C_2
REMARK    2  A    between atoms: C_2  and  O_3
REMARK    3  A    between atoms: C_2  and  C_4
REMARK    4  A    between atoms: C_4  and  O_5
REMARK                            x       y       z     vdW  Elec       q    Type
REMARK                         _______ _______ _______ _____ _____    ______ ____
ROOT
ATOM      1  C   UNL     1      -5.042   3.684 120.780  0.00  0.00    +0.000 C 
ATOM      2  C   UNL     1      -5.617   5.030 120.374  0.00  0.00    +0.000 C 
ENDROOT
BRANCH   2   3
ATOM      3  O   UNL     1      -4.586   6.002 120.516  0.00  0.00    +0.000 OA
ATOM      4  H   UNL     1      -4.188   6.152 119.641  0.00  0.00    +0.000 HD
ENDBRANCH   2   3
BRANCH   2   5
ATOM      5  C   UNL     1      -6.276   5.065 118.977  0.00  0.00    +0.000 C 
ATOM      6  O   UNL     1      -7.282   4.420 118.700  0.00  0.00    +0.000 OA
BRANCH   5   7
ATOM      7  O   UNL     1      -5.713   5.878 118.057  0.00  0.00    +0.000 OA
ATOM      8  H   UNL     1      -5.396   5.481 117.227  0.00  0.00    +0.000 HD
ENDBRANCH   5   7
ENDBRANCH   2   5
TORSDOF 3
ENDMDL
MODEL 6
REMARK VINA RESULT:      -3.4      1.553      1.797
REMARK  Name = Lactic acid
REMARK  4 active torsions:
REMARK  status: ('A' for Active; 'I' for Inactive)
REMARK    1  A    between atoms: C_1  and  C_2
REMARK    2  A    between atoms: C_2  and  O_3
REMARK    3  A    between atoms: C_2  and  C_4
REMARK    4  A    between atoms: C_4  and  O_5
REMARK                            x       y       z     vdW  Elec       q    Type
REMARK                         _______ _______ _______ _____ _____    ______ ____
ROOT
ATOM      1  C   UNL     1     -13.168   7.146 129.030  0.00  0.00    +0.000 C 
ATOM      2  C   UNL     1     -12.563   8.010 127.937  0.00  0.00    +0.000 C 
ENDROOT
BRANCH   2   3
ATOM      3  O   UNL     1     -12.412   9.327 128.459  0.00  0.00    +0.000 OA
ATOM      4  H   UNL     1     -12.715   9.323 129.382  0.00  0.00    +0.000 HD
ENDBRANCH   2   3
BRANCH   2   5
ATOM      5  C   UNL     1     -11.257   7.465 127.320  0.00  0.00    +0.000 C 
ATOM      6  O   UNL     1     -10.149   7.698 127.793  0.00  0.00    +0.000 OA
BRANCH   5   7
ATOM      7  O   UNL     1     -11.380   6.671 126.233  0.00  0.00    +0.000 OA
ATOM      8  H   UNL     1     -12.274   6.500 125.890  0.00  0.00    +0.000 HD
ENDBRANCH   5   7
ENDBRANCH   2   5
TORSDOF 3
ENDMDL
MODEL 7
REMARK VINA RESULT:      -3.3      6.577      7.322
REMARK  Name = Lactic acid
REMARK  4 active torsions:
REMARK  status: ('A' for Active; 'I' for Inactive)
REMARK    1  A    between atoms: C_1  and  C_2
REMARK    2  A    between atoms: C_2  and  O_3
REMARK    3  A    between atoms: C_2  and  C_4
REMARK    4  A    between atoms: C_4  and  O_5
REMARK                            x       y       z     vdW  Elec       q    Type
REMARK                         _______ _______ _______ _____ _____    ______ ____
ROOT
ATOM      1  C   UNL     1      -8.736   2.748 122.511  0.00  0.00    +0.000 C 
ATOM      2  C   UNL     1      -9.305   1.892 123.628  0.00  0.00    +0.000 C 
ENDROOT
BRANCH   2   3
ATOM      3  O   UNL     1      -9.490   2.730 124.765  0.00  0.00    +0.000 OA
ATOM      4  H   UNL     1      -9.439   2.176 125.562  0.00  0.00    +0.000 HD
ENDBRANCH   2   3
BRANCH   2   5
ATOM      5  C   UNL     1     -10.581   1.102 123.261  0.00  0.00    +0.000 C 
ATOM      6  O   UNL     1     -10.607   0.256 122.374  0.00  0.00    +0.000 OA
BRANCH   5   7
ATOM      7  O   UNL     1     -11.687   1.355 123.995  0.00  0.00    +0.000 OA
ATOM      8  H   UNL     1     -11.578   1.814 124.846  0.00  0.00    +0.000 HD
ENDBRANCH   5   7
ENDBRANCH   2   5
TORSDOF 3
ENDMDL
MODEL 8
REMARK VINA RESULT:      -3.3      4.273      4.753
REMARK  Name = Lactic acid
REMARK  4 active torsions:
REMARK  status: ('A' for Active; 'I' for Inactive)
REMARK    1  A    between atoms: C_1  and  C_2
REMARK    2  A    between atoms: C_2  and  O_3
REMARK    3  A    between atoms: C_2  and  C_4
REMARK    4  A    between atoms: C_4  and  O_5
REMARK                            x       y       z     vdW  Elec       q    Type
REMARK                         _______ _______ _______ _____ _____    ______ ____
ROOT
ATOM      1  C   UNL     1      -8.904   6.814 130.988  0.00  0.00    +0.000 C 
ATOM      2  C   UNL     1      -9.879   5.920 131.735  0.00  0.00    +0.000 C 
ENDROOT
BRANCH   2   3
ATOM      3  O   UNL     1      -9.976   6.406 133.070  0.00  0.00    +0.000 OA
ATOM      4  H   UNL     1      -9.224   6.056 133.576  0.00  0.00    +0.000 HD
ENDBRANCH   2   3
BRANCH   2   5
ATOM      5  C   UNL     1     -11.260   5.754 131.063  0.00  0.00    +0.000 C 
ATOM      6  O   UNL     1     -11.410   5.192 129.983  0.00  0.00    +0.000 OA
BRANCH   5   7
ATOM      7  O   UNL     1     -12.328   6.229 131.739  0.00  0.00    +0.000 OA
ATOM      8  H   UNL     1     -12.356   7.180 131.944  0.00  0.00    +0.000 HD
ENDBRANCH   5   7
ENDBRANCH   2   5
TORSDOF 3
ENDMDL
MODEL 9
REMARK VINA RESULT:      -3.2      3.950      4.215
REMARK  Name = Lactic acid
REMARK  4 active torsions:
REMARK  status: ('A' for Active; 'I' for Inactive)
REMARK    1  A    between atoms: C_1  and  C_2
REMARK    2  A    between atoms: C_2  and  O_3
REMARK    3  A    between atoms: C_2  and  C_4
REMARK    4  A    between atoms: C_4  and  O_5
REMARK                            x       y       z     vdW  Elec       q    Type
REMARK                         _______ _______ _______ _____ _____    ______ ____
ROOT
ATOM      1  C   UNL     1     -12.722   7.361 131.452  0.00  0.00    +0.000 C 
ATOM      2  C   UNL     1     -11.467   6.514 131.328  0.00  0.00    +0.000 C 
ENDROOT
BRANCH   2   3
ATOM      3  O   UNL     1     -11.138   6.034 132.628  0.00  0.00    +0.000 OA
ATOM      4  H   UNL     1     -11.498   5.136 132.720  0.00  0.00    +0.000 HD
ENDBRANCH   2   3
BRANCH   2   5
ATOM      5  C   UNL     1     -11.543   5.382 130.281  0.00  0.00    +0.000 C 
ATOM      6  O   UNL     1     -11.815   5.584 129.102  0.00  0.00    +0.000 OA
BRANCH   5   7
ATOM      7  O   UNL     1     -11.257   4.133 130.710  0.00  0.00    +0.000 OA
ATOM      8  H   UNL     1     -10.337   3.933 130.957  0.00  0.00    +0.000 HD
ENDBRANCH   5   7
ENDBRANCH   2   5
TORSDOF 3
ENDMDL
