MODEL 1
REMARK VINA RESULT:      -6.4      0.000      0.000
REMARK  Name = Lactose
REMARK  12 active torsions:
REMARK  status: ('A' for Active; 'I' for Inactive)
REMARK    1  A    between atoms: O_1  and  C_2
REMARK    2  A    between atoms: C_2  and  C_3
REMARK    3  A    between atoms: C_5  and  O_6
REMARK    4  A    between atoms: O_6  and  C_7
REMARK    5  A    between atoms: C_8  and  O_9
REMARK    6  A    between atoms: C_10  and  O_11
REMARK    7  A    between atoms: C_12  and  O_13
REMARK    8  A    between atoms: C_15  and  C_16
REMARK    9  A    between atoms: C_16  and  O_17
REMARK   10  A    between atoms: C_18  and  O_19
REMARK   11  A    between atoms: C_20  and  O_21
REMARK   12  A    between atoms: C_22  and  O_23
REMARK                            x       y       z     vdW  Elec       q    Type
REMARK                         _______ _______ _______ _____ _____    ______ ____
ROOT
ATOM      1  O   UNL     1      -9.564   5.295 129.183  0.00  0.00    +0.000 OA
ENDROOT
BRANCH   1   4
ATOM      2  C   UNL     1     -11.872   8.122 129.409  0.00  0.00    +0.000 C 
ATOM      3  O   UNL     1     -11.040   7.024 129.821  0.00  0.00    +0.000 OA
ATOM      4  C   UNL     1      -9.990   6.678 128.906  0.00  0.00    +0.000 C 
ATOM      5  C   UNL     1     -10.454   6.702 127.456  0.00  0.00    +0.000 C 
ATOM      6  C   UNL     1     -11.587   7.608 126.973  0.00  0.00    +0.000 C 
ATOM      7  C   UNL     1     -12.620   7.774 128.109  0.00  0.00    +0.000 C 
BRANCH   5   8
ATOM      8  O   UNL     1      -9.544   6.163 126.495  0.00  0.00    +0.000 OA
ATOM      9  H   UNL     1      -8.981   5.516 126.905  0.00  0.00    +0.000 HD
ENDBRANCH   5   8
BRANCH   6  10
ATOM     10  O   UNL     1     -12.254   7.101 125.799  0.00  0.00    +0.000 OA
ATOM     11  H   UNL     1     -11.853   7.527 125.008  0.00  0.00    +0.000 HD
ENDBRANCH   6  10
BRANCH   7  12
ATOM     12  O   UNL     1     -13.425   6.574 128.270  0.00  0.00    +0.000 OA
ATOM     13  H   UNL     1     -14.366   6.821 128.349  0.00  0.00    +0.000 HD
ENDBRANCH   7  12
BRANCH   2  14
ATOM     14  C   UNL     1     -12.909   8.390 130.509  0.00  0.00    +0.000 C 
BRANCH  14  15
ATOM     15  O   UNL     1     -13.129   7.232 131.299  0.00  0.00    +0.000 OA
ATOM     16  H   UNL     1     -12.427   7.221 131.973  0.00  0.00    +0.000 HD
ENDBRANCH  14  15
ENDBRANCH   2  14
ENDBRANCH   1   4
BRANCH   1  17
ATOM     17  C   UNL     1      -8.899   5.070 130.471  0.00  0.00    +0.000 C 
ATOM     18  C   UNL     1      -9.835   4.644 131.731  0.00  0.00    +0.000 C 
ATOM     19  C   UNL     1      -8.995   4.369 132.947  0.00  0.00    +0.000 C 
ATOM     20  C   UNL     1      -7.994   3.293 132.639  0.00  0.00    +0.000 C 
ATOM     21  O   UNL     1      -7.155   3.674 131.563  0.00  0.00    +0.000 OA
ATOM     22  C   UNL     1      -7.840   3.913 130.316  0.00  0.00    +0.000 C 
BRANCH  18  23
ATOM     23  O   UNL     1     -10.781   5.529 132.396  0.00  0.00    +0.000 OA
ATOM     24  H   UNL     1     -11.458   5.815 131.746  0.00  0.00    +0.000 HD
ENDBRANCH  18  23
BRANCH  19  25
ATOM     25  O   UNL     1      -9.835   3.992 134.053  0.00  0.00    +0.000 OA
ATOM     26  H   UNL     1     -10.454   3.318 133.709  0.00  0.00    +0.000 HD
ENDBRANCH  19  25
BRANCH  20  27
ATOM     27  O   UNL     1      -8.607   2.039 132.384  0.00  0.00    +0.000 OA
ATOM     28  H   UNL     1      -8.408   1.434 133.114  0.00  0.00    +0.000 HD
ENDBRANCH  20  27
BRANCH  22  29
ATOM     29  C   UNL     1      -6.722   4.159 129.282  0.00  0.00    +0.000 C 
BRANCH  29  30
ATOM     30  O   UNL     1      -7.175   4.663 128.036  0.00  0.00    +0.000 OA
ATOM     31  H   UNL     1      -8.144   4.593 128.017  0.00  0.00    +0.000 HD
ENDBRANCH  29  30
ENDBRANCH  22  29
ENDBRANCH   1  17
TORSDOF 12
ENDMDL
MODEL 2
REMARK VINA RESULT:      -6.2      1.754      3.724
REMARK  Name = Lactose
REMARK  12 active torsions:
REMARK  status: ('A' for Active; 'I' for Inactive)
REMARK    1  A    between atoms: O_1  and  C_2
REMARK    2  A    between atoms: C_2  and  C_3
REMARK    3  A    between atoms: C_5  and  O_6
REMARK    4  A    between atoms: O_6  and  C_7
REMARK    5  A    between atoms: C_8  and  O_9
REMARK    6  A    between atoms: C_10  and  O_11
REMARK    7  A    between atoms: C_12  and  O_13
REMARK    8  A    between atoms: C_15  and  C_16
REMARK    9  A    between atoms: C_16  and  O_17
REMARK   10  A    between atoms: C_18  and  O_19
REMARK   11  A    between atoms: C_20  and  O_21
REMARK   12  A    between atoms: C_22  and  O_23
REMARK                            x       y       z     vdW  Elec       q    Type
REMARK                         _______ _______ _______ _____ _____    ______ ____
ROOT
ATOM      1  O   UNL     1     -11.246   5.626 130.810  0.00  0.00    +0.000 OA
ENDROOT
BRANCH   1   4
ATOM      2  C   UNL     1     -11.784   7.173 127.540  0.00  0.00    +0.000 C 
ATOM      3  O   UNL     1     -11.251   6.292 128.544  0.00  0.00    +0.000 OA
ATOM      4  C   UNL     1     -12.084   6.107 129.698  0.00  0.00    +0.000 C 
ATOM      5  C   UNL     1     -12.718   7.408 130.170  0.00  0.00    +0.000 C 
ATOM      6  C   UNL     1     -13.021   8.566 129.217  0.00  0.00    +0.000 C 
ATOM      7  C   UNL     1     -11.951   8.596 128.103  0.00  0.00    +0.000 C 
BRANCH   5   8
ATOM      8  O   UNL     1     -13.385   7.362 131.433  0.00  0.00    +0.000 OA
ATOM      9  H   UNL     1     -12.965   6.727 132.001  0.00  0.00    +0.000 HD
ENDBRANCH   5   8
BRANCH   6  10
ATOM     10  O   UNL     1     -13.051   9.847 129.877  0.00  0.00    +0.000 OA
ATOM     11  H   UNL     1     -12.528   9.779 130.707  0.00  0.00    +0.000 HD
ENDBRANCH   6  10
BRANCH   7  12
ATOM     12  O   UNL     1     -10.687   9.116 128.600  0.00  0.00    +0.000 OA
ATOM     13  H   UNL     1     -10.859   9.804 129.270  0.00  0.00    +0.000 HD
ENDBRANCH   7  12
BRANCH   2  14
ATOM     14  C   UNL     1     -10.800   7.227 126.365  0.00  0.00    +0.000 C 
BRANCH  14  15
ATOM     15  O   UNL     1      -9.735   6.306 126.544  0.00  0.00    +0.000 OA
ATOM     16  H   UNL     1      -9.873   5.893 127.415  0.00  0.00    +0.000 HD
ENDBRANCH  14  15
ENDBRANCH   2  14
ENDBRANCH   1   4
BRANCH   1  17
ATOM     17  C   UNL     1      -9.836   5.377 130.494  0.00  0.00    +0.000 C 
ATOM     18  C   UNL     1      -8.789   6.597 130.736  0.00  0.00    +0.000 C 
ATOM     19  C   UNL     1      -7.381   6.154 130.446  0.00  0.00    +0.000 C 
ATOM     20  C   UNL     1      -7.034   4.976 131.309  0.00  0.00    +0.000 C 
ATOM     21  O   UNL     1      -7.924   3.897 131.078  0.00  0.00    +0.000 OA
ATOM     22  C   UNL     1      -9.308   4.180 131.374  0.00  0.00    +0.000 C 
BRANCH  18  23
ATOM     23  O   UNL     1      -8.733   7.812 129.934  0.00  0.00    +0.000 OA
ATOM     24  H   UNL     1      -8.528   7.569 129.005  0.00  0.00    +0.000 HD
ENDBRANCH  18  23
BRANCH  19  25
ATOM     25  O   UNL     1      -6.466   7.242 130.666  0.00  0.00    +0.000 OA
ATOM     26  H   UNL     1      -6.988   7.961 131.072  0.00  0.00    +0.000 HD
ENDBRANCH  19  25
BRANCH  20  27
ATOM     27  O   UNL     1      -6.988   5.307 132.688  0.00  0.00    +0.000 OA
ATOM     28  H   UNL     1      -6.077   5.532 132.931  0.00  0.00    +0.000 HD
ENDBRANCH  20  27
BRANCH  22  29
ATOM     29  C   UNL     1     -10.043   2.837 131.193  0.00  0.00    +0.000 C 
BRANCH  29  30
ATOM     30  O   UNL     1     -10.182   2.078 132.383  0.00  0.00    +0.000 OA
ATOM     31  H   UNL     1     -11.096   2.179 132.699  0.00  0.00    +0.000 HD
ENDBRANCH  29  30
ENDBRANCH  22  29
ENDBRANCH   1  17
TORSDOF 12
ENDMDL
MODEL 3
REMARK VINA RESULT:      -6.2      1.701      5.645
REMARK  Name = Lactose
REMARK  12 active torsions:
REMARK  status: ('A' for Active; 'I' for Inactive)
REMARK    1  A    between atoms: O_1  and  C_2
REMARK    2  A    between atoms: C_2  and  C_3
REMARK    3  A    between atoms: C_5  and  O_6
REMARK    4  A    between atoms: O_6  and  C_7
REMARK    5  A    between atoms: C_8  and  O_9
REMARK    6  A    between atoms: C_10  and  O_11
REMARK    7  A    between atoms: C_12  and  O_13
REMARK    8  A    between atoms: C_15  and  C_16
REMARK    9  A    between atoms: C_16  and  O_17
REMARK   10  A    between atoms: C_18  and  O_19
REMARK   11  A    between atoms: C_20  and  O_21
REMARK   12  A    between atoms: C_22  and  O_23
REMARK                            x       y       z     vdW  Elec       q    Type
REMARK                         _______ _______ _______ _____ _____    ______ ____
ROOT
ATOM      1  O   UNL     1      -8.989   6.618 129.280  0.00  0.00    +0.000 OA
ENDROOT
BRANCH   1   4
ATOM      2  C   UNL     1      -8.781   3.396 130.997  0.00  0.00    +0.000 C 
ATOM      3  O   UNL     1      -9.283   4.440 130.146  0.00  0.00    +0.000 OA
ATOM      4  C   UNL     1      -8.300   5.382 129.691  0.00  0.00    +0.000 C 
ATOM      5  C   UNL     1      -7.325   5.779 130.791  0.00  0.00    +0.000 C 
ATOM      6  C   UNL     1      -6.976   4.847 131.952  0.00  0.00    +0.000 C 
ATOM      7  C   UNL     1      -8.211   3.986 132.298  0.00  0.00    +0.000 C 
BRANCH   5   8
ATOM      8  O   UNL     1      -6.451   6.869 130.494  0.00  0.00    +0.000 OA
ATOM      9  H   UNL     1      -6.790   7.672 130.873  0.00  0.00    +0.000 HD
ENDBRANCH   5   8
BRANCH   6  10
ATOM     10  O   UNL     1      -6.547   5.554 133.134  0.00  0.00    +0.000 OA
ATOM     11  H   UNL     1      -7.335   5.713 133.701  0.00  0.00    +0.000 HD
ENDBRANCH   6  10
BRANCH   7  12
ATOM     12  O   UNL     1      -9.214   4.764 133.007  0.00  0.00    +0.000 OA
ATOM     13  H   UNL     1      -9.962   4.955 132.409  0.00  0.00    +0.000 HD
ENDBRANCH   7  12
BRANCH   2  14
ATOM     14  C   UNL     1      -9.942   2.458 131.356  0.00  0.00    +0.000 C 
BRANCH  14  15
ATOM     15  O   UNL     1     -11.196   3.076 131.111  0.00  0.00    +0.000 OA
ATOM     16  H   UNL     1     -11.733   2.425 130.626  0.00  0.00    +0.000 HD
ENDBRANCH  14  15
ENDBRANCH   2  14
ENDBRANCH   1   4
BRANCH   1  17
ATOM     17  C   UNL     1     -10.454   6.559 129.243  0.00  0.00    +0.000 C 
ATOM     18  C   UNL     1     -11.251   6.897 130.620  0.00  0.00    +0.000 C 
ATOM     19  C   UNL     1     -12.737   6.875 130.391  0.00  0.00    +0.000 C 
ATOM     20  C   UNL     1     -13.097   7.855 129.313  0.00  0.00    +0.000 C 
ATOM     21  O   UNL     1     -12.431   7.546 128.102  0.00  0.00    +0.000 OA
ATOM     22  C   UNL     1     -10.991   7.587 128.176  0.00  0.00    +0.000 C 
BRANCH  18  23
ATOM     23  O   UNL     1     -11.266   6.042 131.799  0.00  0.00    +0.000 OA
ATOM     24  H   UNL     1     -11.928   5.330 131.666  0.00  0.00    +0.000 HD
ENDBRANCH  18  23
BRANCH  19  25
ATOM     25  O   UNL     1     -13.429   7.177 131.616  0.00  0.00    +0.000 OA
ATOM     26  H   UNL     1     -14.074   6.456 131.751  0.00  0.00    +0.000 HD
ENDBRANCH  19  25
BRANCH  20  27
ATOM     27  O   UNL     1     -12.852   9.199 129.697  0.00  0.00    +0.000 OA
ATOM     28  H   UNL     1     -13.630   9.737 129.486  0.00  0.00    +0.000 HD
ENDBRANCH  20  27
BRANCH  22  29
ATOM     29  C   UNL     1     -10.505   7.369 126.728  0.00  0.00    +0.000 C 
BRANCH  29  30
ATOM     30  O   UNL     1      -9.718   6.204 126.542  0.00  0.00    +0.000 OA
ATOM     31  H   UNL     1      -8.797   6.482 126.403  0.00  0.00    +0.000 HD
ENDBRANCH  29  30
ENDBRANCH  22  29
ENDBRANCH   1  17
TORSDOF 12
ENDMDL
MODEL 4
REMARK VINA RESULT:      -5.9      1.366      6.786
REMARK  Name = Lactose
REMARK  12 active torsions:
REMARK  status: ('A' for Active; 'I' for Inactive)
REMARK    1  A    between atoms: O_1  and  C_2
REMARK    2  A    between atoms: C_2  and  C_3
REMARK    3  A    between atoms: C_5  and  O_6
REMARK    4  A    between atoms: O_6  and  C_7
REMARK    5  A    between atoms: C_8  and  O_9
REMARK    6  A    between atoms: C_10  and  O_11
REMARK    7  A    between atoms: C_12  and  O_13
REMARK    8  A    between atoms: C_15  and  C_16
REMARK    9  A    between atoms: C_16  and  O_17
REMARK   10  A    between atoms: C_18  and  O_19
REMARK   11  A    between atoms: C_20  and  O_21
REMARK   12  A    between atoms: C_22  and  O_23
REMARK                            x       y       z     vdW  Elec       q    Type
REMARK                         _______ _______ _______ _____ _____    ______ ____
ROOT
ATOM      1  O   UNL     1     -10.715   5.464 130.479  0.00  0.00    +0.000 OA
ENDROOT
BRANCH   1   4
ATOM      2  C   UNL     1      -7.827   3.334 131.183  0.00  0.00    +0.000 C 
ATOM      3  O   UNL     1      -8.921   3.927 130.464  0.00  0.00    +0.000 OA
ATOM      4  C   UNL     1      -9.338   5.215 130.941  0.00  0.00    +0.000 C 
ATOM      5  C   UNL     1      -9.376   5.286 132.462  0.00  0.00    +0.000 C 
ATOM      6  C   UNL     1      -8.468   4.428 133.345  0.00  0.00    +0.000 C 
ATOM      7  C   UNL     1      -8.221   3.071 132.648  0.00  0.00    +0.000 C 
BRANCH   5   8
ATOM      8  O   UNL     1      -9.984   6.451 133.023  0.00  0.00    +0.000 OA
ATOM      9  H   UNL     1     -10.396   6.237 133.852  0.00  0.00    +0.000 HD
ENDBRANCH   5   8
BRANCH   6  10
ATOM     10  O   UNL     1      -9.019   4.191 134.657  0.00  0.00    +0.000 OA
ATOM     11  H   UNL     1      -9.582   3.386 134.614  0.00  0.00    +0.000 HD
ENDBRANCH   6  10
BRANCH   7  12
ATOM     12  O   UNL     1      -9.393   2.214 132.731  0.00  0.00    +0.000 OA
ATOM     13  H   UNL     1      -9.127   1.284 132.597  0.00  0.00    +0.000 HD
ENDBRANCH   7  12
BRANCH   2  14
ATOM     14  C   UNL     1      -7.479   1.992 130.526  0.00  0.00    +0.000 C 
BRANCH  14  15
ATOM     15  O   UNL     1      -8.628   1.392 129.945  0.00  0.00    +0.000 OA
ATOM     16  H   UNL     1      -9.394   1.732 130.440  0.00  0.00    +0.000 HD
ENDBRANCH  14  15
ENDBRANCH   2  14
ENDBRANCH   1   4
BRANCH   1  17
ATOM     17  C   UNL     1     -10.914   6.663 129.658  0.00  0.00    +0.000 C 
ATOM     18  C   UNL     1     -10.708   6.511 128.052  0.00  0.00    +0.000 C 
ATOM     19  C   UNL     1     -11.031   7.802 127.352  0.00  0.00    +0.000 C 
ATOM     20  C   UNL     1     -12.438   8.213 127.672  0.00  0.00    +0.000 C 
ATOM     21  O   UNL     1     -12.615   8.378 129.068  0.00  0.00    +0.000 OA
ATOM     22  C   UNL     1     -12.388   7.188 129.851  0.00  0.00    +0.000 C 
BRANCH  18  23
ATOM     23  O   UNL     1      -9.423   6.301 127.399  0.00  0.00    +0.000 OA
ATOM     24  H   UNL     1      -9.370   5.369 127.098  0.00  0.00    +0.000 HD
ENDBRANCH  18  23
BRANCH  19  25
ATOM     25  O   UNL     1     -10.845   7.654 125.933  0.00  0.00    +0.000 OA
ATOM     26  H   UNL     1     -10.392   8.464 125.629  0.00  0.00    +0.000 HD
ENDBRANCH  19  25
BRANCH  20  27
ATOM     27  O   UNL     1     -13.400   7.313 127.143  0.00  0.00    +0.000 OA
ATOM     28  H   UNL     1     -12.945   6.619 126.644  0.00  0.00    +0.000 HD
ENDBRANCH  20  27
BRANCH  22  29
ATOM     29  C   UNL     1     -12.781   7.572 131.292  0.00  0.00    +0.000 C 
BRANCH  29  30
ATOM     30  O   UNL     1     -12.583   6.544 132.249  0.00  0.00    +0.000 OA
ATOM     31  H   UNL     1     -13.296   5.893 132.143  0.00  0.00    +0.000 HD
ENDBRANCH  29  30
ENDBRANCH  22  29
ENDBRANCH   1  17
TORSDOF 12
ENDMDL
MODEL 5
REMARK VINA RESULT:      -5.8      6.476      8.894
REMARK  Name = Lactose
REMARK  12 active torsions:
REMARK  status: ('A' for Active; 'I' for Inactive)
REMARK    1  A    between atoms: O_1  and  C_2
REMARK    2  A    between atoms: C_2  and  C_3
REMARK    3  A    between atoms: C_5  and  O_6
REMARK    4  A    between atoms: O_6  and  C_7
REMARK    5  A    between atoms: C_8  and  O_9
REMARK    6  A    between atoms: C_10  and  O_11
REMARK    7  A    between atoms: C_12  and  O_13
REMARK    8  A    between atoms: C_15  and  C_16
REMARK    9  A    between atoms: C_16  and  O_17
REMARK   10  A    between atoms: C_18  and  O_19
REMARK   11  A    between atoms: C_20  and  O_21
REMARK   12  A    between atoms: C_22  and  O_23
REMARK                            x       y       z     vdW  Elec       q    Type
REMARK                         _______ _______ _______ _____ _____    ______ ____
ROOT
ATOM      1  O   UNL     1      -7.501   1.393 125.044  0.00  0.00    +0.000 OA
ENDROOT
BRANCH   1   4
ATOM      2  C   UNL     1      -4.428   3.206 125.845  0.00  0.00    +0.000 C 
ATOM      3  O   UNL     1      -5.389   2.139 125.796  0.00  0.00    +0.000 OA
ATOM      4  C   UNL     1      -6.319   2.205 124.704  0.00  0.00    +0.000 C 
ATOM      5  C   UNL     1      -6.826   3.620 124.461  0.00  0.00    +0.000 C 
ATOM      6  C   UNL     1      -5.997   4.859 124.802  0.00  0.00    +0.000 C 
ATOM      7  C   UNL     1      -5.132   4.560 126.047  0.00  0.00    +0.000 C 
BRANCH   5   8
ATOM      8  O   UNL     1      -7.914   3.750 123.543  0.00  0.00    +0.000 OA
ATOM      9  H   UNL     1      -7.962   4.641 123.217  0.00  0.00    +0.000 HD
ENDBRANCH   5   8
BRANCH   6  10
ATOM     10  O   UNL     1      -6.804   6.026 125.058  0.00  0.00    +0.000 OA
ATOM     11  H   UNL     1      -7.516   5.776 125.689  0.00  0.00    +0.000 HD
ENDBRANCH   6  10
BRANCH   7  12
ATOM     12  O   UNL     1      -5.935   4.559 127.259  0.00  0.00    +0.000 OA
ATOM     13  H   UNL     1      -6.856   4.796 127.040  0.00  0.00    +0.000 HD
ENDBRANCH   7  12
BRANCH   2  14
ATOM     14  C   UNL     1      -3.489   2.965 127.035  0.00  0.00    +0.000 C 
BRANCH  14  15
ATOM     15  O   UNL     1      -2.265   2.382 126.613  0.00  0.00    +0.000 OA
ATOM     16  H   UNL     1      -2.475   1.470 126.342  0.00  0.00    +0.000 HD
ENDBRANCH  14  15
ENDBRANCH   2  14
ENDBRANCH   1   4
BRANCH   1  17
ATOM     17  C   UNL     1      -7.751   0.228 124.188  0.00  0.00    +0.000 C 
ATOM     18  C   UNL     1      -7.095  -1.188 124.644  0.00  0.00    +0.000 C 
ATOM     19  C   UNL     1      -7.515  -2.291 123.712  0.00  0.00    +0.000 C 
ATOM     20  C   UNL     1      -9.013  -2.383 123.679  0.00  0.00    +0.000 C 
ATOM     21  O   UNL     1      -9.588  -1.161 123.251  0.00  0.00    +0.000 OA
ATOM     22  C   UNL     1      -9.304  -0.029 124.099  0.00  0.00    +0.000 C 
BRANCH  18  23
ATOM     23  O   UNL     1      -5.672  -1.492 124.607  0.00  0.00    +0.000 OA
ATOM     24  H   UNL     1      -5.545  -2.444 124.810  0.00  0.00    +0.000 HD
ENDBRANCH  18  23
BRANCH  19  25
ATOM     25  O   UNL     1      -6.930  -3.538 124.127  0.00  0.00    +0.000 OA
ATOM     26  H   UNL     1      -6.567  -3.953 123.320  0.00  0.00    +0.000 HD
ENDBRANCH  19  25
BRANCH  20  27
ATOM     27  O   UNL     1      -9.560  -2.791 124.924  0.00  0.00    +0.000 OA
ATOM     28  H   UNL     1      -9.386  -3.736 125.053  0.00  0.00    +0.000 HD
ENDBRANCH  20  27
BRANCH  22  29
ATOM     29  C   UNL     1     -10.145   1.129 123.523  0.00  0.00    +0.000 C 
BRANCH  29  30
ATOM     30  O   UNL     1     -10.181   2.290 124.337  0.00  0.00    +0.000 OA
ATOM     31  H   UNL     1      -9.407   2.270 124.925  0.00  0.00    +0.000 HD
ENDBRANCH  29  30
ENDBRANCH  22  29
ENDBRANCH   1  17
TORSDOF 12
ENDMDL
MODEL 6
REMARK VINA RESULT:      -5.8      1.472      3.067
REMARK  Name = Lactose
REMARK  12 active torsions:
REMARK  status: ('A' for Active; 'I' for Inactive)
REMARK    1  A    between atoms: O_1  and  C_2
REMARK    2  A    between atoms: C_2  and  C_3
REMARK    3  A    between atoms: C_5  and  O_6
REMARK    4  A    between atoms: O_6  and  C_7
REMARK    5  A    between atoms: C_8  and  O_9
REMARK    6  A    between atoms: C_10  and  O_11
REMARK    7  A    between atoms: C_12  and  O_13
REMARK    8  A    between atoms: C_15  and  C_16
REMARK    9  A    between atoms: C_16  and  O_17
REMARK   10  A    between atoms: C_18  and  O_19
REMARK   11  A    between atoms: C_20  and  O_21
REMARK   12  A    between atoms: C_22  and  O_23
REMARK                            x       y       z     vdW  Elec       q    Type
REMARK                         _______ _______ _______ _____ _____    ______ ____
ROOT
ATOM      1  O   UNL     1      -9.195   6.033 130.506  0.00  0.00    +0.000 OA
ENDROOT
BRANCH   1   4
ATOM      2  C   UNL     1     -12.321   6.519 128.672  0.00  0.00    +0.000 C 
ATOM      3  O   UNL     1     -10.926   6.271 128.917  0.00  0.00    +0.000 OA
ATOM      4  C   UNL     1     -10.616   5.767 130.225  0.00  0.00    +0.000 C 
ATOM      5  C   UNL     1     -11.409   6.469 131.319  0.00  0.00    +0.000 C 
ATOM      6  C   UNL     1     -12.789   7.079 131.069  0.00  0.00    +0.000 C 
ATOM      7  C   UNL     1     -12.851   7.609 129.619  0.00  0.00    +0.000 C 
BRANCH   5   8
ATOM      8  O   UNL     1     -11.012   6.188 132.663  0.00  0.00    +0.000 OA
ATOM      9  H   UNL     1     -10.409   6.855 132.971  0.00  0.00    +0.000 HD
ENDBRANCH   5   8
BRANCH   6  10
ATOM     10  O   UNL     1     -13.104   8.153 131.978  0.00  0.00    +0.000 OA
ATOM     11  H   UNL     1     -12.290   8.688 132.119  0.00  0.00    +0.000 HD
ENDBRANCH   6  10
BRANCH   7  12
ATOM     12  O   UNL     1     -12.096   8.843 129.476  0.00  0.00    +0.000 OA
ATOM     13  H   UNL     1     -12.553   9.563 129.952  0.00  0.00    +0.000 HD
ENDBRANCH   7  12
BRANCH   2  14
ATOM     14  C   UNL     1     -12.484   7.009 127.227  0.00  0.00    +0.000 C 
BRANCH  14  15
ATOM     15  O   UNL     1     -11.450   6.505 126.394  0.00  0.00    +0.000 OA
ATOM     16  H   UNL     1     -10.938   5.882 126.939  0.00  0.00    +0.000 HD
ENDBRANCH  14  15
ENDBRANCH   2  14
ENDBRANCH   1   4
BRANCH   1  17
ATOM     17  C   UNL     1      -8.363   4.858 130.790  0.00  0.00    +0.000 C 
ATOM     18  C   UNL     1      -8.787   3.932 132.058  0.00  0.00    +0.000 C 
ATOM     19  C   UNL     1      -7.889   2.730 132.159  0.00  0.00    +0.000 C 
ATOM     20  C   UNL     1      -7.948   1.944 130.882  0.00  0.00    +0.000 C 
ATOM     21  O   UNL     1      -7.548   2.738 129.778  0.00  0.00    +0.000 OA
ATOM     22  C   UNL     1      -8.370   3.900 129.539  0.00  0.00    +0.000 C 
BRANCH  18  23
ATOM     23  O   UNL     1      -8.665   4.331 133.453  0.00  0.00    +0.000 OA
ATOM     24  H   UNL     1      -7.744   4.625 133.619  0.00  0.00    +0.000 HD
ENDBRANCH  18  23
BRANCH  19  25
ATOM     25  O   UNL     1      -8.276   1.918 133.283  0.00  0.00    +0.000 OA
ATOM     26  H   UNL     1      -8.007   1.004 133.066  0.00  0.00    +0.000 HD
ENDBRANCH  19  25
BRANCH  20  27
ATOM     27  O   UNL     1      -9.226   1.370 130.655  0.00  0.00    +0.000 OA
ATOM     28  H   UNL     1      -9.287   0.530 131.134  0.00  0.00    +0.000 HD
ENDBRANCH  20  27
BRANCH  22  29
ATOM     29  C   UNL     1      -7.839   4.506 128.224  0.00  0.00    +0.000 C 
BRANCH  29  30
ATOM     30  O   UNL     1      -8.791   5.269 127.502  0.00  0.00    +0.000 OA
ATOM     31  H   UNL     1      -9.285   4.664 126.923  0.00  0.00    +0.000 HD
ENDBRANCH  29  30
ENDBRANCH  22  29
ENDBRANCH   1  17
TORSDOF 12
ENDMDL
MODEL 7
REMARK VINA RESULT:      -5.8      2.242      5.981
REMARK  Name = Lactose
REMARK  12 active torsions:
REMARK  status: ('A' for Active; 'I' for Inactive)
REMARK    1  A    between atoms: O_1  and  C_2
REMARK    2  A    between atoms: C_2  and  C_3
REMARK    3  A    between atoms: C_5  and  O_6
REMARK    4  A    between atoms: O_6  and  C_7
REMARK    5  A    between atoms: C_8  and  O_9
REMARK    6  A    between atoms: C_10  and  O_11
REMARK    7  A    between atoms: C_12  and  O_13
REMARK    8  A    between atoms: C_15  and  C_16
REMARK    9  A    between atoms: C_16  and  O_17
REMARK   10  A    between atoms: C_18  and  O_19
REMARK   11  A    between atoms: C_20  and  O_21
REMARK   12  A    between atoms: C_22  and  O_23
REMARK                            x       y       z     vdW  Elec       q    Type
REMARK                         _______ _______ _______ _____ _____    ______ ____
ROOT
ATOM      1  O   UNL     1      -9.642   4.318 129.462  0.00  0.00    +0.000 OA
ENDROOT
BRANCH   1   4
ATOM      2  C   UNL     1      -7.180   4.031 126.773  0.00  0.00    +0.000 C 
ATOM      3  O   UNL     1      -8.156   4.619 127.651  0.00  0.00    +0.000 OA
ATOM      4  C   UNL     1      -8.329   3.946 128.908  0.00  0.00    +0.000 C 
ATOM      5  C   UNL     1      -8.340   2.431 128.757  0.00  0.00    +0.000 C 
ATOM      6  C   UNL     1      -7.595   1.714 127.631  0.00  0.00    +0.000 C 
ATOM      7  C   UNL     1      -7.603   2.607 126.371  0.00  0.00    +0.000 C 
BRANCH   5   8
ATOM      8  O   UNL     1      -8.722   1.686 129.915  0.00  0.00    +0.000 OA
ATOM      9  H   UNL     1      -9.307   2.204 130.458  0.00  0.00    +0.000 HD
ENDBRANCH   5   8
BRANCH   6  10
ATOM     10  O   UNL     1      -8.167   0.431 127.303  0.00  0.00    +0.000 OA
ATOM     11  H   UNL     1      -7.440  -0.170 127.024  0.00  0.00    +0.000 HD
ENDBRANCH   6  10
BRANCH   7  12
ATOM     12  O   UNL     1      -8.909   2.607 125.732  0.00  0.00    +0.000 OA
ATOM     13  H   UNL     1      -9.188   3.527 125.560  0.00  0.00    +0.000 HD
ENDBRANCH   7  12
BRANCH   2  14
ATOM     14  C   UNL     1      -7.087   4.888 125.503  0.00  0.00    +0.000 C 
BRANCH  14  15
ATOM     15  O   UNL     1      -8.271   5.644 125.306  0.00  0.00    +0.000 OA
ATOM     16  H   UNL     1      -8.424   6.136 126.132  0.00  0.00    +0.000 HD
ENDBRANCH  14  15
ENDBRANCH   2  14
ENDBRANCH   1   4
BRANCH   1  17
ATOM     17  C   UNL     1      -9.879   5.753 129.652  0.00  0.00    +0.000 C 
ATOM     18  C   UNL     1     -10.646   6.548 128.458  0.00  0.00    +0.000 C 
ATOM     19  C   UNL     1     -10.886   7.982 128.844  0.00  0.00    +0.000 C 
ATOM     20  C   UNL     1     -11.679   8.038 130.117  0.00  0.00    +0.000 C 
ATOM     21  O   UNL     1     -11.000   7.374 131.169  0.00  0.00    +0.000 OA
ATOM     22  C   UNL     1     -10.758   5.970 130.943  0.00  0.00    +0.000 C 
BRANCH  18  23
ATOM     23  O   UNL     1     -10.071   6.836 127.152  0.00  0.00    +0.000 OA
ATOM     24  H   UNL     1      -9.192   7.256 127.278  0.00  0.00    +0.000 HD
ENDBRANCH  18  23
BRANCH  19  25
ATOM     25  O   UNL     1     -11.566   8.672 127.781  0.00  0.00    +0.000 OA
ATOM     26  H   UNL     1     -11.923   7.981 127.190  0.00  0.00    +0.000 HD
ENDBRANCH  19  25
BRANCH  20  27
ATOM     27  O   UNL     1     -12.993   7.525 129.961  0.00  0.00    +0.000 OA
ATOM     28  H   UNL     1     -12.961   6.557 129.974  0.00  0.00    +0.000 HD
ENDBRANCH  20  27
BRANCH  22  29
ATOM     29  C   UNL     1     -10.155   5.446 132.262  0.00  0.00    +0.000 C 
BRANCH  29  30
ATOM     30  O   UNL     1     -10.008   6.430 133.272  0.00  0.00    +0.000 OA
ATOM     31  H   UNL     1      -9.862   7.288 132.839  0.00  0.00    +0.000 HD
ENDBRANCH  29  30
ENDBRANCH  22  29
ENDBRANCH   1  17
TORSDOF 12
ENDMDL
MODEL 8
REMARK VINA RESULT:      -5.5      7.013     10.025
REMARK  Name = Lactose
REMARK  12 active torsions:
REMARK  status: ('A' for Active; 'I' for Inactive)
REMARK    1  A    between atoms: O_1  and  C_2
REMARK    2  A    between atoms: C_2  and  C_3
REMARK    3  A    between atoms: C_5  and  O_6
REMARK    4  A    between atoms: O_6  and  C_7
REMARK    5  A    between atoms: C_8  and  O_9
REMARK    6  A    between atoms: C_10  and  O_11
REMARK    7  A    between atoms: C_12  and  O_13
REMARK    8  A    between atoms: C_15  and  C_16
REMARK    9  A    between atoms: C_16  and  O_17
REMARK   10  A    between atoms: C_18  and  O_19
REMARK   11  A    between atoms: C_20  and  O_21
REMARK   12  A    between atoms: C_22  and  O_23
REMARK                            x       y       z     vdW  Elec       q    Type
REMARK                         _______ _______ _______ _____ _____    ______ ____
ROOT
ATOM      1  O   UNL     1      -7.547   0.246 126.092  0.00  0.00    +0.000 OA
ENDROOT
BRANCH   1   4
ATOM      2  C   UNL     1      -6.352  -2.713 124.307  0.00  0.00    +0.000 C 
ATOM      3  O   UNL     1      -6.324  -1.454 125.000  0.00  0.00    +0.000 OA
ATOM      4  C   UNL     1      -7.447  -1.205 125.859  0.00  0.00    +0.000 C 
ATOM      5  C   UNL     1      -8.765  -1.630 125.226  0.00  0.00    +0.000 C 
ATOM      6  C   UNL     1      -8.855  -2.759 124.199  0.00  0.00    +0.000 C 
ATOM      7  C   UNL     1      -7.561  -2.780 123.356  0.00  0.00    +0.000 C 
BRANCH   5   8
ATOM      8  O   UNL     1      -9.952  -1.224 125.911  0.00  0.00    +0.000 OA
ATOM      9  H   UNL     1     -10.323  -0.455 125.494  0.00  0.00    +0.000 HD
ENDBRANCH   5   8
BRANCH   6  10
ATOM     10  O   UNL     1      -9.990  -2.631 123.318  0.00  0.00    +0.000 OA
ATOM     11  H   UNL     1     -10.501  -1.835 123.586  0.00  0.00    +0.000 HD
ENDBRANCH   6  10
BRANCH   7  12
ATOM     12  O   UNL     1      -7.538  -1.686 122.398  0.00  0.00    +0.000 OA
ATOM     13  H   UNL     1      -8.452  -1.423 122.181  0.00  0.00    +0.000 HD
ENDBRANCH   7  12
BRANCH   2  14
ATOM     14  C   UNL     1      -5.070  -2.841 123.473  0.00  0.00    +0.000 C 
BRANCH  14  15
ATOM     15  O   UNL     1      -4.528  -4.150 123.563  0.00  0.00    +0.000 OA
ATOM     16  H   UNL     1      -3.992  -4.169 124.376  0.00  0.00    +0.000 HD
ENDBRANCH  14  15
ENDBRANCH   2  14
ENDBRANCH   1   4
BRANCH   1  17
ATOM     17  C   UNL     1      -7.099   1.109 124.994  0.00  0.00    +0.000 C 
ATOM     18  C   UNL     1      -8.245   1.783 124.058  0.00  0.00    +0.000 C 
ATOM     19  C   UNL     1      -7.626   2.700 123.040  0.00  0.00    +0.000 C 
ATOM     20  C   UNL     1      -6.816   3.756 123.734  0.00  0.00    +0.000 C 
ATOM     21  O   UNL     1      -5.795   3.174 124.526  0.00  0.00    +0.000 OA
ATOM     22  C   UNL     1      -6.265   2.311 125.582  0.00  0.00    +0.000 C 
BRANCH  18  23
ATOM     23  O   UNL     1      -9.082   1.052 123.117  0.00  0.00    +0.000 OA
ATOM     24  H   UNL     1      -8.714   1.163 122.214  0.00  0.00    +0.000 HD
ENDBRANCH  18  23
BRANCH  19  25
ATOM     25  O   UNL     1      -8.651   3.291 122.221  0.00  0.00    +0.000 OA
ATOM     26  H   UNL     1      -9.251   2.563 121.964  0.00  0.00    +0.000 HD
ENDBRANCH  19  25
BRANCH  20  27
ATOM     27  O   UNL     1      -7.618   4.634 124.509  0.00  0.00    +0.000 OA
ATOM     28  H   UNL     1      -8.409   4.161 124.809  0.00  0.00    +0.000 HD
ENDBRANCH  20  27
BRANCH  22  29
ATOM     29  C   UNL     1      -5.004   1.926 126.381  0.00  0.00    +0.000 C 
BRANCH  29  30
ATOM     30  O   UNL     1      -4.587   0.582 126.210  0.00  0.00    +0.000 OA
ATOM     31  H   UNL     1      -3.731   0.588 125.748  0.00  0.00    +0.000 HD
ENDBRANCH  29  30
ENDBRANCH  22  29
ENDBRANCH   1  17
TORSDOF 12
ENDMDL
MODEL 9
REMARK VINA RESULT:      -5.5      2.276      5.232
REMARK  Name = Lactose
REMARK  12 active torsions:
REMARK  status: ('A' for Active; 'I' for Inactive)
REMARK    1  A    between atoms: O_1  and  C_2
REMARK    2  A    between atoms: C_2  and  C_3
REMARK    3  A    between atoms: C_5  and  O_6
REMARK    4  A    between atoms: O_6  and  C_7
REMARK    5  A    between atoms: C_8  and  O_9
REMARK    6  A    between atoms: C_10  and  O_11
REMARK    7  A    between atoms: C_12  and  O_13
REMARK    8  A    between atoms: C_15  and  C_16
REMARK    9  A    between atoms: C_16  and  O_17
REMARK   10  A    between atoms: C_18  and  O_19
REMARK   11  A    between atoms: C_20  and  O_21
REMARK   12  A    between atoms: C_22  and  O_23
REMARK                            x       y       z     vdW  Elec       q    Type
REMARK                         _______ _______ _______ _____ _____    ______ ____
ROOT
ATOM      1  O   UNL     1      -9.023   3.882 129.217  0.00  0.00    +0.000 OA
ENDROOT
BRANCH   1   4
ATOM      2  C   UNL     1      -8.382   5.970 132.150  0.00  0.00    +0.000 C 
ATOM      3  O   UNL     1      -8.178   4.973 131.134  0.00  0.00    +0.000 OA
ATOM      4  C   UNL     1      -8.931   5.169 129.928  0.00  0.00    +0.000 C 
ATOM      5  C   UNL     1     -10.362   5.610 130.203  0.00  0.00    +0.000 C 
ATOM      6  C   UNL     1     -10.750   6.400 131.454  0.00  0.00    +0.000 C 
ATOM      7  C   UNL     1      -9.845   5.964 132.628  0.00  0.00    +0.000 C 
BRANCH   5   8
ATOM      8  O   UNL     1     -11.245   5.619 129.080  0.00  0.00    +0.000 OA
ATOM      9  H   UNL     1     -11.533   6.507 128.898  0.00  0.00    +0.000 HD
ENDBRANCH   5   8
BRANCH   6  10
ATOM     10  O   UNL     1     -12.131   6.218 131.830  0.00  0.00    +0.000 OA
ATOM     11  H   UNL     1     -12.166   5.576 132.575  0.00  0.00    +0.000 HD
ENDBRANCH   6  10
BRANCH   7  12
ATOM     12  O   UNL     1     -10.229   4.656 133.132  0.00  0.00    +0.000 OA
ATOM     13  H   UNL     1      -9.864   4.532 134.029  0.00  0.00    +0.000 HD
ENDBRANCH   7  12
BRANCH   2  14
ATOM     14  C   UNL     1      -7.479   5.640 133.347  0.00  0.00    +0.000 C 
BRANCH  14  15
ATOM     15  O   UNL     1      -8.159   5.850 134.575  0.00  0.00    +0.000 OA
ATOM     16  H   UNL     1      -8.049   5.034 135.093  0.00  0.00    +0.000 HD
ENDBRANCH  14  15
ENDBRANCH   2  14
ENDBRANCH   1   4
BRANCH   1  17
ATOM     17  C   UNL     1      -8.120   3.710 128.074  0.00  0.00    +0.000 C 
ATOM     18  C   UNL     1      -7.972   4.961 127.045  0.00  0.00    +0.000 C 
ATOM     19  C   UNL     1      -6.950   4.656 125.984  0.00  0.00    +0.000 C 
ATOM     20  C   UNL     1      -5.632   4.337 126.627  0.00  0.00    +0.000 C 
ATOM     21  O   UNL     1      -5.748   3.227 127.501  0.00  0.00    +0.000 OA
ATOM     22  C   UNL     1      -6.663   3.416 128.600  0.00  0.00    +0.000 C 
BRANCH  18  23
ATOM     23  O   UNL     1      -9.013   5.407 126.130  0.00  0.00    +0.000 OA
ATOM     24  H   UNL     1      -9.804   4.840 126.249  0.00  0.00    +0.000 HD
ENDBRANCH  18  23
BRANCH  19  25
ATOM     25  O   UNL     1      -6.828   5.770 125.082  0.00  0.00    +0.000 OA
ATOM     26  H   UNL     1      -7.731   5.962 124.760  0.00  0.00    +0.000 HD
ENDBRANCH  19  25
BRANCH  20  27
ATOM     27  O   UNL     1      -5.071   5.453 127.299  0.00  0.00    +0.000 OA
ATOM     28  H   UNL     1      -4.124   5.300 127.434  0.00  0.00    +0.000 HD
ENDBRANCH  20  27
BRANCH  22  29
ATOM     29  C   UNL     1      -6.507   2.156 129.477  0.00  0.00    +0.000 C 
BRANCH  29  30
ATOM     30  O   UNL     1      -7.055   2.275 130.779  0.00  0.00    +0.000 OA
ATOM     31  H   UNL     1      -6.507   2.900 131.281  0.00  0.00    +0.000 HD
ENDBRANCH  29  30
ENDBRANCH  22  29
ENDBRANCH   1  17
TORSDOF 12
ENDMDL
