MODEL 1
REMARK VINA RESULT:      -6.7      0.000      0.000
REMARK  Name = Lactulose
REMARK  13 active torsions:
REMARK  status: ('A' for Active; 'I' for Inactive)
REMARK    1  A    between atoms: O_1  and  C_2
REMARK    2  A    between atoms: C_2  and  C_3
REMARK    3  A    between atoms: C_5  and  O_6
REMARK    4  A    between atoms: C_5  and  C_7
REMARK    5  A    between atoms: C_7  and  O_8
REMARK    6  A    between atoms: C_9  and  O_10
REMARK    7  A    between atoms: C_11  and  O_12
REMARK    8  A    between atoms: O_12  and  C_13
REMARK    9  A    between atoms: C_15  and  C_16
REMARK   10  A    between atoms: C_16  and  O_17
REMARK   11  A    between atoms: C_18  and  O_19
REMARK   12  A    between atoms: C_20  and  O_21
REMARK   13  A    between atoms: C_22  and  O_23
REMARK                            x       y       z     vdW  Elec       q    Type
REMARK                         _______ _______ _______ _____ _____    ______ ____
ROOT
ATOM      1  O   UNL     1     -11.340   5.656 130.928  0.00  0.00    +0.000 OA
ENDROOT
BRANCH   1   2
ATOM      2  C   UNL     1     -12.312   6.082 129.887  0.00  0.00    +0.000 C 
ATOM      3  O   UNL     1     -11.852   6.188 128.538  0.00  0.00    +0.000 OA
ATOM      4  C   UNL     1     -12.740   7.070 127.766  0.00  0.00    +0.000 C 
ATOM      5  C   UNL     1     -12.669   8.535 128.277  0.00  0.00    +0.000 C 
ATOM      6  C   UNL     1     -13.262   8.603 129.654  0.00  0.00    +0.000 C 
ATOM      7  C   UNL     1     -12.674   7.432 130.354  0.00  0.00    +0.000 C 
BRANCH   5   8
ATOM      8  O   UNL     1     -11.289   8.988 128.263  0.00  0.00    +0.000 OA
ATOM      9  H   UNL     1     -10.969   9.091 129.184  0.00  0.00    +0.000 HD
ENDBRANCH   5   8
BRANCH   6  10
ATOM     10  O   UNL     1     -12.885   9.851 130.284  0.00  0.00    +0.000 OA
ATOM     11  H   UNL     1     -11.921   9.994 130.140  0.00  0.00    +0.000 HD
ENDBRANCH   6  10
BRANCH   7  12
ATOM     12  O   UNL     1     -13.154   7.249 131.613  0.00  0.00    +0.000 OA
ATOM     13  H   UNL     1     -13.886   7.857 131.869  0.00  0.00    +0.000 HD
ENDBRANCH   7  12
BRANCH   4  14
ATOM     14  C   UNL     1     -12.322   7.026 126.303  0.00  0.00    +0.000 C 
BRANCH  14  15
ATOM     15  O   UNL     1     -10.937   6.718 126.180  0.00  0.00    +0.000 OA
ATOM     16  H   UNL     1     -10.466   7.579 126.234  0.00  0.00    +0.000 HD
ENDBRANCH  14  15
ENDBRANCH   4  14
ENDBRANCH   1   2
BRANCH   1  21
ATOM     17  C   UNL     1      -9.260   4.482 130.260  0.00  0.00    +0.000 C 
ATOM     18  O   UNL     1      -8.476   3.882 131.347  0.00  0.00    +0.000 OA
ATOM     19  C   UNL     1      -8.167   4.857 132.357  0.00  0.00    +0.000 C 
ATOM     20  C   UNL     1      -8.699   6.174 131.758  0.00  0.00    +0.000 C 
ATOM     21  C   UNL     1      -9.863   5.823 130.718  0.00  0.00    +0.000 C 
BRANCH  19  22
ATOM     22  O   UNL     1      -6.738   4.973 132.487  0.00  0.00    +0.000 OA
ATOM     23  H   UNL     1      -6.536   5.905 132.301  0.00  0.00    +0.000 HD
ENDBRANCH  19  22
BRANCH  20  24
ATOM     24  O   UNL     1      -7.688   6.976 131.088  0.00  0.00    +0.000 OA
ATOM     25  H   UNL     1      -7.903   7.923 131.231  0.00  0.00    +0.000 HD
ENDBRANCH  20  24
BRANCH  17  26
ATOM     26  C   UNL     1      -8.442   4.725 128.961  0.00  0.00    +0.000 C 
BRANCH  26  27
ATOM     27  O   UNL     1      -9.050   5.572 127.982  0.00  0.00    +0.000 OA
ATOM     28  H   UNL     1      -9.045   6.472 128.368  0.00  0.00    +0.000 HD
ENDBRANCH  26  27
ENDBRANCH  17  26
BRANCH  19  29
ATOM     29  C   UNL     1      -8.623   4.530 133.875  0.00  0.00    +0.000 C 
BRANCH  29  30
ATOM     30  O   UNL     1      -9.937   3.975 134.076  0.00  0.00    +0.000 OA
ATOM     31  H   UNL     1     -10.325   3.821 133.204  0.00  0.00    +0.000 HD
ENDBRANCH  29  30
ENDBRANCH  19  29
ENDBRANCH   1  21
TORSDOF 13
ENDMDL
MODEL 2
REMARK VINA RESULT:      -6.4      1.654      5.911
REMARK  Name = Lactulose
REMARK  13 active torsions:
REMARK  status: ('A' for Active; 'I' for Inactive)
REMARK    1  A    between atoms: O_1  and  C_2
REMARK    2  A    between atoms: C_2  and  C_3
REMARK    3  A    between atoms: C_5  and  O_6
REMARK    4  A    between atoms: C_5  and  C_7
REMARK    5  A    between atoms: C_7  and  O_8
REMARK    6  A    between atoms: C_9  and  O_10
REMARK    7  A    between atoms: C_11  and  O_12
REMARK    8  A    between atoms: O_12  and  C_13
REMARK    9  A    between atoms: C_15  and  C_16
REMARK   10  A    between atoms: C_16  and  O_17
REMARK   11  A    between atoms: C_18  and  O_19
REMARK   12  A    between atoms: C_20  and  O_21
REMARK   13  A    between atoms: C_22  and  O_23
REMARK                            x       y       z     vdW  Elec       q    Type
REMARK                         _______ _______ _______ _____ _____    ______ ____
ROOT
ATOM      1  O   UNL     1     -10.536   7.055 130.983  0.00  0.00    +0.000 OA
ENDROOT
BRANCH   1   2
ATOM      2  C   UNL     1      -9.365   6.150 131.127  0.00  0.00    +0.000 C 
ATOM      3  O   UNL     1      -9.194   5.110 130.162  0.00  0.00    +0.000 OA
ATOM      4  C   UNL     1      -8.338   4.046 130.707  0.00  0.00    +0.000 C 
ATOM      5  C   UNL     1      -9.029   3.315 131.892  0.00  0.00    +0.000 C 
ATOM      6  C   UNL     1      -9.148   4.262 133.050  0.00  0.00    +0.000 C 
ATOM      7  C   UNL     1      -9.634   5.522 132.432  0.00  0.00    +0.000 C 
BRANCH   5   8
ATOM      8  O   UNL     1     -10.327   2.821 131.468  0.00  0.00    +0.000 OA
ATOM      9  H   UNL     1     -10.819   3.537 131.014  0.00  0.00    +0.000 HD
ENDBRANCH   5   8
BRANCH   6  10
ATOM     10  O   UNL     1     -10.092   3.735 134.013  0.00  0.00    +0.000 OA
ATOM     11  H   UNL     1      -9.705   3.830 134.913  0.00  0.00    +0.000 HD
ENDBRANCH   6  10
BRANCH   7  12
ATOM     12  O   UNL     1      -9.727   6.560 133.306  0.00  0.00    +0.000 OA
ATOM     13  H   UNL     1     -10.598   7.023 133.307  0.00  0.00    +0.000 HD
ENDBRANCH   7  12
BRANCH   4  14
ATOM     14  C   UNL     1      -8.040   3.043 129.602  0.00  0.00    +0.000 C 
BRANCH  14  15
ATOM     15  O   UNL     1      -8.739   3.381 128.409  0.00  0.00    +0.000 OA
ATOM     16  H   UNL     1      -9.694   3.322 128.633  0.00  0.00    +0.000 HD
ENDBRANCH  14  15
ENDBRANCH   4  14
ENDBRANCH   1   2
BRANCH   1  21
ATOM     17  C   UNL     1     -10.719   7.877 128.650  0.00  0.00    +0.000 C 
ATOM     18  O   UNL     1     -11.462   9.128 128.459  0.00  0.00    +0.000 OA
ATOM     19  C   UNL     1     -12.776   9.039 129.035  0.00  0.00    +0.000 C 
ATOM     20  C   UNL     1     -12.868   7.569 129.490  0.00  0.00    +0.000 C 
ATOM     21  C   UNL     1     -11.385   7.024 129.746  0.00  0.00    +0.000 C 
BRANCH  19  22
ATOM     22  O   UNL     1     -13.763   9.248 128.008  0.00  0.00    +0.000 OA
ATOM     23  H   UNL     1     -14.603   8.944 128.390  0.00  0.00    +0.000 HD
ENDBRANCH  19  22
BRANCH  20  24
ATOM     24  O   UNL     1     -13.541   6.692 128.546  0.00  0.00    +0.000 OA
ATOM     25  H   UNL     1     -13.986   5.978 129.052  0.00  0.00    +0.000 HD
ENDBRANCH  20  24
BRANCH  17  26
ATOM     26  C   UNL     1     -10.600   7.018 127.359  0.00  0.00    +0.000 C 
BRANCH  26  27
ATOM     27  O   UNL     1      -9.538   6.060 127.335  0.00  0.00    +0.000 OA
ATOM     28  H   UNL     1      -9.968   5.183 127.416  0.00  0.00    +0.000 HD
ENDBRANCH  26  27
ENDBRANCH  17  26
BRANCH  19  29
ATOM     29  C   UNL     1     -13.186  10.152 130.136  0.00  0.00    +0.000 C 
BRANCH  29  30
ATOM     30  O   UNL     1     -13.233  11.529 129.713  0.00  0.00    +0.000 OA
ATOM     31  H   UNL     1     -14.123  11.859 129.893  0.00  0.00    +0.000 HD
ENDBRANCH  29  30
ENDBRANCH  19  29
ENDBRANCH   1  21
TORSDOF 13
ENDMDL
MODEL 3
REMARK VINA RESULT:      -6.3      0.899      2.900
REMARK  Name = Lactulose
REMARK  13 active torsions:
REMARK  status: ('A' for Active; 'I' for Inactive)
REMARK    1  A    between atoms: O_1  and  C_2
REMARK    2  A    between atoms: C_2  and  C_3
REMARK    3  A    between atoms: C_5  and  O_6
REMARK    4  A    between atoms: C_5  and  C_7
REMARK    5  A    between atoms: C_7  and  O_8
REMARK    6  A    between atoms: C_9  and  O_10
REMARK    7  A    between atoms: C_11  and  O_12
REMARK    8  A    between atoms: O_12  and  C_13
REMARK    9  A    between atoms: C_15  and  C_16
REMARK   10  A    between atoms: C_16  and  O_17
REMARK   11  A    between atoms: C_18  and  O_19
REMARK   12  A    between atoms: C_20  and  O_21
REMARK   13  A    between atoms: C_22  and  O_23
REMARK                            x       y       z     vdW  Elec       q    Type
REMARK                         _______ _______ _______ _____ _____    ______ ____
ROOT
ATOM      1  O   UNL     1     -10.809   6.226 131.158  0.00  0.00    +0.000 OA
ENDROOT
BRANCH   1   2
ATOM      2  C   UNL     1     -11.843   6.373 130.099  0.00  0.00    +0.000 C 
ATOM      3  O   UNL     1     -11.410   6.431 128.739  0.00  0.00    +0.000 OA
ATOM      4  C   UNL     1     -12.442   7.064 127.904  0.00  0.00    +0.000 C 
ATOM      5  C   UNL     1     -12.633   8.561 128.276  0.00  0.00    +0.000 C 
ATOM      6  C   UNL     1     -13.226   8.653 129.651  0.00  0.00    +0.000 C 
ATOM      7  C   UNL     1     -12.439   7.675 130.445  0.00  0.00    +0.000 C 
BRANCH   5   8
ATOM      8  O   UNL     1     -11.356   9.248 128.196  0.00  0.00    +0.000 OA
ATOM      9  H   UNL     1     -11.312   9.940 128.889  0.00  0.00    +0.000 HD
ENDBRANCH   5   8
BRANCH   6  10
ATOM     10  O   UNL     1     -13.077  10.001 130.156  0.00  0.00    +0.000 OA
ATOM     11  H   UNL     1     -13.407  10.026 131.083  0.00  0.00    +0.000 HD
ENDBRANCH   6  10
BRANCH   7  12
ATOM     12  O   UNL     1     -12.877   7.530 131.724  0.00  0.00    +0.000 OA
ATOM     13  H   UNL     1     -12.353   6.899 132.272  0.00  0.00    +0.000 HD
ENDBRANCH   7  12
BRANCH   4  14
ATOM     14  C   UNL     1     -12.025   6.958 126.444  0.00  0.00    +0.000 C 
BRANCH  14  15
ATOM     15  O   UNL     1     -10.614   6.796 126.331  0.00  0.00    +0.000 OA
ATOM     16  H   UNL     1     -10.435   5.855 126.551  0.00  0.00    +0.000 HD
ENDBRANCH  14  15
ENDBRANCH   4  14
ENDBRANCH   1   2
BRANCH   1  21
ATOM     17  C   UNL     1      -8.885   5.006 132.137  0.00  0.00    +0.000 C 
ATOM     18  O   UNL     1      -7.901   4.475 131.186  0.00  0.00    +0.000 OA
ATOM     19  C   UNL     1      -8.535   3.645 130.199  0.00  0.00    +0.000 C 
ATOM     20  C   UNL     1      -9.998   3.571 130.679  0.00  0.00    +0.000 C 
ATOM     21  C   UNL     1     -10.307   4.870 131.561  0.00  0.00    +0.000 C 
BRANCH  19  22
ATOM     22  O   UNL     1      -7.980   2.319 130.261  0.00  0.00    +0.000 OA
ATOM     23  H   UNL     1      -8.736   1.727 130.408  0.00  0.00    +0.000 HD
ENDBRANCH  19  22
BRANCH  20  24
ATOM     24  O   UNL     1     -10.312   2.383 131.456  0.00  0.00    +0.000 OA
ATOM     25  H   UNL     1     -11.288   2.320 131.540  0.00  0.00    +0.000 HD
ENDBRANCH  20  24
BRANCH  17  26
ATOM     26  C   UNL     1      -8.846   4.312 133.528  0.00  0.00    +0.000 C 
BRANCH  26  27
ATOM     27  O   UNL     1     -10.105   3.883 134.054  0.00  0.00    +0.000 OA
ATOM     28  H   UNL     1     -10.720   4.635 133.923  0.00  0.00    +0.000 HD
ENDBRANCH  26  27
ENDBRANCH  17  26
BRANCH  19  29
ATOM     29  C   UNL     1      -8.316   4.035 128.643  0.00  0.00    +0.000 C 
BRANCH  29  30
ATOM     30  O   UNL     1      -8.917   5.255 128.167  0.00  0.00    +0.000 OA
ATOM     31  H   UNL     1      -8.843   5.260 127.203  0.00  0.00    +0.000 HD
ENDBRANCH  29  30
ENDBRANCH  19  29
ENDBRANCH   1  21
TORSDOF 13
ENDMDL
MODEL 4
REMARK VINA RESULT:      -6.2      1.739      3.513
REMARK  Name = Lactulose
REMARK  13 active torsions:
REMARK  status: ('A' for Active; 'I' for Inactive)
REMARK    1  A    between atoms: O_1  and  C_2
REMARK    2  A    between atoms: C_2  and  C_3
REMARK    3  A    between atoms: C_5  and  O_6
REMARK    4  A    between atoms: C_5  and  C_7
REMARK    5  A    between atoms: C_7  and  O_8
REMARK    6  A    between atoms: C_9  and  O_10
REMARK    7  A    between atoms: C_11  and  O_12
REMARK    8  A    between atoms: O_12  and  C_13
REMARK    9  A    between atoms: C_15  and  C_16
REMARK   10  A    between atoms: C_16  and  O_17
REMARK   11  A    between atoms: C_18  and  O_19
REMARK   12  A    between atoms: C_20  and  O_21
REMARK   13  A    between atoms: C_22  and  O_23
REMARK                            x       y       z     vdW  Elec       q    Type
REMARK                         _______ _______ _______ _____ _____    ______ ____
ROOT
ATOM      1  O   UNL     1      -9.342   6.553 129.318  0.00  0.00    +0.000 OA
ENDROOT
BRANCH   1   2
ATOM      2  C   UNL     1     -10.136   7.699 128.800  0.00  0.00    +0.000 C 
ATOM      3  O   UNL     1     -11.144   8.257 129.645  0.00  0.00    +0.000 OA
ATOM      4  C   UNL     1     -12.130   8.994 128.841  0.00  0.00    +0.000 C 
ATOM      5  C   UNL     1     -12.935   8.040 127.916  0.00  0.00    +0.000 C 
ATOM      6  C   UNL     1     -12.017   7.479 126.870  0.00  0.00    +0.000 C 
ATOM      7  C   UNL     1     -10.800   7.096 127.632  0.00  0.00    +0.000 C 
BRANCH   5   8
ATOM      8  O   UNL     1     -13.544   6.989 128.714  0.00  0.00    +0.000 OA
ATOM      9  H   UNL     1     -14.505   7.159 128.803  0.00  0.00    +0.000 HD
ENDBRANCH   5   8
BRANCH   6  10
ATOM     10  O   UNL     1     -12.640   6.335 126.239  0.00  0.00    +0.000 OA
ATOM     11  H   UNL     1     -12.951   5.721 126.943  0.00  0.00    +0.000 HD
ENDBRANCH   6  10
BRANCH   7  12
ATOM     12  O   UNL     1      -9.786   6.639 126.850  0.00  0.00    +0.000 OA
ATOM     13  H   UNL     1      -8.948   7.155 126.917  0.00  0.00    +0.000 HD
ENDBRANCH   7  12
BRANCH   4  14
ATOM     14  C   UNL     1     -13.089   9.713 129.780  0.00  0.00    +0.000 C 
BRANCH  14  15
ATOM     15  O   UNL     1     -13.367  11.028 129.311  0.00  0.00    +0.000 OA
ATOM     16  H   UNL     1     -12.499  11.489 129.278  0.00  0.00    +0.000 HD
ENDBRANCH  14  15
ENDBRANCH   4  14
ENDBRANCH   1   2
BRANCH   1  21
ATOM     17  C   UNL     1      -7.853   5.553 131.030  0.00  0.00    +0.000 C 
ATOM     18  O   UNL     1      -8.177   4.184 131.453  0.00  0.00    +0.000 OA
ATOM     19  C   UNL     1      -9.540   4.094 131.899  0.00  0.00    +0.000 C 
ATOM     20  C   UNL     1     -10.028   5.555 131.861  0.00  0.00    +0.000 C 
ATOM     21  C   UNL     1      -9.146   6.356 130.793  0.00  0.00    +0.000 C 
BRANCH  19  22
ATOM     22  O   UNL     1      -9.566   3.652 133.268  0.00  0.00    +0.000 OA
ATOM     23  H   UNL     1      -8.645   3.696 133.573  0.00  0.00    +0.000 HD
ENDBRANCH  19  22
BRANCH  20  24
ATOM     24  O   UNL     1      -9.962   6.240 133.142  0.00  0.00    +0.000 OA
ATOM     25  H   UNL     1      -9.058   6.123 133.507  0.00  0.00    +0.000 HD
ENDBRANCH  20  24
BRANCH  17  26
ATOM     26  C   UNL     1      -6.969   6.328 132.047  0.00  0.00    +0.000 C 
BRANCH  26  27
ATOM     27  O   UNL     1      -6.953   5.820 133.384  0.00  0.00    +0.000 OA
ATOM     28  H   UNL     1      -7.711   6.242 133.839  0.00  0.00    +0.000 HD
ENDBRANCH  26  27
ENDBRANCH  17  26
BRANCH  19  29
ATOM     29  C   UNL     1     -10.493   3.007 131.171  0.00  0.00    +0.000 C 
BRANCH  29  30
ATOM     30  O   UNL     1     -11.518   3.500 130.286  0.00  0.00    +0.000 OA
ATOM     31  H   UNL     1     -11.290   3.218 129.390  0.00  0.00    +0.000 HD
ENDBRANCH  29  30
ENDBRANCH  19  29
ENDBRANCH   1  21
TORSDOF 13
ENDMDL
MODEL 5
REMARK VINA RESULT:      -6.2      1.628      3.681
REMARK  Name = Lactulose
REMARK  13 active torsions:
REMARK  status: ('A' for Active; 'I' for Inactive)
REMARK    1  A    between atoms: O_1  and  C_2
REMARK    2  A    between atoms: C_2  and  C_3
REMARK    3  A    between atoms: C_5  and  O_6
REMARK    4  A    between atoms: C_5  and  C_7
REMARK    5  A    between atoms: C_7  and  O_8
REMARK    6  A    between atoms: C_9  and  O_10
REMARK    7  A    between atoms: C_11  and  O_12
REMARK    8  A    between atoms: O_12  and  C_13
REMARK    9  A    between atoms: C_15  and  C_16
REMARK   10  A    between atoms: C_16  and  O_17
REMARK   11  A    between atoms: C_18  and  O_19
REMARK   12  A    between atoms: C_20  and  O_21
REMARK   13  A    between atoms: C_22  and  O_23
REMARK                            x       y       z     vdW  Elec       q    Type
REMARK                         _______ _______ _______ _____ _____    ______ ____
ROOT
ATOM      1  O   UNL     1      -9.374   6.123 129.067  0.00  0.00    +0.000 OA
ENDROOT
BRANCH   1   2
ATOM      2  C   UNL     1     -10.068   7.368 128.645  0.00  0.00    +0.000 C 
ATOM      3  O   UNL     1     -11.055   7.918 129.520  0.00  0.00    +0.000 OA
ATOM      4  C   UNL     1     -11.964   8.799 128.771  0.00  0.00    +0.000 C 
ATOM      5  C   UNL     1     -12.812   7.998 127.744  0.00  0.00    +0.000 C 
ATOM      6  C   UNL     1     -11.909   7.471 126.667  0.00  0.00    +0.000 C 
ATOM      7  C   UNL     1     -10.744   6.929 127.412  0.00  0.00    +0.000 C 
BRANCH   5   8
ATOM      8  O   UNL     1     -13.515   6.926 128.426  0.00  0.00    +0.000 OA
ATOM      9  H   UNL     1     -13.651   6.177 127.808  0.00  0.00    +0.000 HD
ENDBRANCH   5   8
BRANCH   6  10
ATOM     10  O   UNL     1     -12.597   6.441 125.918  0.00  0.00    +0.000 OA
ATOM     11  H   UNL     1     -13.192   6.874 125.266  0.00  0.00    +0.000 HD
ENDBRANCH   6  10
BRANCH   7  12
ATOM     12  O   UNL     1      -9.745   6.473 126.610  0.00  0.00    +0.000 OA
ATOM     13  H   UNL     1      -8.882   6.937 126.720  0.00  0.00    +0.000 HD
ENDBRANCH   7  12
BRANCH   4  14
ATOM     14  C   UNL     1     -12.892   9.496 129.755  0.00  0.00    +0.000 C 
BRANCH  14  15
ATOM     15  O   UNL     1     -13.079   8.704 130.923  0.00  0.00    +0.000 OA
ATOM     16  H   UNL     1     -13.772   9.163 131.449  0.00  0.00    +0.000 HD
ENDBRANCH  14  15
ENDBRANCH   4  14
ENDBRANCH   1   2
BRANCH   1  21
ATOM     17  C   UNL     1      -9.413   5.801 131.525  0.00  0.00    +0.000 C 
ATOM     18  O   UNL     1      -8.402   4.890 132.077  0.00  0.00    +0.000 OA
ATOM     19  C   UNL     1      -8.456   3.608 131.430  0.00  0.00    +0.000 C 
ATOM     20  C   UNL     1      -9.687   3.724 130.508  0.00  0.00    +0.000 C 
ATOM     21  C   UNL     1      -9.924   5.271 130.172  0.00  0.00    +0.000 C 
BRANCH  19  22
ATOM     22  O   UNL     1      -8.729   2.590 132.409  0.00  0.00    +0.000 OA
ATOM     23  H   UNL     1      -9.191   1.884 131.927  0.00  0.00    +0.000 HD
ENDBRANCH  19  22
BRANCH  20  24
ATOM     24  O   UNL     1     -10.907   3.166 131.069  0.00  0.00    +0.000 OA
ATOM     25  H   UNL     1     -11.642   3.344 130.443  0.00  0.00    +0.000 HD
ENDBRANCH  20  24
BRANCH  17  26
ATOM     26  C   UNL     1     -10.634   6.020 132.463  0.00  0.00    +0.000 C 
BRANCH  26  27
ATOM     27  O   UNL     1     -11.917   6.044 131.833  0.00  0.00    +0.000 OA
ATOM     28  H   UNL     1     -11.817   5.532 131.004  0.00  0.00    +0.000 HD
ENDBRANCH  26  27
ENDBRANCH  17  26
BRANCH  19  29
ATOM     29  C   UNL     1      -7.099   3.063 130.737  0.00  0.00    +0.000 C 
BRANCH  29  30
ATOM     30  O   UNL     1      -5.982   3.968 130.646  0.00  0.00    +0.000 OA
ATOM     31  H   UNL     1      -6.231   4.786 131.098  0.00  0.00    +0.000 HD
ENDBRANCH  29  30
ENDBRANCH  19  29
ENDBRANCH   1  21
TORSDOF 13
ENDMDL
MODEL 6
REMARK VINA RESULT:      -6.1      1.486      2.202
REMARK  Name = Lactulose
REMARK  13 active torsions:
REMARK  status: ('A' for Active; 'I' for Inactive)
REMARK    1  A    between atoms: O_1  and  C_2
REMARK    2  A    between atoms: C_2  and  C_3
REMARK    3  A    between atoms: C_5  and  O_6
REMARK    4  A    between atoms: C_5  and  C_7
REMARK    5  A    between atoms: C_7  and  O_8
REMARK    6  A    between atoms: C_9  and  O_10
REMARK    7  A    between atoms: C_11  and  O_12
REMARK    8  A    between atoms: O_12  and  C_13
REMARK    9  A    between atoms: C_15  and  C_16
REMARK   10  A    between atoms: C_16  and  O_17
REMARK   11  A    between atoms: C_18  and  O_19
REMARK   12  A    between atoms: C_20  and  O_21
REMARK   13  A    between atoms: C_22  and  O_23
REMARK                            x       y       z     vdW  Elec       q    Type
REMARK                         _______ _______ _______ _____ _____    ______ ____
ROOT
ATOM      1  O   UNL     1      -8.816   7.000 131.424  0.00  0.00    +0.000 OA
ENDROOT
BRANCH   1   2
ATOM      2  C   UNL     1      -9.758   6.514 130.383  0.00  0.00    +0.000 C 
ATOM      3  O   UNL     1      -9.868   7.264 129.171  0.00  0.00    +0.000 OA
ATOM      4  C   UNL     1     -11.144   6.966 128.503  0.00  0.00    +0.000 C 
ATOM      5  C   UNL     1     -12.352   7.472 129.338  0.00  0.00    +0.000 C 
ATOM      6  C   UNL     1     -12.450   6.663 130.599  0.00  0.00    +0.000 C 
ATOM      7  C   UNL     1     -11.049   6.596 131.089  0.00  0.00    +0.000 C 
BRANCH   5   8
ATOM      8  O   UNL     1     -12.190   8.888 129.620  0.00  0.00    +0.000 OA
ATOM      9  H   UNL     1     -13.070   9.296 129.764  0.00  0.00    +0.000 HD
ENDBRANCH   5   8
BRANCH   6  10
ATOM     10  O   UNL     1     -13.318   7.336 131.541  0.00  0.00    +0.000 OA
ATOM     11  H   UNL     1     -13.982   7.859 131.036  0.00  0.00    +0.000 HD
ENDBRANCH   6  10
BRANCH   7  12
ATOM     12  O   UNL     1     -10.892   5.820 132.194  0.00  0.00    +0.000 OA
ATOM     13  H   UNL     1     -11.625   5.883 132.851  0.00  0.00    +0.000 HD
ENDBRANCH   7  12
BRANCH   4  14
ATOM     14  C   UNL     1     -11.153   7.646 127.141  0.00  0.00    +0.000 C 
BRANCH  14  15
ATOM     15  O   UNL     1     -11.663   6.771 126.141  0.00  0.00    +0.000 OA
ATOM     16  H   UNL     1     -10.876   6.370 125.709  0.00  0.00    +0.000 HD
ENDBRANCH  14  15
ENDBRANCH   4  14
ENDBRANCH   1   2
BRANCH   1  21
ATOM     17  C   UNL     1      -7.504   4.956 130.922  0.00  0.00    +0.000 C 
ATOM     18  O   UNL     1      -7.626   3.853 131.884  0.00  0.00    +0.000 OA
ATOM     19  C   UNL     1      -7.320   4.298 133.217  0.00  0.00    +0.000 C 
ATOM     20  C   UNL     1      -6.851   5.752 133.011  0.00  0.00    +0.000 C 
ATOM     21  C   UNL     1      -7.505   6.308 131.660  0.00  0.00    +0.000 C 
BRANCH  19  22
ATOM     22  O   UNL     1      -6.209   3.541 133.729  0.00  0.00    +0.000 OA
ATOM     23  H   UNL     1      -5.494   4.186 133.861  0.00  0.00    +0.000 HD
ENDBRANCH  19  22
BRANCH  20  24
ATOM     24  O   UNL     1      -5.408   5.910 132.942  0.00  0.00    +0.000 OA
ATOM     25  H   UNL     1      -5.041   5.785 133.844  0.00  0.00    +0.000 HD
ENDBRANCH  20  24
BRANCH  17  26
ATOM     26  C   UNL     1      -6.227   4.876 130.039  0.00  0.00    +0.000 C 
BRANCH  26  27
ATOM     27  O   UNL     1      -5.525   6.105 129.831  0.00  0.00    +0.000 OA
ATOM     28  H   UNL     1      -6.214   6.800 129.783  0.00  0.00    +0.000 HD
ENDBRANCH  26  27
ENDBRANCH  17  26
BRANCH  19  29
ATOM     29  C   UNL     1      -8.446   4.068 134.357  0.00  0.00    +0.000 C 
BRANCH  29  30
ATOM     30  O   UNL     1      -9.818   3.957 133.932  0.00  0.00    +0.000 OA
ATOM     31  H   UNL     1     -10.225   4.829 134.031  0.00  0.00    +0.000 HD
ENDBRANCH  29  30
ENDBRANCH  19  29
ENDBRANCH   1  21
TORSDOF 13
ENDMDL
MODEL 7
REMARK VINA RESULT:      -5.9      2.826      6.253
REMARK  Name = Lactulose
REMARK  13 active torsions:
REMARK  status: ('A' for Active; 'I' for Inactive)
REMARK    1  A    between atoms: O_1  and  C_2
REMARK    2  A    between atoms: C_2  and  C_3
REMARK    3  A    between atoms: C_5  and  O_6
REMARK    4  A    between atoms: C_5  and  C_7
REMARK    5  A    between atoms: C_7  and  O_8
REMARK    6  A    between atoms: C_9  and  O_10
REMARK    7  A    between atoms: C_11  and  O_12
REMARK    8  A    between atoms: O_12  and  C_13
REMARK    9  A    between atoms: C_15  and  C_16
REMARK   10  A    between atoms: C_16  and  O_17
REMARK   11  A    between atoms: C_18  and  O_19
REMARK   12  A    between atoms: C_20  and  O_21
REMARK   13  A    between atoms: C_22  and  O_23
REMARK                            x       y       z     vdW  Elec       q    Type
REMARK                         _______ _______ _______ _____ _____    ______ ____
ROOT
ATOM      1  O   UNL     1      -8.816   5.275 128.240  0.00  0.00    +0.000 OA
ENDROOT
BRANCH   1   2
ATOM      2  C   UNL     1      -7.959   4.181 127.713  0.00  0.00    +0.000 C 
ATOM      3  O   UNL     1      -6.730   3.903 128.388  0.00  0.00    +0.000 OA
ATOM      4  C   UNL     1      -5.808   3.190 127.491  0.00  0.00    +0.000 C 
ATOM      5  C   UNL     1      -5.362   4.089 126.305  0.00  0.00    +0.000 C 
ATOM      6  C   UNL     1      -6.542   4.350 125.416  0.00  0.00    +0.000 C 
ATOM      7  C   UNL     1      -7.638   4.679 126.365  0.00  0.00    +0.000 C 
BRANCH   5   8
ATOM      8  O   UNL     1      -4.793   5.323 126.818  0.00  0.00    +0.000 OA
ATOM      9  H   UNL     1      -5.020   6.064 126.216  0.00  0.00    +0.000 HD
ENDBRANCH   5   8
BRANCH   6  10
ATOM     10  O   UNL     1      -6.248   5.455 124.529  0.00  0.00    +0.000 OA
ATOM     11  H   UNL     1      -6.968   6.121 124.610  0.00  0.00    +0.000 HD
ENDBRANCH   6  10
BRANCH   7  12
ATOM     12  O   UNL     1      -8.843   4.866 125.765  0.00  0.00    +0.000 OA
ATOM     13  H   UNL     1      -8.869   4.636 124.806  0.00  0.00    +0.000 HD
ENDBRANCH   7  12
BRANCH   4  14
ATOM     14  C   UNL     1      -4.583   2.763 128.288  0.00  0.00    +0.000 C 
BRANCH  14  15
ATOM     15  O   UNL     1      -3.485   2.492 127.423  0.00  0.00    +0.000 OA
ATOM     16  H   UNL     1      -3.688   1.632 126.994  0.00  0.00    +0.000 HD
ENDBRANCH  14  15
ENDBRANCH   4  14
ENDBRANCH   1   2
BRANCH   1  21
ATOM     17  C   UNL     1      -9.924   4.080 130.109  0.00  0.00    +0.000 C 
ATOM     18  O   UNL     1     -11.342   4.392 130.329  0.00  0.00    +0.000 OA
ATOM     19  C   UNL     1     -11.539   5.807 130.488  0.00  0.00    +0.000 C 
ATOM     20  C   UNL     1     -10.104   6.370 130.493  0.00  0.00    +0.000 C 
ATOM     21  C   UNL     1      -9.158   5.352 129.699  0.00  0.00    +0.000 C 
BRANCH  19  22
ATOM     22  O   UNL     1     -12.122   6.066 131.778  0.00  0.00    +0.000 OA
ATOM     23  H   UNL     1     -11.552   5.608 132.417  0.00  0.00    +0.000 HD
ENDBRANCH  19  22
BRANCH  20  24
ATOM     24  O   UNL     1      -9.555   6.593 131.821  0.00  0.00    +0.000 OA
ATOM     25  H   UNL     1     -10.286   6.872 132.413  0.00  0.00    +0.000 HD
ENDBRANCH  20  24
BRANCH  17  26
ATOM     26  C   UNL     1      -9.223   3.457 131.349  0.00  0.00    +0.000 C 
BRANCH  26  27
ATOM     27  O   UNL     1      -9.899   3.611 132.599  0.00  0.00    +0.000 OA
ATOM     28  H   UNL     1      -9.891   4.572 132.790  0.00  0.00    +0.000 HD
ENDBRANCH  26  27
ENDBRANCH  17  26
BRANCH  19  29
ATOM     29  C   UNL     1     -12.584   6.533 129.488  0.00  0.00    +0.000 C 
BRANCH  29  30
ATOM     30  O   UNL     1     -12.305   6.484 128.075  0.00  0.00    +0.000 OA
ATOM     31  H   UNL     1     -12.075   7.379 127.791  0.00  0.00    +0.000 HD
ENDBRANCH  29  30
ENDBRANCH  19  29
ENDBRANCH   1  21
TORSDOF 13
ENDMDL
MODEL 8
REMARK VINA RESULT:      -5.9      2.582      5.912
REMARK  Name = Lactulose
REMARK  13 active torsions:
REMARK  status: ('A' for Active; 'I' for Inactive)
REMARK    1  A    between atoms: O_1  and  C_2
REMARK    2  A    between atoms: C_2  and  C_3
REMARK    3  A    between atoms: C_5  and  O_6
REMARK    4  A    between atoms: C_5  and  C_7
REMARK    5  A    between atoms: C_7  and  O_8
REMARK    6  A    between atoms: C_9  and  O_10
REMARK    7  A    between atoms: C_11  and  O_12
REMARK    8  A    between atoms: O_12  and  C_13
REMARK    9  A    between atoms: C_15  and  C_16
REMARK   10  A    between atoms: C_16  and  O_17
REMARK   11  A    between atoms: C_18  and  O_19
REMARK   12  A    between atoms: C_20  and  O_21
REMARK   13  A    between atoms: C_22  and  O_23
REMARK                            x       y       z     vdW  Elec       q    Type
REMARK                         _______ _______ _______ _____ _____    ______ ____
ROOT
ATOM      1  O   UNL     1      -8.967   4.680 128.711  0.00  0.00    +0.000 OA
ENDROOT
BRANCH   1   2
ATOM      2  C   UNL     1      -7.593   4.120 128.614  0.00  0.00    +0.000 C 
ATOM      3  O   UNL     1      -6.489   5.012 128.781  0.00  0.00    +0.000 OA
ATOM      4  C   UNL     1      -5.277   4.440 128.174  0.00  0.00    +0.000 C 
ATOM      5  C   UNL     1      -5.413   4.335 126.630  0.00  0.00    +0.000 C 
ATOM      6  C   UNL     1      -6.457   3.309 126.298  0.00  0.00    +0.000 C 
ATOM      7  C   UNL     1      -7.573   3.623 127.227  0.00  0.00    +0.000 C 
BRANCH   5   8
ATOM      8  O   UNL     1      -5.747   5.637 126.081  0.00  0.00    +0.000 OA
ATOM      9  H   UNL     1      -6.574   5.571 125.558  0.00  0.00    +0.000 HD
ENDBRANCH   5   8
BRANCH   6  10
ATOM     10  O   UNL     1      -6.854   3.451 124.913  0.00  0.00    +0.000 OA
ATOM     11  H   UNL     1      -6.675   4.377 124.630  0.00  0.00    +0.000 HD
ENDBRANCH   6  10
BRANCH   7  12
ATOM     12  O   UNL     1      -8.607   2.743 127.157  0.00  0.00    +0.000 OA
ATOM     13  H   UNL     1      -8.438   1.949 126.598  0.00  0.00    +0.000 HD
ENDBRANCH   7  12
BRANCH   4  14
ATOM     14  C   UNL     1      -4.091   5.331 128.516  0.00  0.00    +0.000 C 
BRANCH  14  15
ATOM     15  O   UNL     1      -4.498   6.689 128.646  0.00  0.00    +0.000 OA
ATOM     16  H   UNL     1      -3.783   7.223 128.234  0.00  0.00    +0.000 HD
ENDBRANCH  14  15
ENDBRANCH   4  14
ENDBRANCH   1   2
BRANCH   1  21
ATOM     17  C   UNL     1     -10.282   6.177 130.186  0.00  0.00    +0.000 C 
ATOM     18  O   UNL     1      -9.517   6.961 131.165  0.00  0.00    +0.000 OA
ATOM     19  C   UNL     1      -8.689   6.108 131.972  0.00  0.00    +0.000 C 
ATOM     20  C   UNL     1      -9.093   4.689 131.525  0.00  0.00    +0.000 C 
ATOM     21  C   UNL     1      -9.669   4.773 130.034  0.00  0.00    +0.000 C 
BRANCH  19  22
ATOM     22  O   UNL     1      -9.054   6.258 133.356  0.00  0.00    +0.000 OA
ATOM     23  H   UNL     1      -9.127   5.354 133.705  0.00  0.00    +0.000 HD
ENDBRANCH  19  22
BRANCH  20  24
ATOM     24  O   UNL     1     -10.079   4.051 132.382  0.00  0.00    +0.000 OA
ATOM     25  H   UNL     1     -10.054   4.489 133.259  0.00  0.00    +0.000 HD
ENDBRANCH  20  24
BRANCH  17  26
ATOM     26  C   UNL     1     -11.786   6.024 130.549  0.00  0.00    +0.000 C 
BRANCH  26  27
ATOM     27  O   UNL     1     -12.117   6.152 131.935  0.00  0.00    +0.000 OA
ATOM     28  H   UNL     1     -12.816   6.837 131.979  0.00  0.00    +0.000 HD
ENDBRANCH  26  27
ENDBRANCH  17  26
BRANCH  19  29
ATOM     29  C   UNL     1      -7.101   6.419 132.002  0.00  0.00    +0.000 C 
BRANCH  29  30
ATOM     30  O   UNL     1      -6.520   7.053 130.846  0.00  0.00    +0.000 OA
ATOM     31  H   UNL     1      -6.757   6.524 130.072  0.00  0.00    +0.000 HD
ENDBRANCH  29  30
ENDBRANCH  19  29
ENDBRANCH   1  21
TORSDOF 13
ENDMDL
MODEL 9
REMARK VINA RESULT:      -5.7      1.776      6.023
REMARK  Name = Lactulose
REMARK  13 active torsions:
REMARK  status: ('A' for Active; 'I' for Inactive)
REMARK    1  A    between atoms: O_1  and  C_2
REMARK    2  A    between atoms: C_2  and  C_3
REMARK    3  A    between atoms: C_5  and  O_6
REMARK    4  A    between atoms: C_5  and  C_7
REMARK    5  A    between atoms: C_7  and  O_8
REMARK    6  A    between atoms: C_9  and  O_10
REMARK    7  A    between atoms: C_11  and  O_12
REMARK    8  A    between atoms: O_12  and  C_13
REMARK    9  A    between atoms: C_15  and  C_16
REMARK   10  A    between atoms: C_16  and  O_17
REMARK   11  A    between atoms: C_18  and  O_19
REMARK   12  A    between atoms: C_20  and  O_21
REMARK   13  A    between atoms: C_22  and  O_23
REMARK                            x       y       z     vdW  Elec       q    Type
REMARK                         _______ _______ _______ _____ _____    ______ ____
ROOT
ATOM      1  O   UNL     1      -8.746   5.933 129.347  0.00  0.00    +0.000 OA
ENDROOT
BRANCH   1   2
ATOM      2  C   UNL     1      -8.409   4.644 130.007  0.00  0.00    +0.000 C 
ATOM      3  O   UNL     1      -9.154   4.266 131.166  0.00  0.00    +0.000 OA
ATOM      4  C   UNL     1      -8.398   3.283 131.958  0.00  0.00    +0.000 C 
ATOM      5  C   UNL     1      -7.109   3.909 132.557  0.00  0.00    +0.000 C 
ATOM      6  C   UNL     1      -6.156   4.231 131.444  0.00  0.00    +0.000 C 
ATOM      7  C   UNL     1      -7.013   4.877 130.416  0.00  0.00    +0.000 C 
BRANCH   5   8
ATOM      8  O   UNL     1      -7.455   5.092 133.326  0.00  0.00    +0.000 OA
ATOM      9  H   UNL     1      -6.941   5.860 132.996  0.00  0.00    +0.000 HD
ENDBRANCH   5   8
BRANCH   6  10
ATOM     10  O   UNL     1      -5.128   5.129 131.928  0.00  0.00    +0.000 OA
ATOM     11  H   UNL     1      -4.251   4.771 131.661  0.00  0.00    +0.000 HD
ENDBRANCH   6  10
BRANCH   7  12
ATOM     12  O   UNL     1      -6.356   5.174 129.263  0.00  0.00    +0.000 OA
ATOM     13  H   UNL     1      -6.931   5.503 128.533  0.00  0.00    +0.000 HD
ENDBRANCH   7  12
BRANCH   4  14
ATOM     14  C   UNL     1      -9.285   2.778 133.087  0.00  0.00    +0.000 C 
BRANCH  14  15
ATOM     15  O   UNL     1      -9.810   3.864 133.843  0.00  0.00    +0.000 OA
ATOM     16  H   UNL     1     -10.052   3.487 134.719  0.00  0.00    +0.000 HD
ENDBRANCH  14  15
ENDBRANCH   4  14
ENDBRANCH   1   2
BRANCH   1  21
ATOM     17  C   UNL     1     -10.359   7.810 129.202  0.00  0.00    +0.000 C 
ATOM     18  O   UNL     1     -11.135   8.096 130.416  0.00  0.00    +0.000 OA
ATOM     19  C   UNL     1     -11.817   6.919 130.879  0.00  0.00    +0.000 C 
ATOM     20  C   UNL     1     -11.529   5.881 129.776  0.00  0.00    +0.000 C 
ATOM     21  C   UNL     1     -10.170   6.291 129.037  0.00  0.00    +0.000 C 
BRANCH  19  22
ATOM     22  O   UNL     1     -13.235   7.166 130.898  0.00  0.00    +0.000 OA
ATOM     23  H   UNL     1     -13.548   6.813 131.747  0.00  0.00    +0.000 HD
ENDBRANCH  19  22
BRANCH  20  24
ATOM     24  O   UNL     1     -12.588   5.750 128.788  0.00  0.00    +0.000 OA
ATOM     25  H   UNL     1     -13.062   4.908 128.955  0.00  0.00    +0.000 HD
ENDBRANCH  20  24
BRANCH  17  26
ATOM     26  C   UNL     1     -11.004   8.372 127.903  0.00  0.00    +0.000 C 
BRANCH  26  27
ATOM     27  O   UNL     1     -12.328   8.898 128.033  0.00  0.00    +0.000 OA
ATOM     28  H   UNL     1     -12.837   8.529 127.281  0.00  0.00    +0.000 HD
ENDBRANCH  26  27
ENDBRANCH  17  26
BRANCH  19  29
ATOM     29  C   UNL     1     -11.533   6.440 132.398  0.00  0.00    +0.000 C 
BRANCH  29  30
ATOM     30  O   UNL     1     -10.166   6.430 132.854  0.00  0.00    +0.000 OA
ATOM     31  H   UNL     1      -9.605   6.243 132.089  0.00  0.00    +0.000 HD
ENDBRANCH  29  30
ENDBRANCH  19  29
ENDBRANCH   1  21
TORSDOF 13
ENDMDL
