MODEL 1
REMARK VINA RESULT:      -6.0      0.000      0.000
REMARK  Name = Lamivudine
REMARK  3 active torsions:
REMARK  status: ('A' for Active; 'I' for Inactive)
REMARK    1  A    between atoms: N_6  and  C_9
REMARK    2  A    between atoms: C_12  and  C_13
REMARK    3  A    between atoms: C_13  and  O_14
REMARK                            x       y       z     vdW  Elec       q    Type
REMARK                         _______ _______ _______ _____ _____    ______ ____
ROOT
ATOM      1  N   UNL     1     -13.431  10.118 128.674  0.00  0.00    +0.000 N 
ATOM      2  C   UNL     1     -12.630   9.058 128.990  0.00  0.00    +0.000 A 
ATOM      3  N   UNL     1     -11.823   8.606 128.082  0.00  0.00    +0.000 NA
ATOM      4  C   UNL     1     -10.979   7.559 128.378  0.00  0.00    +0.000 A 
ATOM      5  O   UNL     1     -10.052   7.281 127.612  0.00  0.00    +0.000 OA
ATOM      6  N   UNL     1     -11.175   6.859 129.576  0.00  0.00    +0.000 N 
ATOM      7  C   UNL     1     -12.094   7.304 130.504  0.00  0.00    +0.000 A 
ATOM      8  C   UNL     1     -12.732   8.461 130.334  0.00  0.00    +0.000 A 
ATOM      9  H   UNL     1     -13.501  10.360 127.691  0.00  0.00    +0.000 HD
ATOM     10  H   UNL     1     -14.196  10.404 129.269  0.00  0.00    +0.000 HD
ENDROOT
BRANCH   6  11
ATOM     11  C   UNL     1     -10.211   5.824 129.968  0.00  0.00    +0.000 C 
ATOM     12  C   UNL     1     -10.857   4.537 130.505  0.00  0.00    +0.000 C 
ATOM     13  S   UNL     1      -9.501   3.716 131.355  0.00  0.00    +0.000 S 
ATOM     14  C   UNL     1      -8.614   5.278 131.594  0.00  0.00    +0.000 C 
ATOM     15  O   UNL     1      -9.302   6.354 130.935  0.00  0.00    +0.000 OA
BRANCH  14  16
ATOM     16  C   UNL     1      -8.442   5.607 133.087  0.00  0.00    +0.000 C 
BRANCH  16  17
ATOM     17  O   UNL     1      -9.552   6.344 133.612  0.00  0.00    +0.000 OA
ATOM     18  H   UNL     1      -9.743   7.076 133.005  0.00  0.00    +0.000 HD
ENDBRANCH  16  17
ENDBRANCH  14  16
ENDBRANCH   6  11
TORSDOF 3
ENDMDL
MODEL 2
REMARK VINA RESULT:      -6.0      1.904      3.045
REMARK  Name = Lamivudine
REMARK  3 active torsions:
REMARK  status: ('A' for Active; 'I' for Inactive)
REMARK    1  A    between atoms: N_6  and  C_9
REMARK    2  A    between atoms: C_12  and  C_13
REMARK    3  A    between atoms: C_13  and  O_14
REMARK                            x       y       z     vdW  Elec       q    Type
REMARK                         _______ _______ _______ _____ _____    ______ ____
ROOT
ATOM      1  N   UNL     1     -13.389   9.967 128.708  0.00  0.00    +0.000 N 
ATOM      2  C   UNL     1     -12.551   8.982 129.147  0.00  0.00    +0.000 A 
ATOM      3  N   UNL     1     -12.844   8.376 130.254  0.00  0.00    +0.000 NA
ATOM      4  C   UNL     1     -12.038   7.356 130.709  0.00  0.00    +0.000 A 
ATOM      5  O   UNL     1     -12.430   6.622 131.620  0.00  0.00    +0.000 OA
ATOM      6  N   UNL     1     -10.799   7.154 130.088  0.00  0.00    +0.000 N 
ATOM      7  C   UNL     1     -10.462   7.862 128.951  0.00  0.00    +0.000 A 
ATOM      8  C   UNL     1     -11.344   8.667 128.361  0.00  0.00    +0.000 A 
ATOM      9  H   UNL     1     -14.076  10.311 129.370  0.00  0.00    +0.000 HD
ATOM     10  H   UNL     1     -13.130  10.589 127.955  0.00  0.00    +0.000 HD
ENDROOT
BRANCH   6  11
ATOM     11  C   UNL     1      -9.982   5.998 130.474  0.00  0.00    +0.000 C 
ATOM     12  C   UNL     1      -8.618   6.367 131.078  0.00  0.00    +0.000 C 
ATOM     13  S   UNL     1      -7.684   4.833 130.959  0.00  0.00    +0.000 S 
ATOM     14  C   UNL     1      -8.718   4.228 129.599  0.00  0.00    +0.000 C 
ATOM     15  O   UNL     1      -9.800   5.138 129.346  0.00  0.00    +0.000 OA
BRANCH  14  16
ATOM     16  C   UNL     1      -7.898   4.023 128.314  0.00  0.00    +0.000 C 
BRANCH  16  17
ATOM     17  O   UNL     1      -8.327   4.883 127.253  0.00  0.00    +0.000 OA
ATOM     18  H   UNL     1      -9.234   4.636 127.011  0.00  0.00    +0.000 HD
ENDBRANCH  16  17
ENDBRANCH  14  16
ENDBRANCH   6  11
TORSDOF 3
ENDMDL
MODEL 3
REMARK VINA RESULT:      -5.4      1.762      2.490
REMARK  Name = Lamivudine
REMARK  3 active torsions:
REMARK  status: ('A' for Active; 'I' for Inactive)
REMARK    1  A    between atoms: N_6  and  C_9
REMARK    2  A    between atoms: C_12  and  C_13
REMARK    3  A    between atoms: C_13  and  O_14
REMARK                            x       y       z     vdW  Elec       q    Type
REMARK                         _______ _______ _______ _____ _____    ______ ____
ROOT
ATOM      1  N   UNL     1     -12.839   9.714 128.785  0.00  0.00    +0.000 N 
ATOM      2  C   UNL     1     -12.286   8.564 129.272  0.00  0.00    +0.000 A 
ATOM      3  N   UNL     1     -11.425   7.937 128.534  0.00  0.00    +0.000 NA
ATOM      4  C   UNL     1     -10.825   6.792 129.008  0.00  0.00    +0.000 A 
ATOM      5  O   UNL     1      -9.842   6.326 128.424  0.00  0.00    +0.000 OA
ATOM      6  N   UNL     1     -11.327   6.207 130.177  0.00  0.00    +0.000 N 
ATOM      7  C   UNL     1     -12.301   6.847 130.917  0.00  0.00    +0.000 A 
ATOM      8  C   UNL     1     -12.704   8.076 130.598  0.00  0.00    +0.000 A 
ATOM      9  H   UNL     1     -12.705   9.902 127.797  0.00  0.00    +0.000 HD
ATOM     10  H   UNL     1     -13.634  10.152 129.229  0.00  0.00    +0.000 HD
ENDROOT
BRANCH   6  11
ATOM     11  C   UNL     1     -10.624   5.061 130.766  0.00  0.00    +0.000 C 
ATOM     12  C   UNL     1      -9.251   5.408 131.364  0.00  0.00    +0.000 C 
ATOM     13  S   UNL     1      -8.449   3.805 131.516  0.00  0.00    +0.000 S 
ATOM     14  C   UNL     1      -9.490   3.084 130.220  0.00  0.00    +0.000 C 
ATOM     15  O   UNL     1     -10.483   4.028 129.788  0.00  0.00    +0.000 OA
BRANCH  14  16
ATOM     16  C   UNL     1      -8.653   2.620 129.016  0.00  0.00    +0.000 C 
BRANCH  16  17
ATOM     17  O   UNL     1      -8.479   3.657 128.044  0.00  0.00    +0.000 OA
ATOM     18  H   UNL     1      -7.691   4.169 128.285  0.00  0.00    +0.000 HD
ENDBRANCH  16  17
ENDBRANCH  14  16
ENDBRANCH   6  11
TORSDOF 3
ENDMDL
MODEL 4
REMARK VINA RESULT:      -5.2      2.212      2.944
REMARK  Name = Lamivudine
REMARK  3 active torsions:
REMARK  status: ('A' for Active; 'I' for Inactive)
REMARK    1  A    between atoms: N_6  and  C_9
REMARK    2  A    between atoms: C_12  and  C_13
REMARK    3  A    between atoms: C_13  and  O_14
REMARK                            x       y       z     vdW  Elec       q    Type
REMARK                         _______ _______ _______ _____ _____    ______ ____
ROOT
ATOM      1  N   UNL     1     -13.266   7.785 127.722  0.00  0.00    +0.000 N 
ATOM      2  C   UNL     1     -12.240   7.279 128.467  0.00  0.00    +0.000 A 
ATOM      3  N   UNL     1     -12.395   6.115 129.016  0.00  0.00    +0.000 NA
ATOM      4  C   UNL     1     -11.367   5.563 129.747  0.00  0.00    +0.000 A 
ATOM      5  O   UNL     1     -11.412   4.371 130.068  0.00  0.00    +0.000 OA
ATOM      6  N   UNL     1     -10.267   6.367 130.071  0.00  0.00    +0.000 N 
ATOM      7  C   UNL     1     -10.149   7.637 129.542  0.00  0.00    +0.000 A 
ATOM      8  C   UNL     1     -11.014   8.081 128.633  0.00  0.00    +0.000 A 
ATOM      9  H   UNL     1     -14.165   7.321 127.810  0.00  0.00    +0.000 HD
ATOM     10  H   UNL     1     -13.277   8.748 127.415  0.00  0.00    +0.000 HD
ENDROOT
BRANCH   6  11
ATOM     11  C   UNL     1      -9.108   5.763 130.739  0.00  0.00    +0.000 C 
ATOM     12  C   UNL     1      -9.046   6.031 132.252  0.00  0.00    +0.000 C 
ATOM     13  S   UNL     1      -7.340   5.647 132.670  0.00  0.00    +0.000 S 
ATOM     14  C   UNL     1      -6.783   5.943 130.972  0.00  0.00    +0.000 C 
ATOM     15  O   UNL     1      -7.904   6.212 130.114  0.00  0.00    +0.000 OA
BRANCH  14  16
ATOM     16  C   UNL     1      -5.780   7.108 130.901  0.00  0.00    +0.000 C 
BRANCH  16  17
ATOM     17  O   UNL     1      -4.924   7.018 129.757  0.00  0.00    +0.000 OA
ATOM     18  H   UNL     1      -5.190   6.241 129.240  0.00  0.00    +0.000 HD
ENDBRANCH  16  17
ENDBRANCH  14  16
ENDBRANCH   6  11
TORSDOF 3
ENDMDL
MODEL 5
REMARK VINA RESULT:      -5.2      8.912     10.154
REMARK  Name = Lamivudine
REMARK  3 active torsions:
REMARK  status: ('A' for Active; 'I' for Inactive)
REMARK    1  A    between atoms: N_6  and  C_9
REMARK    2  A    between atoms: C_12  and  C_13
REMARK    3  A    between atoms: C_13  and  O_14
REMARK                            x       y       z     vdW  Elec       q    Type
REMARK                         _______ _______ _______ _____ _____    ______ ____
ROOT
ATOM      1  N   UNL     1      -5.262   5.225 119.099  0.00  0.00    +0.000 N 
ATOM      2  C   UNL     1      -6.036   4.590 120.028  0.00  0.00    +0.000 A 
ATOM      3  N   UNL     1      -7.307   4.483 119.799  0.00  0.00    +0.000 NA
ATOM      4  C   UNL     1      -8.110   3.821 120.700  0.00  0.00    +0.000 A 
ATOM      5  O   UNL     1      -9.261   3.507 120.382  0.00  0.00    +0.000 OA
ATOM      6  N   UNL     1      -7.577   3.481 121.950  0.00  0.00    +0.000 N 
ATOM      7  C   UNL     1      -6.235   3.671 122.213  0.00  0.00    +0.000 A 
ATOM      8  C   UNL     1      -5.402   4.076 121.256  0.00  0.00    +0.000 A 
ATOM      9  H   UNL     1      -5.750   5.757 118.386  0.00  0.00    +0.000 HD
ATOM     10  H   UNL     1      -4.307   5.493 119.295  0.00  0.00    +0.000 HD
ENDROOT
BRANCH   6  11
ATOM     11  C   UNL     1      -8.375   2.666 122.873  0.00  0.00    +0.000 C 
ATOM     12  C   UNL     1      -8.271   3.102 124.343  0.00  0.00    +0.000 C 
ATOM     13  S   UNL     1      -8.890   1.672 125.243  0.00  0.00    +0.000 S 
ATOM     14  C   UNL     1      -8.489   0.551 123.877  0.00  0.00    +0.000 C 
ATOM     15  O   UNL     1      -8.007   1.291 122.744  0.00  0.00    +0.000 OA
BRANCH  14  16
ATOM     16  C   UNL     1      -7.446  -0.499 124.297  0.00  0.00    +0.000 C 
BRANCH  16  17
ATOM     17  O   UNL     1      -6.534  -0.811 123.238  0.00  0.00    +0.000 OA
ATOM     18  H   UNL     1      -5.965  -1.539 123.533  0.00  0.00    +0.000 HD
ENDBRANCH  16  17
ENDBRANCH  14  16
ENDBRANCH   6  11
TORSDOF 3
ENDMDL
MODEL 6
REMARK VINA RESULT:      -5.1      8.639      9.745
REMARK  Name = Lamivudine
REMARK  3 active torsions:
REMARK  status: ('A' for Active; 'I' for Inactive)
REMARK    1  A    between atoms: N_6  and  C_9
REMARK    2  A    between atoms: C_12  and  C_13
REMARK    3  A    between atoms: C_13  and  O_14
REMARK                            x       y       z     vdW  Elec       q    Type
REMARK                         _______ _______ _______ _____ _____    ______ ____
ROOT
ATOM      1  N   UNL     1      -7.838   3.693 121.852  0.00  0.00    +0.000 N 
ATOM      2  C   UNL     1      -8.126   2.685 122.727  0.00  0.00    +0.000 A 
ATOM      3  N   UNL     1      -9.353   2.547 123.122  0.00  0.00    +0.000 NA
ATOM      4  C   UNL     1      -9.683   1.521 123.979  0.00  0.00    +0.000 A 
ATOM      5  O   UNL     1     -10.869   1.237 124.170  0.00  0.00    +0.000 OA
ATOM      6  N   UNL     1      -8.650   0.794 124.583  0.00  0.00    +0.000 N 
ATOM      7  C   UNL     1      -7.337   1.003 124.211  0.00  0.00    +0.000 A 
ATOM      8  C   UNL     1      -7.035   1.815 123.200  0.00  0.00    +0.000 A 
ATOM      9  H   UNL     1      -8.552   4.402 121.721  0.00  0.00    +0.000 HD
ATOM     10  H   UNL     1      -6.886   3.960 121.642  0.00  0.00    +0.000 HD
ENDROOT
BRANCH   6  11
ATOM     11  C   UNL     1      -8.980  -0.380 125.399  0.00  0.00    +0.000 C 
ATOM     12  C   UNL     1      -7.904  -0.749 126.432  0.00  0.00    +0.000 C 
ATOM     13  S   UNL     1      -8.322  -2.440 126.881  0.00  0.00    +0.000 S 
ATOM     14  C   UNL     1      -9.194  -2.713 125.316  0.00  0.00    +0.000 C 
ATOM     15  O   UNL     1      -9.244  -1.499 124.549  0.00  0.00    +0.000 OA
BRANCH  14  16
ATOM     16  C   UNL     1      -8.531  -3.826 124.486  0.00  0.00    +0.000 C 
BRANCH  16  17
ATOM     17  O   UNL     1      -7.116  -3.642 124.366  0.00  0.00    +0.000 OA
ATOM     18  H   UNL     1      -6.682  -4.484 124.577  0.00  0.00    +0.000 HD
ENDBRANCH  16  17
ENDBRANCH  14  16
ENDBRANCH   6  11
TORSDOF 3
ENDMDL
MODEL 7
REMARK VINA RESULT:      -5.1      9.894     11.746
REMARK  Name = Lamivudine
REMARK  3 active torsions:
REMARK  status: ('A' for Active; 'I' for Inactive)
REMARK    1  A    between atoms: N_6  and  C_9
REMARK    2  A    between atoms: C_12  and  C_13
REMARK    3  A    between atoms: C_13  and  O_14
REMARK                            x       y       z     vdW  Elec       q    Type
REMARK                         _______ _______ _______ _____ _____    ______ ____
ROOT
ATOM      1  N   UNL     1      -4.214  -4.136 123.596  0.00  0.00    +0.000 N 
ATOM      2  C   UNL     1      -5.106  -3.117 123.771  0.00  0.00    +0.000 A 
ATOM      3  N   UNL     1      -5.451  -2.804 124.980  0.00  0.00    +0.000 NA
ATOM      4  C   UNL     1      -6.325  -1.761 125.193  0.00  0.00    +0.000 A 
ATOM      5  O   UNL     1      -6.473  -1.305 126.330  0.00  0.00    +0.000 OA
ATOM      6  N   UNL     1      -6.997  -1.214 124.092  0.00  0.00    +0.000 N 
ATOM      7  C   UNL     1      -6.676  -1.612 122.809  0.00  0.00    +0.000 A 
ATOM      8  C   UNL     1      -5.654  -2.435 122.584  0.00  0.00    +0.000 A 
ATOM      9  H   UNL     1      -4.029  -4.724 124.402  0.00  0.00    +0.000 HD
ATOM     10  H   UNL     1      -4.038  -4.539 122.686  0.00  0.00    +0.000 HD
ENDROOT
BRANCH   6  11
ATOM     11  C   UNL     1      -7.834  -0.024 124.280  0.00  0.00    +0.000 C 
ATOM     12  C   UNL     1      -9.155  -0.056 123.495  0.00  0.00    +0.000 C 
ATOM     13  S   UNL     1      -9.682   1.664 123.501  0.00  0.00    +0.000 S 
ATOM     14  C   UNL     1      -7.987   2.255 123.753  0.00  0.00    +0.000 C 
ATOM     15  O   UNL     1      -7.090   1.147 123.937  0.00  0.00    +0.000 OA
BRANCH  14  16
ATOM     16  C   UNL     1      -7.511   3.121 122.574  0.00  0.00    +0.000 C 
BRANCH  16  17
ATOM     17  O   UNL     1      -8.602   3.716 121.862  0.00  0.00    +0.000 OA
ATOM     18  H   UNL     1      -9.395   3.181 122.024  0.00  0.00    +0.000 HD
ENDBRANCH  16  17
ENDBRANCH  14  16
ENDBRANCH   6  11
TORSDOF 3
ENDMDL
MODEL 8
REMARK VINA RESULT:      -5.1      3.065      5.336
REMARK  Name = Lamivudine
REMARK  3 active torsions:
REMARK  status: ('A' for Active; 'I' for Inactive)
REMARK    1  A    between atoms: N_6  and  C_9
REMARK    2  A    between atoms: C_12  and  C_13
REMARK    3  A    between atoms: C_13  and  O_14
REMARK                            x       y       z     vdW  Elec       q    Type
REMARK                         _______ _______ _______ _____ _____    ______ ____
ROOT
ATOM      1  N   UNL     1      -8.471   2.773 132.446  0.00  0.00    +0.000 N 
ATOM      2  C   UNL     1      -8.936   3.903 131.837  0.00  0.00    +0.000 A 
ATOM      3  N   UNL     1      -8.889   3.967 130.544  0.00  0.00    +0.000 NA
ATOM      4  C   UNL     1      -9.378   5.080 129.897  0.00  0.00    +0.000 A 
ATOM      5  O   UNL     1      -9.558   5.053 128.676  0.00  0.00    +0.000 OA
ATOM      6  N   UNL     1      -9.703   6.210 130.659  0.00  0.00    +0.000 N 
ATOM      7  C   UNL     1      -9.674   6.155 132.039  0.00  0.00    +0.000 A 
ATOM      8  C   UNL     1      -9.447   5.006 132.672  0.00  0.00    +0.000 A 
ATOM      9  H   UNL     1      -7.928   2.136 131.872  0.00  0.00    +0.000 HD
ATOM     10  H   UNL     1      -8.320   2.729 133.444  0.00  0.00    +0.000 HD
ENDROOT
BRANCH   6  11
ATOM     11  C   UNL     1     -10.342   7.358 130.006  0.00  0.00    +0.000 C 
ATOM     12  C   UNL     1     -11.877   7.290 129.980  0.00  0.00    +0.000 C 
ATOM     13  S   UNL     1     -12.324   8.491 128.718  0.00  0.00    +0.000 S 
ATOM     14  C   UNL     1     -10.705   8.353 127.915  0.00  0.00    +0.000 C 
ATOM     15  O   UNL     1      -9.837   7.497 128.675  0.00  0.00    +0.000 OA
BRANCH  14  16
ATOM     16  C   UNL     1     -10.832   7.822 126.477  0.00  0.00    +0.000 C 
BRANCH  16  17
ATOM     17  O   UNL     1     -10.272   6.512 126.331  0.00  0.00    +0.000 OA
ATOM     18  H   UNL     1     -10.307   6.070 127.194  0.00  0.00    +0.000 HD
ENDBRANCH  16  17
ENDBRANCH  14  16
ENDBRANCH   6  11
TORSDOF 3
ENDMDL
MODEL 9
REMARK VINA RESULT:      -5.0      8.248      9.989
REMARK  Name = Lamivudine
REMARK  3 active torsions:
REMARK  status: ('A' for Active; 'I' for Inactive)
REMARK    1  A    between atoms: N_6  and  C_9
REMARK    2  A    between atoms: C_12  and  C_13
REMARK    3  A    between atoms: C_13  and  O_14
REMARK                            x       y       z     vdW  Elec       q    Type
REMARK                         _______ _______ _______ _____ _____    ______ ____
ROOT
ATOM      1  N   UNL     1      -8.897  -3.788 127.012  0.00  0.00    +0.000 N 
ATOM      2  C   UNL     1      -8.777  -2.653 126.263  0.00  0.00    +0.000 A 
ATOM      3  N   UNL     1      -9.191  -2.680 125.035  0.00  0.00    +0.000 NA
ATOM      4  C   UNL     1      -9.114  -1.543 124.263  0.00  0.00    +0.000 A 
ATOM      5  O   UNL     1      -9.716  -1.489 123.186  0.00  0.00    +0.000 OA
ATOM      6  N   UNL     1      -8.382  -0.452 124.747  0.00  0.00    +0.000 N 
ATOM      7  C   UNL     1      -7.877  -0.463 126.032  0.00  0.00    +0.000 A 
ATOM      8  C   UNL     1      -8.166  -1.457 126.870  0.00  0.00    +0.000 A 
ATOM      9  H   UNL     1      -9.109  -4.645 126.511  0.00  0.00    +0.000 HD
ATOM     10  H   UNL     1      -8.441  -3.885 127.908  0.00  0.00    +0.000 HD
ENDROOT
BRANCH   6  11
ATOM     11  C   UNL     1      -8.392   0.809 123.998  0.00  0.00    +0.000 C 
ATOM     12  C   UNL     1      -7.053   1.151 123.325  0.00  0.00    +0.000 C 
ATOM     13  S   UNL     1      -7.209   2.905 122.958  0.00  0.00    +0.000 S 
ATOM     14  C   UNL     1      -8.448   3.138 124.260  0.00  0.00    +0.000 C 
ATOM     15  O   UNL     1      -8.792   1.878 124.858  0.00  0.00    +0.000 OA
BRANCH  14  16
ATOM     16  C   UNL     1      -7.952   4.112 125.343  0.00  0.00    +0.000 C 
BRANCH  16  17
ATOM     17  O   UNL     1      -8.843   5.217 125.528  0.00  0.00    +0.000 OA
ATOM     18  H   UNL     1      -8.357   6.034 125.330  0.00  0.00    +0.000 HD
ENDBRANCH  16  17
ENDBRANCH  14  16
ENDBRANCH   6  11
TORSDOF 3
ENDMDL
