MODEL 1
REMARK VINA RESULT:      -6.4      0.000      0.000
REMARK  Name = Lamotrigine
REMARK  2 active torsions:
REMARK  status: ('A' for Active; 'I' for Inactive)
REMARK    1  A    between atoms: C_4  and  N_5
REMARK    2  A    between atoms: C_6  and  C_9
REMARK                            x       y       z     vdW  Elec       q    Type
REMARK                         _______ _______ _______ _____ _____    ______ ____
ROOT
ATOM      1  N   UNL     1     -10.932   8.251 127.332  0.00  0.00    +0.000 N 
ATOM      2  C   UNL     1     -10.705   7.267 128.252  0.00  0.00    +0.000 A 
ATOM      3  N   UNL     1     -11.526   7.210 129.311  0.00  0.00    +0.000 NA
ATOM      4  C   UNL     1     -11.252   6.267 130.229  0.00  0.00    +0.000 A 
ATOM      5  C   UNL     1     -10.179   5.382 130.082  0.00  0.00    +0.000 A 
ATOM      6  N   UNL     1      -9.386   5.473 128.993  0.00  0.00    +0.000 NA
ATOM      7  N   UNL     1      -9.661   6.431 128.068  0.00  0.00    +0.000 NA
ATOM      8  H   UNL     1     -11.752   8.822 127.456  0.00  0.00    +0.000 HD
ATOM      9  H   UNL     1     -10.399   8.237 126.479  0.00  0.00    +0.000 HD
ENDROOT
BRANCH   5  10
ATOM     10  C   UNL     1      -9.848   4.324 131.043  0.00  0.00    +0.000 A 
ATOM     11  C   UNL     1      -9.039   4.550 132.182  0.00  0.00    +0.000 A 
ATOM     12 CL   UNL     1      -8.501   6.161 132.572  0.00  0.00    +0.000 Cl
ATOM     13  C   UNL     1      -8.667   3.478 133.007  0.00  0.00    +0.000 A 
ATOM     14 CL   UNL     1      -7.600   3.673 134.357  0.00  0.00    +0.000 Cl
ATOM     15  C   UNL     1      -9.135   2.191 132.743  0.00  0.00    +0.000 A 
ATOM     16  C   UNL     1      -9.973   1.962 131.655  0.00  0.00    +0.000 A 
ATOM     17  C   UNL     1     -10.320   3.016 130.810  0.00  0.00    +0.000 A 
ENDBRANCH   5  10
BRANCH   4  18
ATOM     18  N   UNL     1     -12.022   6.313 131.402  0.00  0.00    +0.000 N 
ATOM     19  H   UNL     1     -12.443   7.234 131.487  0.00  0.00    +0.000 HD
ATOM     20  H   UNL     1     -12.703   5.567 131.481  0.00  0.00    +0.000 HD
ENDBRANCH   4  18
TORSDOF 2
ENDMDL
MODEL 2
REMARK VINA RESULT:      -6.3      8.618     10.333
REMARK  Name = Lamotrigine
REMARK  2 active torsions:
REMARK  status: ('A' for Active; 'I' for Inactive)
REMARK    1  A    between atoms: C_4  and  N_5
REMARK    2  A    between atoms: C_6  and  C_9
REMARK                            x       y       z     vdW  Elec       q    Type
REMARK                         _______ _______ _______ _____ _____    ______ ____
ROOT
ATOM      1  N   UNL     1      -9.538   0.859 126.355  0.00  0.00    +0.000 N 
ATOM      2  C   UNL     1      -8.897   1.473 125.316  0.00  0.00    +0.000 A 
ATOM      3  N   UNL     1      -8.185   0.697 124.485  0.00  0.00    +0.000 NA
ATOM      4  C   UNL     1      -7.521   1.329 123.502  0.00  0.00    +0.000 A 
ATOM      5  C   UNL     1      -7.580   2.718 123.344  0.00  0.00    +0.000 A 
ATOM      6  N   UNL     1      -8.317   3.454 124.201  0.00  0.00    +0.000 NA
ATOM      7  N   UNL     1      -8.985   2.815 125.199  0.00  0.00    +0.000 NA
ATOM      8  H   UNL     1      -9.511  -0.147 126.387  0.00  0.00    +0.000 HD
ATOM      9  H   UNL     1     -10.165   1.408 126.918  0.00  0.00    +0.000 HD
ENDROOT
BRANCH   5  10
ATOM     10  C   UNL     1      -6.890   3.454 122.278  0.00  0.00    +0.000 A 
ATOM     11  C   UNL     1      -7.478   3.699 121.014  0.00  0.00    +0.000 A 
ATOM     12 CL   UNL     1      -9.134   3.246 120.712  0.00  0.00    +0.000 Cl
ATOM     13  C   UNL     1      -6.733   4.312 119.996  0.00  0.00    +0.000 A 
ATOM     14 CL   UNL     1      -7.361   4.551 118.400  0.00  0.00    +0.000 Cl
ATOM     15  C   UNL     1      -5.425   4.734 120.237  0.00  0.00    +0.000 A 
ATOM     16  C   UNL     1      -4.850   4.544 121.491  0.00  0.00    +0.000 A 
ATOM     17  C   UNL     1      -5.573   3.904 122.498  0.00  0.00    +0.000 A 
ENDBRANCH   5  10
BRANCH   4  18
ATOM     18  N   UNL     1      -6.662   0.529 122.732  0.00  0.00    +0.000 N 
ATOM     19  H   UNL     1      -5.701   0.805 122.912  0.00  0.00    +0.000 HD
ATOM     20  H   UNL     1      -6.808  -0.467 122.848  0.00  0.00    +0.000 HD
ENDBRANCH   4  18
TORSDOF 2
ENDMDL
MODEL 3
REMARK VINA RESULT:      -6.3      1.722      2.250
REMARK  Name = Lamotrigine
REMARK  2 active torsions:
REMARK  status: ('A' for Active; 'I' for Inactive)
REMARK    1  A    between atoms: C_4  and  N_5
REMARK    2  A    between atoms: C_6  and  C_9
REMARK                            x       y       z     vdW  Elec       q    Type
REMARK                         _______ _______ _______ _____ _____    ______ ____
ROOT
ATOM      1  N   UNL     1     -11.491   8.976 128.235  0.00  0.00    +0.000 N 
ATOM      2  C   UNL     1     -10.965   8.081 129.123  0.00  0.00    +0.000 A 
ATOM      3  N   UNL     1     -11.798   7.549 130.030  0.00  0.00    +0.000 NA
ATOM      4  C   UNL     1     -11.247   6.712 130.926  0.00  0.00    +0.000 A 
ATOM      5  C   UNL     1      -9.884   6.400 130.907  0.00  0.00    +0.000 A 
ATOM      6  N   UNL     1      -9.088   6.954 129.969  0.00  0.00    +0.000 NA
ATOM      7  N   UNL     1      -9.644   7.806 129.066  0.00  0.00    +0.000 NA
ATOM      8  H   UNL     1     -12.487   9.119 128.255  0.00  0.00    +0.000 HD
ATOM      9  H   UNL     1     -10.907   9.297 127.481  0.00  0.00    +0.000 HD
ENDROOT
BRANCH   5  10
ATOM     10  C   UNL     1      -9.238   5.479 131.849  0.00  0.00    +0.000 A 
ATOM     11  C   UNL     1      -9.245   4.074 131.672  0.00  0.00    +0.000 A 
ATOM     12 CL   UNL     1      -9.919   3.374 130.225  0.00  0.00    +0.000 Cl
ATOM     13  C   UNL     1      -8.707   3.236 132.659  0.00  0.00    +0.000 A 
ATOM     14 CL   UNL     1      -8.773   1.509 132.548  0.00  0.00    +0.000 Cl
ATOM     15  C   UNL     1      -8.112   3.781 133.797  0.00  0.00    +0.000 A 
ATOM     16  C   UNL     1      -8.053   5.162 133.961  0.00  0.00    +0.000 A 
ATOM     17  C   UNL     1      -8.616   6.002 133.001  0.00  0.00    +0.000 A 
ENDBRANCH   5  10
BRANCH   4  18
ATOM     18  N   UNL     1     -12.095   6.279 131.959  0.00  0.00    +0.000 N 
ATOM     19  H   UNL     1     -12.905   5.819 131.552  0.00  0.00    +0.000 HD
ATOM     20  H   UNL     1     -11.636   5.711 132.661  0.00  0.00    +0.000 HD
ENDBRANCH   4  18
TORSDOF 2
ENDMDL
MODEL 4
REMARK VINA RESULT:      -6.2      8.001      8.744
REMARK  Name = Lamotrigine
REMARK  2 active torsions:
REMARK  status: ('A' for Active; 'I' for Inactive)
REMARK    1  A    between atoms: C_4  and  N_5
REMARK    2  A    between atoms: C_6  and  C_9
REMARK                            x       y       z     vdW  Elec       q    Type
REMARK                         _______ _______ _______ _____ _____    ______ ____
ROOT
ATOM      1  N   UNL     1      -6.829   4.179 122.651  0.00  0.00    +0.000 N 
ATOM      2  C   UNL     1      -7.327   2.945 122.957  0.00  0.00    +0.000 A 
ATOM      3  N   UNL     1      -8.632   2.862 123.257  0.00  0.00    +0.000 NA
ATOM      4  C   UNL     1      -9.089   1.647 123.605  0.00  0.00    +0.000 A 
ATOM      5  C   UNL     1      -8.254   0.525 123.640  0.00  0.00    +0.000 A 
ATOM      6  N   UNL     1      -6.949   0.657 123.321  0.00  0.00    +0.000 NA
ATOM      7  N   UNL     1      -6.487   1.888 122.974  0.00  0.00    +0.000 NA
ATOM      8  H   UNL     1      -7.484   4.941 122.584  0.00  0.00    +0.000 HD
ATOM      9  H   UNL     1      -5.882   4.240 122.316  0.00  0.00    +0.000 HD
ENDROOT
BRANCH   5  10
ATOM     10  C   UNL     1      -8.706  -0.825 123.994  0.00  0.00    +0.000 A 
ATOM     11  C   UNL     1      -8.693  -1.312 125.323  0.00  0.00    +0.000 A 
ATOM     12 CL   UNL     1      -8.257  -0.259 126.641  0.00  0.00    +0.000 Cl
ATOM     13  C   UNL     1      -9.033  -2.647 125.588  0.00  0.00    +0.000 A 
ATOM     14 CL   UNL     1      -8.943  -3.330 127.177  0.00  0.00    +0.000 Cl
ATOM     15  C   UNL     1      -9.440  -3.489 124.553  0.00  0.00    +0.000 A 
ATOM     16  C   UNL     1      -9.506  -3.009 123.248  0.00  0.00    +0.000 A 
ATOM     17  C   UNL     1      -9.136  -1.694 122.970  0.00  0.00    +0.000 A 
ENDBRANCH   5  10
BRANCH   4  18
ATOM     18  N   UNL     1     -10.416   1.601 124.061  0.00  0.00    +0.000 N 
ATOM     19  H   UNL     1     -11.040   1.553 123.260  0.00  0.00    +0.000 HD
ATOM     20  H   UNL     1     -10.597   0.869 124.738  0.00  0.00    +0.000 HD
ENDBRANCH   4  18
TORSDOF 2
ENDMDL
MODEL 5
REMARK VINA RESULT:      -6.1      1.888      2.548
REMARK  Name = Lamotrigine
REMARK  2 active torsions:
REMARK  status: ('A' for Active; 'I' for Inactive)
REMARK    1  A    between atoms: C_4  and  N_5
REMARK    2  A    between atoms: C_6  and  C_9
REMARK                            x       y       z     vdW  Elec       q    Type
REMARK                         _______ _______ _______ _____ _____    ______ ____
ROOT
ATOM      1  N   UNL     1     -13.403   7.438 127.362  0.00  0.00    +0.000 N 
ATOM      2  C   UNL     1     -12.385   7.004 128.163  0.00  0.00    +0.000 A 
ATOM      3  N   UNL     1     -12.667   6.783 129.456  0.00  0.00    +0.000 NA
ATOM      4  C   UNL     1     -11.639   6.407 130.236  0.00  0.00    +0.000 A 
ATOM      5  C   UNL     1     -10.347   6.240 129.726  0.00  0.00    +0.000 A 
ATOM      6  N   UNL     1     -10.115   6.465 128.416  0.00  0.00    +0.000 NA
ATOM      7  N   UNL     1     -11.155   6.851 127.628  0.00  0.00    +0.000 NA
ATOM      8  H   UNL     1     -14.324   7.485 127.766  0.00  0.00    +0.000 HD
ATOM      9  H   UNL     1     -13.236   7.499 126.372  0.00  0.00    +0.000 HD
ENDROOT
BRANCH   5  10
ATOM     10  C   UNL     1      -9.196   5.813 130.529  0.00  0.00    +0.000 A 
ATOM     11  C   UNL     1      -9.012   4.474 130.950  0.00  0.00    +0.000 A 
ATOM     12 CL   UNL     1     -10.098   3.224 130.407  0.00  0.00    +0.000 Cl
ATOM     13  C   UNL     1      -7.951   4.144 131.807  0.00  0.00    +0.000 A 
ATOM     14 CL   UNL     1      -7.729   2.546 132.437  0.00  0.00    +0.000 Cl
ATOM     15  C   UNL     1      -7.038   5.120 132.206  0.00  0.00    +0.000 A 
ATOM     16  C   UNL     1      -7.178   6.431 131.758  0.00  0.00    +0.000 A 
ATOM     17  C   UNL     1      -8.249   6.775 130.934  0.00  0.00    +0.000 A 
ENDBRANCH   5  10
BRANCH   4  18
ATOM     18  N   UNL     1     -11.913   6.325 131.610  0.00  0.00    +0.000 N 
ATOM     19  H   UNL     1     -11.139   5.860 132.075  0.00  0.00    +0.000 HD
ATOM     20  H   UNL     1     -12.148   7.212 132.040  0.00  0.00    +0.000 HD
ENDBRANCH   4  18
TORSDOF 2
ENDMDL
MODEL 6
REMARK VINA RESULT:      -6.0      3.177      5.586
REMARK  Name = Lamotrigine
REMARK  2 active torsions:
REMARK  status: ('A' for Active; 'I' for Inactive)
REMARK    1  A    between atoms: C_4  and  N_5
REMARK    2  A    between atoms: C_6  and  C_9
REMARK                            x       y       z     vdW  Elec       q    Type
REMARK                         _______ _______ _______ _____ _____    ______ ____
ROOT
ATOM      1  N   UNL     1      -7.585   3.415 134.039  0.00  0.00    +0.000 N 
ATOM      2  C   UNL     1      -8.465   4.151 133.297  0.00  0.00    +0.000 A 
ATOM      3  N   UNL     1      -9.304   3.484 132.491  0.00  0.00    +0.000 NA
ATOM      4  C   UNL     1     -10.124   4.231 131.732  0.00  0.00    +0.000 A 
ATOM      5  C   UNL     1     -10.115   5.629 131.789  0.00  0.00    +0.000 A 
ATOM      6  N   UNL     1      -9.258   6.255 132.623  0.00  0.00    +0.000 NA
ATOM      7  N   UNL     1      -8.424   5.498 133.386  0.00  0.00    +0.000 NA
ATOM      8  H   UNL     1      -7.674   2.413 134.004  0.00  0.00    +0.000 HD
ATOM      9  H   UNL     1      -7.029   3.891 134.729  0.00  0.00    +0.000 HD
ENDROOT
BRANCH   5  10
ATOM     10  C   UNL     1     -11.001   6.490 130.998  0.00  0.00    +0.000 A 
ATOM     11  C   UNL     1     -10.733   6.831 129.651  0.00  0.00    +0.000 A 
ATOM     12 CL   UNL     1      -9.380   6.117 128.815  0.00  0.00    +0.000 Cl
ATOM     13  C   UNL     1     -11.558   7.744 128.977  0.00  0.00    +0.000 A 
ATOM     14 CL   UNL     1     -11.228   8.277 127.363  0.00  0.00    +0.000 Cl
ATOM     15  C   UNL     1     -12.678   8.281 129.610  0.00  0.00    +0.000 A 
ATOM     16  C   UNL     1     -12.982   7.916 130.919  0.00  0.00    +0.000 A 
ATOM     17  C   UNL     1     -12.149   7.036 131.607  0.00  0.00    +0.000 A 
ENDBRANCH   5  10
BRANCH   4  18
ATOM     18  N   UNL     1     -10.890   3.531 130.787  0.00  0.00    +0.000 N 
ATOM     19  H   UNL     1     -10.862   2.539 131.007  0.00  0.00    +0.000 HD
ATOM     20  H   UNL     1     -11.835   3.878 130.678  0.00  0.00    +0.000 HD
ENDBRANCH   4  18
TORSDOF 2
ENDMDL
MODEL 7
REMARK VINA RESULT:      -5.8      2.146      3.010
REMARK  Name = Lamotrigine
REMARK  2 active torsions:
REMARK  status: ('A' for Active; 'I' for Inactive)
REMARK    1  A    between atoms: C_4  and  N_5
REMARK    2  A    between atoms: C_6  and  C_9
REMARK                            x       y       z     vdW  Elec       q    Type
REMARK                         _______ _______ _______ _____ _____    ______ ____
ROOT
ATOM      1  N   UNL     1     -13.112   6.626 129.219  0.00  0.00    +0.000 N 
ATOM      2  C   UNL     1     -12.045   6.321 130.015  0.00  0.00    +0.000 A 
ATOM      3  N   UNL     1     -11.186   5.393 129.569  0.00  0.00    +0.000 NA
ATOM      4  C   UNL     1     -10.173   5.071 130.392  0.00  0.00    +0.000 A 
ATOM      5  C   UNL     1     -10.014   5.681 131.641  0.00  0.00    +0.000 A 
ATOM      6  N   UNL     1     -10.899   6.617 132.042  0.00  0.00    +0.000 NA
ATOM      7  N   UNL     1     -11.927   6.937 131.211  0.00  0.00    +0.000 NA
ATOM      8  H   UNL     1     -13.147   6.202 128.307  0.00  0.00    +0.000 HD
ATOM      9  H   UNL     1     -13.701   7.397 129.486  0.00  0.00    +0.000 HD
ENDROOT
BRANCH   5  10
ATOM     10  C   UNL     1      -8.916   5.381 132.567  0.00  0.00    +0.000 A 
ATOM     11  C   UNL     1      -7.613   5.907 132.405  0.00  0.00    +0.000 A 
ATOM     12 CL   UNL     1      -7.283   7.067 131.147  0.00  0.00    +0.000 Cl
ATOM     13  C   UNL     1      -6.576   5.500 133.259  0.00  0.00    +0.000 A 
ATOM     14 CL   UNL     1      -4.941   6.030 133.052  0.00  0.00    +0.000 Cl
ATOM     15  C   UNL     1      -6.834   4.617 134.307  0.00  0.00    +0.000 A 
ATOM     16  C   UNL     1      -8.122   4.130 134.510  0.00  0.00    +0.000 A 
ATOM     17  C   UNL     1      -9.151   4.503 133.645  0.00  0.00    +0.000 A 
ENDBRANCH   5  10
BRANCH   4  18
ATOM     18  N   UNL     1      -9.370   3.996 129.981  0.00  0.00    +0.000 N 
ATOM     19  H   UNL     1      -8.394   4.277 130.018  0.00  0.00    +0.000 HD
ATOM     20  H   UNL     1      -9.544   3.132 130.482  0.00  0.00    +0.000 HD
ENDBRANCH   4  18
TORSDOF 2
ENDMDL
MODEL 8
REMARK VINA RESULT:      -5.7      7.367      8.101
REMARK  Name = Lamotrigine
REMARK  2 active torsions:
REMARK  status: ('A' for Active; 'I' for Inactive)
REMARK    1  A    between atoms: C_4  and  N_5
REMARK    2  A    between atoms: C_6  and  C_9
REMARK                            x       y       z     vdW  Elec       q    Type
REMARK                         _______ _______ _______ _____ _____    ______ ____
ROOT
ATOM      1  N   UNL     1      -9.435   1.939 122.441  0.00  0.00    +0.000 N 
ATOM      2  C   UNL     1      -9.196   1.051 123.452  0.00  0.00    +0.000 A 
ATOM      3  N   UNL     1      -8.065   0.334 123.391  0.00  0.00    +0.000 NA
ATOM      4  C   UNL     1      -7.877  -0.570 124.368  0.00  0.00    +0.000 A 
ATOM      5  C   UNL     1      -8.803  -0.743 125.402  0.00  0.00    +0.000 A 
ATOM      6  N   UNL     1      -9.923   0.009 125.425  0.00  0.00    +0.000 NA
ATOM      7  N   UNL     1     -10.115   0.919 124.432  0.00  0.00    +0.000 NA
ATOM      8  H   UNL     1      -8.709   2.066 121.755  0.00  0.00    +0.000 HD
ATOM      9  H   UNL     1     -10.220   2.562 122.530  0.00  0.00    +0.000 HD
ENDROOT
BRANCH   5  10
ATOM     10  C   UNL     1      -8.637  -1.700 126.501  0.00  0.00    +0.000 A 
ATOM     11  C   UNL     1      -7.894  -1.403 127.669  0.00  0.00    +0.000 A 
ATOM     12 CL   UNL     1      -7.245   0.196 127.914  0.00  0.00    +0.000 Cl
ATOM     13  C   UNL     1      -7.677  -2.393 128.639  0.00  0.00    +0.000 A 
ATOM     14 CL   UNL     1      -6.696  -2.121 130.039  0.00  0.00    +0.000 Cl
ATOM     15  C   UNL     1      -8.237  -3.661 128.487  0.00  0.00    +0.000 A 
ATOM     16  C   UNL     1      -9.012  -3.953 127.368  0.00  0.00    +0.000 A 
ATOM     17  C   UNL     1      -9.204  -2.986 126.382  0.00  0.00    +0.000 A 
ENDBRANCH   5  10
BRANCH   4  18
ATOM     18  N   UNL     1      -6.768  -1.416 124.212  0.00  0.00    +0.000 N 
ATOM     19  H   UNL     1      -7.031  -2.205 123.629  0.00  0.00    +0.000 HD
ATOM     20  H   UNL     1      -5.933  -0.949 123.879  0.00  0.00    +0.000 HD
ENDBRANCH   4  18
TORSDOF 2
ENDMDL
MODEL 9
REMARK VINA RESULT:      -5.7      8.201      9.403
REMARK  Name = Lamotrigine
REMARK  2 active torsions:
REMARK  status: ('A' for Active; 'I' for Inactive)
REMARK    1  A    between atoms: C_4  and  N_5
REMARK    2  A    between atoms: C_6  and  C_9
REMARK                            x       y       z     vdW  Elec       q    Type
REMARK                         _______ _______ _______ _____ _____    ______ ____
ROOT
ATOM      1  N   UNL     1      -9.492  -2.933 123.241  0.00  0.00    +0.000 N 
ATOM      2  C   UNL     1      -8.851  -1.731 123.341  0.00  0.00    +0.000 A 
ATOM      3  N   UNL     1      -9.598  -0.655 123.629  0.00  0.00    +0.000 NA
ATOM      4  C   UNL     1      -8.954   0.524 123.670  0.00  0.00    +0.000 A 
ATOM      5  C   UNL     1      -7.578   0.624 123.441  0.00  0.00    +0.000 A 
ATOM      6  N   UNL     1      -6.867  -0.489 123.164  0.00  0.00    +0.000 NA
ATOM      7  N   UNL     1      -7.521  -1.682 123.116  0.00  0.00    +0.000 NA
ATOM      8  H   UNL     1     -10.471  -2.958 123.473  0.00  0.00    +0.000 HD
ATOM      9  H   UNL     1      -8.933  -3.764 123.138  0.00  0.00    +0.000 HD
ENDROOT
BRANCH   5  10
ATOM     10  C   UNL     1      -6.825   1.882 123.494  0.00  0.00    +0.000 A 
ATOM     11  C   UNL     1      -6.291   2.404 124.696  0.00  0.00    +0.000 A 
ATOM     12 CL   UNL     1      -6.391   1.487 126.174  0.00  0.00    +0.000 Cl
ATOM     13  C   UNL     1      -5.675   3.665 124.706  0.00  0.00    +0.000 A 
ATOM     14 CL   UNL     1      -5.090   4.401 126.160  0.00  0.00    +0.000 Cl
ATOM     15  C   UNL     1      -5.534   4.388 123.522  0.00  0.00    +0.000 A 
ATOM     16  C   UNL     1      -6.010   3.865 122.322  0.00  0.00    +0.000 A 
ATOM     17  C   UNL     1      -6.654   2.628 122.310  0.00  0.00    +0.000 A 
ENDBRANCH   5  10
BRANCH   4  18
ATOM     18  N   UNL     1      -9.767   1.659 123.823  0.00  0.00    +0.000 N 
ATOM     19  H   UNL     1      -9.331   2.292 124.487  0.00  0.00    +0.000 HD
ATOM     20  H   UNL     1     -10.009   2.116 122.952  0.00  0.00    +0.000 HD
ENDBRANCH   4  18
TORSDOF 2
ENDMDL
