MODEL 1
REMARK VINA RESULT:      -8.3      0.000      0.000
REMARK  Name = Lansoprazole
REMARK  7 active torsions:
REMARK  status: ('A' for Active; 'I' for Inactive)
REMARK    1  A    between atoms: C_1  and  C_2
REMARK    2  A    between atoms: C_3  and  O_4
REMARK    3  A    between atoms: O_4  and  C_5
REMARK    4  A    between atoms: C_5  and  C_6
REMARK    5  A    between atoms: C_13  and  C_14
REMARK    6  A    between atoms: C_14  and  S_15
REMARK    7  A    between atoms: S_15  and  C_17
REMARK                            x       y       z     vdW  Elec       q    Type
REMARK                         _______ _______ _______ _____ _____    ______ ____
ROOT
ATOM      1  C   UNL     1      -7.089  -1.194 126.407  0.00  0.00    +0.000 C 
ATOM      2  C   UNL     1      -7.870  -1.312 125.143  0.00  0.00    +0.000 A 
ATOM      3  C   UNL     1      -7.645  -2.330 124.200  0.00  0.00    +0.000 A 
ATOM      4  C   UNL     1      -8.432  -2.356 123.051  0.00  0.00    +0.000 A 
ATOM      5  C   UNL     1      -9.390  -1.373 122.868  0.00  0.00    +0.000 A 
ATOM      6  N   UNL     1      -9.592  -0.342 123.721  0.00  0.00    +0.000 NA
ATOM      7  C   UNL     1      -8.815  -0.278 124.838  0.00  0.00    +0.000 A 
ENDROOT
BRANCH   3   8
ATOM      8  O   UNL     1      -6.696  -3.335 124.246  0.00  0.00    +0.000 OA
BRANCH   8   9
ATOM      9  C   UNL     1      -5.616  -3.218 123.321  0.00  0.00    +0.000 C 
BRANCH   9  10
ATOM     10  C   UNL     1      -4.357  -3.994 123.567  0.00  0.00    +0.000 C 
ATOM     11  F   UNL     1      -4.202  -4.266 124.876  0.00  0.00    +0.000 F 
ATOM     12  F   UNL     1      -4.320  -5.134 122.857  0.00  0.00    +0.000 F 
ATOM     13  F   UNL     1      -3.295  -3.234 123.183  0.00  0.00    +0.000 F 
ENDBRANCH   9  10
ENDBRANCH   8   9
ENDBRANCH   3   8
BRANCH   7  14
ATOM     14  C   UNL     1      -9.065   0.989 125.695  0.00  0.00    +0.000 C 
BRANCH  14  15
ATOM     15  S   UNL     1      -8.129   2.432 125.249  0.00  0.00    +0.000 S 
ATOM     16  O   UNL     1      -6.867   2.671 126.007  0.00  0.00    +0.000 OA
BRANCH  15  17
ATOM     17  C   UNL     1      -7.861   2.661 123.623  0.00  0.00    +0.000 A 
ATOM     18  N   UNL     1      -8.859   2.921 122.801  0.00  0.00    +0.000 NA
ATOM     19  C   UNL     1      -8.260   3.363 121.673  0.00  0.00    +0.000 A 
ATOM     20  C   UNL     1      -8.837   3.829 120.491  0.00  0.00    +0.000 A 
ATOM     21  C   UNL     1      -7.970   4.284 119.497  0.00  0.00    +0.000 A 
ATOM     22  C   UNL     1      -6.581   4.303 119.698  0.00  0.00    +0.000 A 
ATOM     23  C   UNL     1      -5.998   3.846 120.878  0.00  0.00    +0.000 A 
ATOM     24  C   UNL     1      -6.875   3.350 121.820  0.00  0.00    +0.000 A 
ATOM     25  N   UNL     1      -6.659   2.790 123.041  0.00  0.00    +0.000 N 
ATOM     26  H   UNL     1      -5.766   2.726 123.519  0.00  0.00    +0.000 HD
ENDBRANCH  15  17
ENDBRANCH  14  15
ENDBRANCH   7  14
TORSDOF 6
ENDMDL
MODEL 2
REMARK VINA RESULT:      -8.1      1.190      1.861
REMARK  Name = Lansoprazole
REMARK  7 active torsions:
REMARK  status: ('A' for Active; 'I' for Inactive)
REMARK    1  A    between atoms: C_1  and  C_2
REMARK    2  A    between atoms: C_3  and  O_4
REMARK    3  A    between atoms: O_4  and  C_5
REMARK    4  A    between atoms: C_5  and  C_6
REMARK    5  A    between atoms: C_13  and  C_14
REMARK    6  A    between atoms: C_14  and  S_15
REMARK    7  A    between atoms: S_15  and  C_17
REMARK                            x       y       z     vdW  Elec       q    Type
REMARK                         _______ _______ _______ _____ _____    ______ ____
ROOT
ATOM      1  C   UNL     1      -8.835  -1.135 123.167  0.00  0.00    +0.000 C 
ATOM      2  C   UNL     1      -8.401  -1.316 124.582  0.00  0.00    +0.000 A 
ATOM      3  C   UNL     1      -7.721  -2.460 125.031  0.00  0.00    +0.000 A 
ATOM      4  C   UNL     1      -7.354  -2.531 126.373  0.00  0.00    +0.000 A 
ATOM      5  C   UNL     1      -7.687  -1.485 127.218  0.00  0.00    +0.000 A 
ATOM      6  N   UNL     1      -8.396  -0.397 126.837  0.00  0.00    +0.000 NA
ATOM      7  C   UNL     1      -8.792  -0.319 125.536  0.00  0.00    +0.000 A 
ENDROOT
BRANCH   3   8
ATOM      8  O   UNL     1      -7.373  -3.582 124.301  0.00  0.00    +0.000 OA
BRANCH   8   9
ATOM      9  C   UNL     1      -5.979  -3.871 124.224  0.00  0.00    +0.000 C 
BRANCH   9  10
ATOM     10  C   UNL     1      -5.074  -2.916 123.503  0.00  0.00    +0.000 C 
ATOM     11  F   UNL     1      -3.903  -3.501 123.190  0.00  0.00    +0.000 F 
ATOM     12  F   UNL     1      -5.645  -2.417 122.395  0.00  0.00    +0.000 F 
ATOM     13  F   UNL     1      -4.794  -1.872 124.331  0.00  0.00    +0.000 F 
ENDBRANCH   9  10
ENDBRANCH   8   9
ENDBRANCH   3   8
BRANCH   7  14
ATOM     14  C   UNL     1      -9.674   0.918 125.229  0.00  0.00    +0.000 C 
BRANCH  14  15
ATOM     15  S   UNL     1      -8.810   2.449 124.974  0.00  0.00    +0.000 S 
ATOM     16  O   UNL     1      -7.812   2.835 126.013  0.00  0.00    +0.000 OA
BRANCH  15  17
ATOM     17  C   UNL     1      -8.166   2.686 123.459  0.00  0.00    +0.000 A 
ATOM     18  N   UNL     1      -8.933   3.022 122.440  0.00  0.00    +0.000 NA
ATOM     19  C   UNL     1      -8.068   3.442 121.490  0.00  0.00    +0.000 A 
ATOM     20  C   UNL     1      -8.332   3.962 120.223  0.00  0.00    +0.000 A 
ATOM     21  C   UNL     1      -7.236   4.377 119.466  0.00  0.00    +0.000 A 
ATOM     22  C   UNL     1      -5.931   4.306 119.977  0.00  0.00    +0.000 A 
ATOM     23  C   UNL     1      -5.660   3.795 121.244  0.00  0.00    +0.000 A 
ATOM     24  C   UNL     1      -6.756   3.341 121.947  0.00  0.00    +0.000 A 
ATOM     25  N   UNL     1      -6.858   2.749 123.169  0.00  0.00    +0.000 N 
ATOM     26  H   UNL     1      -6.102   2.622 123.836  0.00  0.00    +0.000 HD
ENDBRANCH  15  17
ENDBRANCH  14  15
ENDBRANCH   7  14
TORSDOF 6
ENDMDL
MODEL 3
REMARK VINA RESULT:      -8.0      2.407      3.054
REMARK  Name = Lansoprazole
REMARK  7 active torsions:
REMARK  status: ('A' for Active; 'I' for Inactive)
REMARK    1  A    between atoms: C_1  and  C_2
REMARK    2  A    between atoms: C_3  and  O_4
REMARK    3  A    between atoms: O_4  and  C_5
REMARK    4  A    between atoms: C_5  and  C_6
REMARK    5  A    between atoms: C_13  and  C_14
REMARK    6  A    between atoms: C_14  and  S_15
REMARK    7  A    between atoms: S_15  and  C_17
REMARK                            x       y       z     vdW  Elec       q    Type
REMARK                         _______ _______ _______ _____ _____    ______ ____
ROOT
ATOM      1  C   UNL     1      -6.341  -0.388 124.049  0.00  0.00    +0.000 C 
ATOM      2  C   UNL     1      -6.864  -0.634 125.423  0.00  0.00    +0.000 A 
ATOM      3  C   UNL     1      -7.208  -1.914 125.891  0.00  0.00    +0.000 A 
ATOM      4  C   UNL     1      -7.684  -2.038 127.194  0.00  0.00    +0.000 A 
ATOM      5  C   UNL     1      -7.821  -0.901 127.973  0.00  0.00    +0.000 A 
ATOM      6  N   UNL     1      -7.561   0.353 127.537  0.00  0.00    +0.000 NA
ATOM      7  C   UNL     1      -7.123   0.505 126.256  0.00  0.00    +0.000 A 
ENDROOT
BRANCH   3   8
ATOM      8  O   UNL     1      -7.159  -3.111 125.200  0.00  0.00    +0.000 OA
BRANCH   8   9
ATOM      9  C   UNL     1      -8.413  -3.635 124.769  0.00  0.00    +0.000 C 
BRANCH   9  10
ATOM     10  C   UNL     1      -9.104  -3.005 123.597  0.00  0.00    +0.000 C 
ATOM     11  F   UNL     1      -8.242  -2.785 122.587  0.00  0.00    +0.000 F 
ATOM     12  F   UNL     1     -10.138  -3.745 123.162  0.00  0.00    +0.000 F 
ATOM     13  F   UNL     1      -9.595  -1.794 123.980  0.00  0.00    +0.000 F 
ENDBRANCH   9  10
ENDBRANCH   8   9
ENDBRANCH   3   8
BRANCH   7  14
ATOM     14  C   UNL     1      -6.946   1.985 125.831  0.00  0.00    +0.000 C 
BRANCH  14  15
ATOM     15  S   UNL     1      -8.263   2.681 124.862  0.00  0.00    +0.000 S 
ATOM     16  O   UNL     1      -8.923   3.901 125.410  0.00  0.00    +0.000 OA
BRANCH  15  17
ATOM     17  C   UNL     1      -7.952   2.889 123.241  0.00  0.00    +0.000 A 
ATOM     18  N   UNL     1      -8.934   3.072 122.380  0.00  0.00    +0.000 NA
ATOM     19  C   UNL     1      -8.323   3.523 121.262  0.00  0.00    +0.000 A 
ATOM     20  C   UNL     1      -8.884   3.927 120.051  0.00  0.00    +0.000 A 
ATOM     21  C   UNL     1      -8.010   4.411 119.076  0.00  0.00    +0.000 A 
ATOM     22  C   UNL     1      -6.633   4.517 119.323  0.00  0.00    +0.000 A 
ATOM     23  C   UNL     1      -6.066   4.122 120.533  0.00  0.00    +0.000 A 
ATOM     24  C   UNL     1      -6.945   3.596 121.456  0.00  0.00    +0.000 A 
ATOM     25  N   UNL     1      -6.740   3.077 122.697  0.00  0.00    +0.000 N 
ATOM     26  H   UNL     1      -5.861   3.077 123.207  0.00  0.00    +0.000 HD
ENDBRANCH  15  17
ENDBRANCH  14  15
ENDBRANCH   7  14
TORSDOF 6
ENDMDL
MODEL 4
REMARK VINA RESULT:      -7.5      6.184      8.414
REMARK  Name = Lansoprazole
REMARK  7 active torsions:
REMARK  status: ('A' for Active; 'I' for Inactive)
REMARK    1  A    between atoms: C_1  and  C_2
REMARK    2  A    between atoms: C_3  and  O_4
REMARK    3  A    between atoms: O_4  and  C_5
REMARK    4  A    between atoms: C_5  and  C_6
REMARK    5  A    between atoms: C_13  and  C_14
REMARK    6  A    between atoms: C_14  and  S_15
REMARK    7  A    between atoms: S_15  and  C_17
REMARK                            x       y       z     vdW  Elec       q    Type
REMARK                         _______ _______ _______ _____ _____    ______ ____
ROOT
ATOM      1  C   UNL     1      -8.185   4.902 125.788  0.00  0.00    +0.000 C 
ATOM      2  C   UNL     1      -6.822   4.356 126.045  0.00  0.00    +0.000 A 
ATOM      3  C   UNL     1      -5.785   4.416 125.098  0.00  0.00    +0.000 A 
ATOM      4  C   UNL     1      -4.545   3.881 125.438  0.00  0.00    +0.000 A 
ATOM      5  C   UNL     1      -4.381   3.294 126.682  0.00  0.00    +0.000 A 
ATOM      6  N   UNL     1      -5.373   3.162 127.594  0.00  0.00    +0.000 NA
ATOM      7  C   UNL     1      -6.603   3.650 127.274  0.00  0.00    +0.000 A 
ENDROOT
BRANCH   3   8
ATOM      8  O   UNL     1      -5.836   4.931 123.816  0.00  0.00    +0.000 OA
BRANCH   8   9
ATOM      9  C   UNL     1      -5.789   3.977 122.757  0.00  0.00    +0.000 C 
BRANCH   9  10
ATOM     10  C   UNL     1      -5.002   4.296 121.520  0.00  0.00    +0.000 C 
ATOM     11  F   UNL     1      -5.735   5.019 120.653  0.00  0.00    +0.000 F 
ATOM     12  F   UNL     1      -3.859   4.942 121.801  0.00  0.00    +0.000 F 
ATOM     13  F   UNL     1      -4.676   3.130 120.899  0.00  0.00    +0.000 F 
ENDBRANCH   9  10
ENDBRANCH   8   9
ENDBRANCH   3   8
BRANCH   7  14
ATOM     14  C   UNL     1      -7.683   3.363 128.348  0.00  0.00    +0.000 C 
BRANCH  14  15
ATOM     15  S   UNL     1      -7.861   4.588 129.623  0.00  0.00    +0.000 S 
ATOM     16  O   UNL     1      -6.772   5.600 129.734  0.00  0.00    +0.000 OA
BRANCH  15  17
ATOM     17  C   UNL     1      -9.341   5.341 129.718  0.00  0.00    +0.000 A 
ATOM     18  N   UNL     1     -10.098   5.218 130.791  0.00  0.00    +0.000 NA
ATOM     19  C   UNL     1     -11.027   6.191 130.662  0.00  0.00    +0.000 A 
ATOM     20  C   UNL     1     -12.051   6.555 131.536  0.00  0.00    +0.000 A 
ATOM     21  C   UNL     1     -12.836   7.651 131.174  0.00  0.00    +0.000 A 
ATOM     22  C   UNL     1     -12.577   8.373 129.999  0.00  0.00    +0.000 A 
ATOM     23  C   UNL     1     -11.551   8.019 129.124  0.00  0.00    +0.000 A 
ATOM     24  C   UNL     1     -10.829   6.900 129.479  0.00  0.00    +0.000 A 
ATOM     25  N   UNL     1      -9.809   6.253 128.852  0.00  0.00    +0.000 N 
ATOM     26  H   UNL     1      -9.330   6.566 128.012  0.00  0.00    +0.000 HD
ENDBRANCH  15  17
ENDBRANCH  14  15
ENDBRANCH   7  14
TORSDOF 6
ENDMDL
MODEL 5
REMARK VINA RESULT:      -7.4      5.657      7.057
REMARK  Name = Lansoprazole
REMARK  7 active torsions:
REMARK  status: ('A' for Active; 'I' for Inactive)
REMARK    1  A    between atoms: C_1  and  C_2
REMARK    2  A    between atoms: C_3  and  O_4
REMARK    3  A    between atoms: O_4  and  C_5
REMARK    4  A    between atoms: C_5  and  C_6
REMARK    5  A    between atoms: C_13  and  C_14
REMARK    6  A    between atoms: C_14  and  S_15
REMARK    7  A    between atoms: S_15  and  C_17
REMARK                            x       y       z     vdW  Elec       q    Type
REMARK                         _______ _______ _______ _____ _____    ______ ____
ROOT
ATOM      1  C   UNL     1      -7.304  -0.278 129.754  0.00  0.00    +0.000 C 
ATOM      2  C   UNL     1      -7.805   0.282 128.466  0.00  0.00    +0.000 A 
ATOM      3  C   UNL     1      -7.753  -0.428 127.254  0.00  0.00    +0.000 A 
ATOM      4  C   UNL     1      -8.252   0.182 126.105  0.00  0.00    +0.000 A 
ATOM      5  C   UNL     1      -8.763   1.466 126.192  0.00  0.00    +0.000 A 
ATOM      6  N   UNL     1      -8.772   2.204 127.327  0.00  0.00    +0.000 NA
ATOM      7  C   UNL     1      -8.262   1.641 128.457  0.00  0.00    +0.000 A 
ENDROOT
BRANCH   3   8
ATOM      8  O   UNL     1      -7.230  -1.689 127.031  0.00  0.00    +0.000 OA
BRANCH   8   9
ATOM      9  C   UNL     1      -7.687  -2.355 125.856  0.00  0.00    +0.000 C 
BRANCH   9  10
ATOM     10  C   UNL     1      -8.649  -3.497 125.990  0.00  0.00    +0.000 C 
ATOM     11  F   UNL     1      -8.617  -4.015 127.233  0.00  0.00    +0.000 F 
ATOM     12  F   UNL     1      -9.906  -3.138 125.678  0.00  0.00    +0.000 F 
ATOM     13  F   UNL     1      -8.277  -4.485 125.132  0.00  0.00    +0.000 F 
ENDBRANCH   9  10
ENDBRANCH   8   9
ENDBRANCH   3   8
BRANCH   7  14
ATOM     14  C   UNL     1      -8.236   2.603 129.672  0.00  0.00    +0.000 C 
BRANCH  14  15
ATOM     15  S   UNL     1      -9.812   2.983 130.401  0.00  0.00    +0.000 S 
ATOM     16  O   UNL     1     -10.073   2.423 131.759  0.00  0.00    +0.000 OA
BRANCH  15  17
ATOM     17  C   UNL     1     -10.280   4.578 130.351  0.00  0.00    +0.000 A 
ATOM     18  N   UNL     1      -9.865   5.377 129.386  0.00  0.00    +0.000 NA
ATOM     19  C   UNL     1     -10.676   6.455 129.470  0.00  0.00    +0.000 A 
ATOM     20  C   UNL     1     -10.721   7.590 128.660  0.00  0.00    +0.000 A 
ATOM     21  C   UNL     1     -11.712   8.532 128.942  0.00  0.00    +0.000 A 
ATOM     22  C   UNL     1     -12.640   8.323 129.973  0.00  0.00    +0.000 A 
ATOM     23  C   UNL     1     -12.605   7.189 130.781  0.00  0.00    +0.000 A 
ATOM     24  C   UNL     1     -11.583   6.303 130.516  0.00  0.00    +0.000 A 
ATOM     25  N   UNL     1     -11.223   5.139 131.123  0.00  0.00    +0.000 N 
ATOM     26  H   UNL     1     -11.739   4.664 131.858  0.00  0.00    +0.000 HD
ENDBRANCH  15  17
ENDBRANCH  14  15
ENDBRANCH   7  14
TORSDOF 6
ENDMDL
MODEL 6
REMARK VINA RESULT:      -7.4      1.898      2.531
REMARK  Name = Lansoprazole
REMARK  7 active torsions:
REMARK  status: ('A' for Active; 'I' for Inactive)
REMARK    1  A    between atoms: C_1  and  C_2
REMARK    2  A    between atoms: C_3  and  O_4
REMARK    3  A    between atoms: O_4  and  C_5
REMARK    4  A    between atoms: C_5  and  C_6
REMARK    5  A    between atoms: C_13  and  C_14
REMARK    6  A    between atoms: C_14  and  S_15
REMARK    7  A    between atoms: S_15  and  C_17
REMARK                            x       y       z     vdW  Elec       q    Type
REMARK                         _______ _______ _______ _____ _____    ______ ____
ROOT
ATOM      1  C   UNL     1      -5.454   0.529 125.616  0.00  0.00    +0.000 C 
ATOM      2  C   UNL     1      -6.923   0.509 125.362  0.00  0.00    +0.000 A 
ATOM      3  C   UNL     1      -7.508  -0.235 124.323  0.00  0.00    +0.000 A 
ATOM      4  C   UNL     1      -8.891  -0.190 124.172  0.00  0.00    +0.000 A 
ATOM      5  C   UNL     1      -9.638   0.597 125.034  0.00  0.00    +0.000 A 
ATOM      6  N   UNL     1      -9.106   1.376 126.004  0.00  0.00    +0.000 NA
ATOM      7  C   UNL     1      -7.752   1.373 126.152  0.00  0.00    +0.000 A 
ENDROOT
BRANCH   3   8
ATOM      8  O   UNL     1      -6.871  -1.017 123.378  0.00  0.00    +0.000 OA
BRANCH   8   9
ATOM      9  C   UNL     1      -6.915  -2.425 123.599  0.00  0.00    +0.000 C 
BRANCH   9  10
ATOM     10  C   UNL     1      -5.730  -3.106 124.217  0.00  0.00    +0.000 C 
ATOM     11  F   UNL     1      -5.661  -2.853 125.538  0.00  0.00    +0.000 F 
ATOM     12  F   UNL     1      -5.743  -4.433 124.007  0.00  0.00    +0.000 F 
ATOM     13  F   UNL     1      -4.597  -2.608 123.651  0.00  0.00    +0.000 F 
ENDBRANCH   9  10
ENDBRANCH   8   9
ENDBRANCH   3   8
BRANCH   7  14
ATOM     14  C   UNL     1      -7.243   2.367 127.226  0.00  0.00    +0.000 C 
BRANCH  14  15
ATOM     15  S   UNL     1      -6.941   4.028 126.672  0.00  0.00    +0.000 S 
ATOM     16  O   UNL     1      -5.910   4.805 127.419  0.00  0.00    +0.000 OA
BRANCH  15  17
ATOM     17  C   UNL     1      -6.720   4.229 125.036  0.00  0.00    +0.000 A 
ATOM     18  N   UNL     1      -5.554   4.609 124.549  0.00  0.00    +0.000 NA
ATOM     19  C   UNL     1      -5.641   4.350 123.225  0.00  0.00    +0.000 A 
ATOM     20  C   UNL     1      -4.676   4.509 122.231  0.00  0.00    +0.000 A 
ATOM     21  C   UNL     1      -5.021   4.101 120.941  0.00  0.00    +0.000 A 
ATOM     22  C   UNL     1      -6.271   3.524 120.672  0.00  0.00    +0.000 A 
ATOM     23  C   UNL     1      -7.237   3.356 121.662  0.00  0.00    +0.000 A 
ATOM     24  C   UNL     1      -6.890   3.819 122.913  0.00  0.00    +0.000 A 
ATOM     25  N   UNL     1      -7.588   3.861 124.081  0.00  0.00    +0.000 N 
ATOM     26  H   UNL     1      -8.502   3.450 124.245  0.00  0.00    +0.000 HD
ENDBRANCH  15  17
ENDBRANCH  14  15
ENDBRANCH   7  14
TORSDOF 6
ENDMDL
MODEL 7
REMARK VINA RESULT:      -7.4      3.839      6.471
REMARK  Name = Lansoprazole
REMARK  7 active torsions:
REMARK  status: ('A' for Active; 'I' for Inactive)
REMARK    1  A    between atoms: C_1  and  C_2
REMARK    2  A    between atoms: C_3  and  O_4
REMARK    3  A    between atoms: O_4  and  C_5
REMARK    4  A    between atoms: C_5  and  C_6
REMARK    5  A    between atoms: C_13  and  C_14
REMARK    6  A    between atoms: C_14  and  S_15
REMARK    7  A    between atoms: S_15  and  C_17
REMARK                            x       y       z     vdW  Elec       q    Type
REMARK                         _______ _______ _______ _____ _____    ______ ____
ROOT
ATOM      1  C   UNL     1      -7.214   2.286 127.077  0.00  0.00    +0.000 C 
ATOM      2  C   UNL     1      -6.723   2.927 125.824  0.00  0.00    +0.000 A 
ATOM      3  C   UNL     1      -5.470   3.556 125.729  0.00  0.00    +0.000 A 
ATOM      4  C   UNL     1      -5.102   4.123 124.511  0.00  0.00    +0.000 A 
ATOM      5  C   UNL     1      -5.986   4.063 123.446  0.00  0.00    +0.000 A 
ATOM      6  N   UNL     1      -7.225   3.523 123.517  0.00  0.00    +0.000 NA
ATOM      7  C   UNL     1      -7.620   2.989 124.707  0.00  0.00    +0.000 A 
ENDROOT
BRANCH   3   8
ATOM      8  O   UNL     1      -4.525   3.719 126.725  0.00  0.00    +0.000 OA
BRANCH   8   9
ATOM      9  C   UNL     1      -3.418   2.820 126.690  0.00  0.00    +0.000 C 
BRANCH   9  10
ATOM     10  C   UNL     1      -2.025   3.375 126.721  0.00  0.00    +0.000 C 
ATOM     11  F   UNL     1      -1.609   3.712 125.486  0.00  0.00    +0.000 F 
ATOM     12  F   UNL     1      -1.920   4.433 127.542  0.00  0.00    +0.000 F 
ATOM     13  F   UNL     1      -1.182   2.410 127.181  0.00  0.00    +0.000 F 
ENDBRANCH   9  10
ENDBRANCH   8   9
ENDBRANCH   3   8
BRANCH   7  14
ATOM     14  C   UNL     1      -9.084   2.483 124.704  0.00  0.00    +0.000 C 
BRANCH  14  15
ATOM     15  S   UNL     1      -9.313   0.756 124.355  0.00  0.00    +0.000 S 
ATOM     16  O   UNL     1     -10.245   0.417 123.241  0.00  0.00    +0.000 OA
BRANCH  15  17
ATOM     17  C   UNL     1      -7.930  -0.158 124.229  0.00  0.00    +0.000 A 
ATOM     18  N   UNL     1      -7.491  -0.870 125.250  0.00  0.00    +0.000 NA
ATOM     19  C   UNL     1      -6.581  -1.710 124.708  0.00  0.00    +0.000 A 
ATOM     20  C   UNL     1      -5.841  -2.722 125.320  0.00  0.00    +0.000 A 
ATOM     21  C   UNL     1      -5.009  -3.485 124.499  0.00  0.00    +0.000 A 
ATOM     22  C   UNL     1      -4.952  -3.262 123.116  0.00  0.00    +0.000 A 
ATOM     23  C   UNL     1      -5.694  -2.258 122.496  0.00  0.00    +0.000 A 
ATOM     24  C   UNL     1      -6.464  -1.485 123.339  0.00  0.00    +0.000 A 
ATOM     25  N   UNL     1      -7.262  -0.410 123.093  0.00  0.00    +0.000 N 
ATOM     26  H   UNL     1      -7.500  -0.040 122.177  0.00  0.00    +0.000 HD
ENDBRANCH  15  17
ENDBRANCH  14  15
ENDBRANCH   7  14
TORSDOF 6
ENDMDL
MODEL 8
REMARK VINA RESULT:      -7.3      4.030      7.614
REMARK  Name = Lansoprazole
REMARK  7 active torsions:
REMARK  status: ('A' for Active; 'I' for Inactive)
REMARK    1  A    between atoms: C_1  and  C_2
REMARK    2  A    between atoms: C_3  and  O_4
REMARK    3  A    between atoms: O_4  and  C_5
REMARK    4  A    between atoms: C_5  and  C_6
REMARK    5  A    between atoms: C_13  and  C_14
REMARK    6  A    between atoms: C_14  and  S_15
REMARK    7  A    between atoms: S_15  and  C_17
REMARK                            x       y       z     vdW  Elec       q    Type
REMARK                         _______ _______ _______ _____ _____    ______ ____
ROOT
ATOM      1  C   UNL     1      -6.432   0.721 124.661  0.00  0.00    +0.000 C 
ATOM      2  C   UNL     1      -7.687   0.864 123.871  0.00  0.00    +0.000 A 
ATOM      3  C   UNL     1      -8.137   2.098 123.370  0.00  0.00    +0.000 A 
ATOM      4  C   UNL     1      -9.322   2.126 122.638  0.00  0.00    +0.000 A 
ATOM      5  C   UNL     1     -10.023   0.946 122.446  0.00  0.00    +0.000 A 
ATOM      6  N   UNL     1      -9.655  -0.248 122.966  0.00  0.00    +0.000 NA
ATOM      7  C   UNL     1      -8.516  -0.295 123.711  0.00  0.00    +0.000 A 
ENDROOT
BRANCH   3   8
ATOM      8  O   UNL     1      -7.555   3.342 123.531  0.00  0.00    +0.000 OA
BRANCH   8   9
ATOM      9  C   UNL     1      -6.238   3.489 123.005  0.00  0.00    +0.000 C 
BRANCH   9  10
ATOM     10  C   UNL     1      -6.058   3.682 121.529  0.00  0.00    +0.000 C 
ATOM     11  F   UNL     1      -5.585   2.563 120.948  0.00  0.00    +0.000 F 
ATOM     12  F   UNL     1      -7.196   4.063 120.926  0.00  0.00    +0.000 F 
ATOM     13  F   UNL     1      -5.135   4.662 121.327  0.00  0.00    +0.000 F 
ENDBRANCH   9  10
ENDBRANCH   8   9
ENDBRANCH   3   8
BRANCH   7  14
ATOM     14  C   UNL     1      -8.239  -1.687 124.333  0.00  0.00    +0.000 C 
BRANCH  14  15
ATOM     15  S   UNL     1      -8.963  -1.988 125.927  0.00  0.00    +0.000 S 
ATOM     16  O   UNL     1     -10.026  -3.033 125.992  0.00  0.00    +0.000 OA
BRANCH  15  17
ATOM     17  C   UNL     1      -7.902  -2.186 127.192  0.00  0.00    +0.000 A 
ATOM     18  N   UNL     1      -8.240  -2.882 128.260  0.00  0.00    +0.000 NA
ATOM     19  C   UNL     1      -7.071  -3.107 128.900  0.00  0.00    +0.000 A 
ATOM     20  C   UNL     1      -6.828  -3.840 130.062  0.00  0.00    +0.000 A 
ATOM     21  C   UNL     1      -5.499  -3.959 130.471  0.00  0.00    +0.000 A 
ATOM     22  C   UNL     1      -4.455  -3.395 129.722  0.00  0.00    +0.000 A 
ATOM     23  C   UNL     1      -4.690  -2.668 128.557  0.00  0.00    +0.000 A 
ATOM     24  C   UNL     1      -6.015  -2.519 128.208  0.00  0.00    +0.000 A 
ATOM     25  N   UNL     1      -6.604  -1.847 127.181  0.00  0.00    +0.000 N 
ATOM     26  H   UNL     1      -6.122  -1.393 126.411  0.00  0.00    +0.000 HD
ENDBRANCH  15  17
ENDBRANCH  14  15
ENDBRANCH   7  14
TORSDOF 6
ENDMDL
MODEL 9
REMARK VINA RESULT:      -7.1      5.344      6.702
REMARK  Name = Lansoprazole
REMARK  7 active torsions:
REMARK  status: ('A' for Active; 'I' for Inactive)
REMARK    1  A    between atoms: C_1  and  C_2
REMARK    2  A    between atoms: C_3  and  O_4
REMARK    3  A    between atoms: O_4  and  C_5
REMARK    4  A    between atoms: C_5  and  C_6
REMARK    5  A    between atoms: C_13  and  C_14
REMARK    6  A    between atoms: C_14  and  S_15
REMARK    7  A    between atoms: S_15  and  C_17
REMARK                            x       y       z     vdW  Elec       q    Type
REMARK                         _______ _______ _______ _____ _____    ______ ____
ROOT
ATOM      1  C   UNL     1      -7.694   0.544 128.148  0.00  0.00    +0.000 C 
ATOM      2  C   UNL     1      -7.925   1.496 127.025  0.00  0.00    +0.000 A 
ATOM      3  C   UNL     1      -8.082   1.080 125.691  0.00  0.00    +0.000 A 
ATOM      4  C   UNL     1      -8.298   2.049 124.714  0.00  0.00    +0.000 A 
ATOM      5  C   UNL     1      -8.332   3.383 125.084  0.00  0.00    +0.000 A 
ATOM      6  N   UNL     1      -8.121   3.826 126.346  0.00  0.00    +0.000 NA
ATOM      7  C   UNL     1      -7.878   2.900 127.314  0.00  0.00    +0.000 A 
ENDROOT
BRANCH   3   8
ATOM      8  O   UNL     1      -8.025  -0.209 125.193  0.00  0.00    +0.000 OA
BRANCH   8   9
ATOM      9  C   UNL     1      -6.832  -0.556 124.494  0.00  0.00    +0.000 C 
BRANCH   9  10
ATOM     10  C   UNL     1      -5.681  -1.140 125.258  0.00  0.00    +0.000 C 
ATOM     11  F   UNL     1      -4.889  -0.173 125.756  0.00  0.00    +0.000 F 
ATOM     12  F   UNL     1      -6.091  -1.950 126.248  0.00  0.00    +0.000 F 
ATOM     13  F   UNL     1      -4.923  -1.883 124.404  0.00  0.00    +0.000 F 
ENDBRANCH   9  10
ENDBRANCH   8   9
ENDBRANCH   3   8
BRANCH   7  14
ATOM     14  C   UNL     1      -7.560   3.519 128.699  0.00  0.00    +0.000 C 
BRANCH  14  15
ATOM     15  S   UNL     1      -8.943   3.737 129.793  0.00  0.00    +0.000 S 
ATOM     16  O   UNL     1      -8.758   3.286 131.203  0.00  0.00    +0.000 OA
BRANCH  15  17
ATOM     17  C   UNL     1      -9.669   5.234 129.772  0.00  0.00    +0.000 A 
ATOM     18  N   UNL     1      -9.560   6.026 128.723  0.00  0.00    +0.000 NA
ATOM     19  C   UNL     1     -10.511   6.968 128.912  0.00  0.00    +0.000 A 
ATOM     20  C   UNL     1     -10.879   8.029 128.085  0.00  0.00    +0.000 A 
ATOM     21  C   UNL     1     -11.948   8.821 128.506  0.00  0.00    +0.000 A 
ATOM     22  C   UNL     1     -12.642   8.535 129.691  0.00  0.00    +0.000 A 
ATOM     23  C   UNL     1     -12.284   7.472 130.519  0.00  0.00    +0.000 A 
ATOM     24  C   UNL     1     -11.190   6.741 130.107  0.00  0.00    +0.000 A 
ATOM     25  N   UNL     1     -10.547   5.688 130.679  0.00  0.00    +0.000 N 
ATOM     26  H   UNL     1     -10.845   5.185 131.510  0.00  0.00    +0.000 HD
ENDBRANCH  15  17
ENDBRANCH  14  15
ENDBRANCH   7  14
TORSDOF 6
ENDMDL
