MODEL 1
REMARK VINA RESULT:      -8.9      0.000      0.000
REMARK  Name = Lapatinib
REMARK  11 active torsions:
REMARK  status: ('A' for Active; 'I' for Inactive)
REMARK    1  A    between atoms: C_1  and  S_2
REMARK    2  A    between atoms: S_2  and  C_5
REMARK    3  A    between atoms: C_5  and  C_6
REMARK    4  A    between atoms: C_6  and  N_7
REMARK    5  A    between atoms: N_7  and  C_8
REMARK    6  A    between atoms: C_8  and  C_9
REMARK    7  A    between atoms: C_12  and  C_14
REMARK    8  A    between atoms: N_24  and  C_25
REMARK    9  A    between atoms: C_29  and  O_30
REMARK   10  A    between atoms: O_30  and  C_31
REMARK   11  A    between atoms: C_31  and  C_32
REMARK                            x       y       z     vdW  Elec       q    Type
REMARK                         _______ _______ _______ _____ _____    ______ ____
ROOT
ATOM      1  C   UNL     1      -7.130   5.518 130.432  0.00  0.00    +0.000 A 
ATOM      2  C   UNL     1      -6.202   4.803 129.696  0.00  0.00    +0.000 A 
ATOM      3  C   UNL     1      -4.889   5.263 129.380  0.00  0.00    +0.000 A 
ATOM      4  C   UNL     1      -4.443   6.416 130.028  0.00  0.00    +0.000 A 
ATOM      5  C   UNL     1      -5.343   7.092 130.857  0.00  0.00    +0.000 A 
ATOM      6  C   UNL     1      -6.677   6.677 131.033  0.00  0.00    +0.000 A 
ATOM      7  N   UNL     1      -3.193   6.874 129.893  0.00  0.00    +0.000 NA
ATOM      8  C   UNL     1      -2.380   6.183 129.079  0.00  0.00    +0.000 A 
ATOM      9  N   UNL     1      -2.707   5.111 128.343  0.00  0.00    +0.000 NA
ATOM     10  C   UNL     1      -3.969   4.656 128.477  0.00  0.00    +0.000 A 
ATOM     11  N   UNL     1      -4.306   3.537 127.676  0.00  0.00    +0.000 N 
ATOM     12  H   UNL     1      -3.522   3.166 127.155  0.00  0.00    +0.000 HD
ENDROOT
BRANCH  11  13
ATOM     13  C   UNL     1      -5.571   2.983 127.421  0.00  0.00    +0.000 A 
ATOM     14  C   UNL     1      -5.913   1.763 128.012  0.00  0.00    +0.000 A 
ATOM     15  C   UNL     1      -6.961   0.972 127.539  0.00  0.00    +0.000 A 
ATOM     16 CL   UNL     1      -6.924  -0.622 128.228  0.00  0.00    +0.000 Cl
ATOM     17  C   UNL     1      -7.813   1.447 126.531  0.00  0.00    +0.000 A 
ATOM     18  C   UNL     1      -7.499   2.713 125.954  0.00  0.00    +0.000 A 
ATOM     19  C   UNL     1      -6.393   3.478 126.405  0.00  0.00    +0.000 A 
BRANCH  17  20
ATOM     20  O   UNL     1      -8.952   0.811 126.064  0.00  0.00    +0.000 OA
BRANCH  20  21
ATOM     21  C   UNL     1      -8.870   0.133 124.760  0.00  0.00    +0.000 C 
BRANCH  21  22
ATOM     22  C   UNL     1      -7.814  -0.955 124.613  0.00  0.00    +0.000 A 
ATOM     23  C   UNL     1      -8.191  -2.187 125.012  0.00  0.00    +0.000 A 
ATOM     24  C   UNL     1      -7.504  -3.354 124.725  0.00  0.00    +0.000 A 
ATOM     25  F   UNL     1      -8.135  -4.508 124.677  0.00  0.00    +0.000 F 
ATOM     26  C   UNL     1      -6.262  -3.352 124.210  0.00  0.00    +0.000 A 
ATOM     27  C   UNL     1      -5.813  -2.120 123.795  0.00  0.00    +0.000 A 
ATOM     28  C   UNL     1      -6.599  -0.936 123.950  0.00  0.00    +0.000 A 
ENDBRANCH  21  22
ENDBRANCH  20  21
ENDBRANCH  17  20
ENDBRANCH  11  13
BRANCH   1  32
ATOM     29  C   UNL     1     -10.734   5.488 130.363  0.00  0.00    +0.000 A 
ATOM     30  C   UNL     1     -10.532   4.119 130.450  0.00  0.00    +0.000 A 
ATOM     31  C   UNL     1      -9.137   3.906 130.525  0.00  0.00    +0.000 A 
ATOM     32  C   UNL     1      -8.541   5.145 130.425  0.00  0.00    +0.000 A 
ATOM     33  O   UNL     1      -9.505   6.123 130.370  0.00  0.00    +0.000 OA
BRANCH  29  34
ATOM     34  C   UNL     1     -12.011   6.316 130.272  0.00  0.00    +0.000 C 
BRANCH  34  35
ATOM     35  N   UNL     1     -11.746   7.772 130.342  0.00  0.00    +0.000 NA
ATOM     36  H   UNL     1     -12.414   8.068 131.048  0.00  0.00    +0.000 HD
BRANCH  35  37
ATOM     37  C   UNL     1     -11.951   8.535 129.046  0.00  0.00    +0.000 C 
BRANCH  37  38
ATOM     38  C   UNL     1     -10.759   8.540 127.951  0.00  0.00    +0.000 C 
BRANCH  38  40
ATOM     39  C   UNL     1     -12.570   6.867 126.650  0.00  0.00    +0.000 C 
ATOM     40  S   UNL     1     -10.886   7.464 126.480  0.00  0.00    +0.000 S 
ATOM     41  O   UNL     1     -10.119   6.217 126.497  0.00  0.00    +0.000 OA
ATOM     42  O   UNL     1     -10.778   8.321 125.338  0.00  0.00    +0.000 OA
ENDBRANCH  38  40
ENDBRANCH  37  38
ENDBRANCH  35  37
ENDBRANCH  34  35
ENDBRANCH  29  34
ENDBRANCH   1  32
TORSDOF 10
ENDMDL
MODEL 2
REMARK VINA RESULT:      -8.9      4.054      7.190
REMARK  Name = Lapatinib
REMARK  11 active torsions:
REMARK  status: ('A' for Active; 'I' for Inactive)
REMARK    1  A    between atoms: C_1  and  S_2
REMARK    2  A    between atoms: S_2  and  C_5
REMARK    3  A    between atoms: C_5  and  C_6
REMARK    4  A    between atoms: C_6  and  N_7
REMARK    5  A    between atoms: N_7  and  C_8
REMARK    6  A    between atoms: C_8  and  C_9
REMARK    7  A    between atoms: C_12  and  C_14
REMARK    8  A    between atoms: N_24  and  C_25
REMARK    9  A    between atoms: C_29  and  O_30
REMARK   10  A    between atoms: O_30  and  C_31
REMARK   11  A    between atoms: C_31  and  C_32
REMARK                            x       y       z     vdW  Elec       q    Type
REMARK                         _______ _______ _______ _____ _____    ______ ____
ROOT
ATOM      1  C   UNL     1      -8.279   1.188 126.236  0.00  0.00    +0.000 A 
ATOM      2  C   UNL     1      -7.995  -0.163 126.141  0.00  0.00    +0.000 A 
ATOM      3  C   UNL     1      -8.497  -1.026 125.122  0.00  0.00    +0.000 A 
ATOM      4  C   UNL     1      -9.145  -0.428 124.040  0.00  0.00    +0.000 A 
ATOM      5  C   UNL     1      -9.346   0.955 124.078  0.00  0.00    +0.000 A 
ATOM      6  C   UNL     1      -8.955   1.751 125.171  0.00  0.00    +0.000 A 
ATOM      7  N   UNL     1      -9.556  -1.128 122.976  0.00  0.00    +0.000 NA
ATOM      8  C   UNL     1      -9.338  -2.452 123.003  0.00  0.00    +0.000 A 
ATOM      9  N   UNL     1      -8.800  -3.155 124.011  0.00  0.00    +0.000 NA
ATOM     10  C   UNL     1      -8.393  -2.447 125.083  0.00  0.00    +0.000 A 
ATOM     11  N   UNL     1      -7.847  -3.205 126.148  0.00  0.00    +0.000 N 
ATOM     12  H   UNL     1      -7.759  -4.190 125.935  0.00  0.00    +0.000 HD
ENDROOT
BRANCH  11  13
ATOM     13  C   UNL     1      -7.551  -2.799 127.459  0.00  0.00    +0.000 A 
ATOM     14  C   UNL     1      -6.239  -2.442 127.783  0.00  0.00    +0.000 A 
ATOM     15  C   UNL     1      -5.783  -2.390 129.101  0.00  0.00    +0.000 A 
ATOM     16 CL   UNL     1      -4.052  -2.270 129.177  0.00  0.00    +0.000 Cl
ATOM     17  C   UNL     1      -6.676  -2.555 130.171  0.00  0.00    +0.000 A 
ATOM     18  C   UNL     1      -8.028  -2.873 129.849  0.00  0.00    +0.000 A 
ATOM     19  C   UNL     1      -8.462  -2.983 128.503  0.00  0.00    +0.000 A 
BRANCH  17  20
ATOM     20  O   UNL     1      -6.369  -2.407 131.514  0.00  0.00    +0.000 OA
BRANCH  20  21
ATOM     21  C   UNL     1      -7.431  -1.916 132.407  0.00  0.00    +0.000 C 
BRANCH  21  22
ATOM     22  C   UNL     1      -7.641  -0.408 132.466  0.00  0.00    +0.000 A 
ATOM     23  C   UNL     1      -8.779   0.042 131.899  0.00  0.00    +0.000 A 
ATOM     24  C   UNL     1      -9.295   1.315 132.070  0.00  0.00    +0.000 A 
ATOM     25  F   UNL     1     -10.587   1.536 131.944  0.00  0.00    +0.000 F 
ATOM     26  C   UNL     1      -8.592   2.309 132.639  0.00  0.00    +0.000 A 
ATOM     27  C   UNL     1      -7.411   1.916 133.226  0.00  0.00    +0.000 A 
ATOM     28  C   UNL     1      -6.959   0.560 133.182  0.00  0.00    +0.000 A 
ENDBRANCH  21  22
ENDBRANCH  20  21
ENDBRANCH  17  20
ENDBRANCH  11  13
BRANCH   1  32
ATOM     29  C   UNL     1      -8.304   3.527 128.979  0.00  0.00    +0.000 A 
ATOM     30  C   UNL     1      -7.277   2.714 129.430  0.00  0.00    +0.000 A 
ATOM     31  C   UNL     1      -7.073   1.715 128.452  0.00  0.00    +0.000 A 
ATOM     32  C   UNL     1      -8.019   1.923 127.471  0.00  0.00    +0.000 A 
ATOM     33  O   UNL     1      -8.748   3.052 127.759  0.00  0.00    +0.000 OA
BRANCH  29  34
ATOM     34  C   UNL     1      -8.952   4.766 129.589  0.00  0.00    +0.000 C 
BRANCH  34  35
ATOM     35  N   UNL     1     -10.356   4.523 129.999  0.00  0.00    +0.000 NA
ATOM     36  H   UNL     1     -10.767   4.190 129.131  0.00  0.00    +0.000 HD
BRANCH  35  37
ATOM     37  C   UNL     1     -11.101   5.738 130.522  0.00  0.00    +0.000 C 
BRANCH  37  38
ATOM     38  C   UNL     1     -10.889   7.159 129.777  0.00  0.00    +0.000 C 
BRANCH  38  40
ATOM     39  C   UNL     1     -10.816   7.976 127.113  0.00  0.00    +0.000 C 
ATOM     40  S   UNL     1     -12.006   7.632 128.412  0.00  0.00    +0.000 S 
ATOM     41  O   UNL     1     -12.702   8.915 128.533  0.00  0.00    +0.000 OA
ATOM     42  O   UNL     1     -12.770   6.466 128.086  0.00  0.00    +0.000 OA
ENDBRANCH  38  40
ENDBRANCH  37  38
ENDBRANCH  35  37
ENDBRANCH  34  35
ENDBRANCH  29  34
ENDBRANCH   1  32
TORSDOF 10
ENDMDL
MODEL 3
REMARK VINA RESULT:      -8.9      4.219      8.551
REMARK  Name = Lapatinib
REMARK  11 active torsions:
REMARK  status: ('A' for Active; 'I' for Inactive)
REMARK    1  A    between atoms: C_1  and  S_2
REMARK    2  A    between atoms: S_2  and  C_5
REMARK    3  A    between atoms: C_5  and  C_6
REMARK    4  A    between atoms: C_6  and  N_7
REMARK    5  A    between atoms: N_7  and  C_8
REMARK    6  A    between atoms: C_8  and  C_9
REMARK    7  A    between atoms: C_12  and  C_14
REMARK    8  A    between atoms: N_24  and  C_25
REMARK    9  A    between atoms: C_29  and  O_30
REMARK   10  A    between atoms: O_30  and  C_31
REMARK   11  A    between atoms: C_31  and  C_32
REMARK                            x       y       z     vdW  Elec       q    Type
REMARK                         _______ _______ _______ _____ _____    ______ ____
ROOT
ATOM      1  C   UNL     1      -7.356   0.629 128.688  0.00  0.00    +0.000 A 
ATOM      2  C   UNL     1      -7.282   0.821 130.057  0.00  0.00    +0.000 A 
ATOM      3  C   UNL     1      -7.434  -0.211 131.030  0.00  0.00    +0.000 A 
ATOM      4  C   UNL     1      -7.451  -1.528 130.566  0.00  0.00    +0.000 A 
ATOM      5  C   UNL     1      -7.423  -1.737 129.185  0.00  0.00    +0.000 A 
ATOM      6  C   UNL     1      -7.412  -0.681 128.254  0.00  0.00    +0.000 A 
ATOM      7  N   UNL     1      -7.477  -2.577 131.396  0.00  0.00    +0.000 NA
ATOM      8  C   UNL     1      -7.509  -2.309 132.711  0.00  0.00    +0.000 A 
ATOM      9  N   UNL     1      -7.574  -1.095 133.279  0.00  0.00    +0.000 NA
ATOM     10  C   UNL     1      -7.554  -0.041 132.439  0.00  0.00    +0.000 A 
ATOM     11  N   UNL     1      -7.646   1.233 133.053  0.00  0.00    +0.000 N 
ATOM     12  H   UNL     1      -7.635   1.194 134.064  0.00  0.00    +0.000 HD
ENDROOT
BRANCH  11  13
ATOM     13  C   UNL     1      -7.876   2.484 132.458  0.00  0.00    +0.000 A 
ATOM     14  C   UNL     1      -9.151   2.783 131.970  0.00  0.00    +0.000 A 
ATOM     15  C   UNL     1      -9.379   3.813 131.055  0.00  0.00    +0.000 A 
ATOM     16 CL   UNL     1     -10.971   3.721 130.368  0.00  0.00    +0.000 Cl
ATOM     17  C   UNL     1      -8.344   4.690 130.698  0.00  0.00    +0.000 A 
ATOM     18  C   UNL     1      -7.048   4.421 131.229  0.00  0.00    +0.000 A 
ATOM     19  C   UNL     1      -6.821   3.332 132.110  0.00  0.00    +0.000 A 
BRANCH  17  20
ATOM     20  O   UNL     1      -8.472   5.814 129.899  0.00  0.00    +0.000 OA
BRANCH  20  21
ATOM     21  C   UNL     1      -9.102   7.006 130.492  0.00  0.00    +0.000 C 
BRANCH  21  22
ATOM     22  C   UNL     1     -10.387   7.503 129.842  0.00  0.00    +0.000 A 
ATOM     23  C   UNL     1     -10.249   8.017 128.603  0.00  0.00    +0.000 A 
ATOM     24  C   UNL     1     -11.295   8.274 127.735  0.00  0.00    +0.000 A 
ATOM     25  F   UNL     1     -11.101   8.274 126.433  0.00  0.00    +0.000 F 
ATOM     26  C   UNL     1     -12.582   8.250 128.127  0.00  0.00    +0.000 A 
ATOM     27  C   UNL     1     -12.788   7.747 129.391  0.00  0.00    +0.000 A 
ATOM     28  C   UNL     1     -11.705   7.332 130.227  0.00  0.00    +0.000 A 
ENDBRANCH  21  22
ENDBRANCH  20  21
ENDBRANCH  17  20
ENDBRANCH  11  13
BRANCH   1  32
ATOM     29  C   UNL     1      -8.138   2.785 125.908  0.00  0.00    +0.000 A 
ATOM     30  C   UNL     1      -7.598   3.745 126.749  0.00  0.00    +0.000 A 
ATOM     31  C   UNL     1      -7.180   3.084 127.925  0.00  0.00    +0.000 A 
ATOM     32  C   UNL     1      -7.533   1.759 127.781  0.00  0.00    +0.000 A 
ATOM     33  O   UNL     1      -8.078   1.555 126.536  0.00  0.00    +0.000 OA
BRANCH  29  34
ATOM     34  C   UNL     1      -8.734   2.891 124.508  0.00  0.00    +0.000 C 
BRANCH  34  35
ATOM     35  N   UNL     1      -9.979   2.100 124.364  0.00  0.00    +0.000 NA
ATOM     36  H   UNL     1     -10.041   1.649 125.273  0.00  0.00    +0.000 HD
BRANCH  35  37
ATOM     37  C   UNL     1      -9.974   1.073 123.247  0.00  0.00    +0.000 C 
BRANCH  37  38
ATOM     38  C   UNL     1      -8.850  -0.092 123.269  0.00  0.00    +0.000 C 
BRANCH  38  40
ATOM     39  C   UNL     1      -7.357  -1.977 124.679  0.00  0.00    +0.000 C 
ATOM     40  S   UNL     1      -9.068  -1.530 124.373  0.00  0.00    +0.000 S 
ATOM     41  O   UNL     1      -9.599  -2.756 123.774  0.00  0.00    +0.000 OA
ATOM     42  O   UNL     1      -9.672  -1.036 125.574  0.00  0.00    +0.000 OA
ENDBRANCH  38  40
ENDBRANCH  37  38
ENDBRANCH  35  37
ENDBRANCH  34  35
ENDBRANCH  29  34
ENDBRANCH   1  32
TORSDOF 10
ENDMDL
MODEL 4
REMARK VINA RESULT:      -8.7      4.619      8.719
REMARK  Name = Lapatinib
REMARK  11 active torsions:
REMARK  status: ('A' for Active; 'I' for Inactive)
REMARK    1  A    between atoms: C_1  and  S_2
REMARK    2  A    between atoms: S_2  and  C_5
REMARK    3  A    between atoms: C_5  and  C_6
REMARK    4  A    between atoms: C_6  and  N_7
REMARK    5  A    between atoms: N_7  and  C_8
REMARK    6  A    between atoms: C_8  and  C_9
REMARK    7  A    between atoms: C_12  and  C_14
REMARK    8  A    between atoms: N_24  and  C_25
REMARK    9  A    between atoms: C_29  and  O_30
REMARK   10  A    between atoms: O_30  and  C_31
REMARK   11  A    between atoms: C_31  and  C_32
REMARK                            x       y       z     vdW  Elec       q    Type
REMARK                         _______ _______ _______ _____ _____    ______ ____
ROOT
ATOM      1  C   UNL     1      -7.020  -1.486 129.377  0.00  0.00    +0.000 A 
ATOM      2  C   UNL     1      -6.989  -0.724 130.531  0.00  0.00    +0.000 A 
ATOM      3  C   UNL     1      -6.797  -1.248 131.844  0.00  0.00    +0.000 A 
ATOM      4  C   UNL     1      -6.408  -2.586 131.946  0.00  0.00    +0.000 A 
ATOM      5  C   UNL     1      -6.336  -3.340 130.772  0.00  0.00    +0.000 A 
ATOM      6  C   UNL     1      -6.670  -2.816 129.508  0.00  0.00    +0.000 A 
ATOM      7  N   UNL     1      -6.092  -3.150 133.117  0.00  0.00    +0.000 NA
ATOM      8  C   UNL     1      -6.187  -2.374 134.208  0.00  0.00    +0.000 A 
ATOM      9  N   UNL     1      -6.619  -1.105 134.253  0.00  0.00    +0.000 NA
ATOM     10  C   UNL     1      -6.943  -0.542 133.072  0.00  0.00    +0.000 A 
ATOM     11  N   UNL     1      -7.419   0.791 133.139  0.00  0.00    +0.000 N 
ATOM     12  H   UNL     1      -7.382   1.184 134.070  0.00  0.00    +0.000 HD
ENDROOT
BRANCH  11  13
ATOM     13  C   UNL     1      -8.038   1.557 132.138  0.00  0.00    +0.000 A 
ATOM     14  C   UNL     1      -7.311   2.570 131.507  0.00  0.00    +0.000 A 
ATOM     15  C   UNL     1      -7.928   3.599 130.793  0.00  0.00    +0.000 A 
ATOM     16 CL   UNL     1      -6.818   4.885 130.432  0.00  0.00    +0.000 Cl
ATOM     17  C   UNL     1      -9.311   3.572 130.557  0.00  0.00    +0.000 A 
ATOM     18  C   UNL     1     -10.055   2.515 131.158  0.00  0.00    +0.000 A 
ATOM     19  C   UNL     1      -9.420   1.510 131.933  0.00  0.00    +0.000 A 
BRANCH  17  20
ATOM     20  O   UNL     1     -10.016   4.465 129.767  0.00  0.00    +0.000 OA
BRANCH  20  21
ATOM     21  C   UNL     1     -11.274   5.008 130.306  0.00  0.00    +0.000 C 
BRANCH  21  22
ATOM     22  C   UNL     1     -11.815   6.273 129.653  0.00  0.00    +0.000 A 
ATOM     23  C   UNL     1     -10.912   7.254 129.451  0.00  0.00    +0.000 A 
ATOM     24  C   UNL     1     -11.116   8.360 128.645  0.00  0.00    +0.000 A 
ATOM     25  F   UNL     1     -10.098   8.980 128.087  0.00  0.00    +0.000 F 
ATOM     26  C   UNL     1     -12.327   8.688 128.161  0.00  0.00    +0.000 A 
ATOM     27  C   UNL     1     -13.299   7.732 128.348  0.00  0.00    +0.000 A 
ATOM     28  C   UNL     1     -13.036   6.512 129.046  0.00  0.00    +0.000 A 
ENDBRANCH  21  22
ENDBRANCH  20  21
ENDBRANCH  17  20
ENDBRANCH  11  13
BRANCH   1  32
ATOM     29  C   UNL     1      -8.098  -0.944 125.980  0.00  0.00    +0.000 A 
ATOM     30  C   UNL     1      -8.459   0.291 126.495  0.00  0.00    +0.000 A 
ATOM     31  C   UNL     1      -8.080   0.304 127.856  0.00  0.00    +0.000 A 
ATOM     32  C   UNL     1      -7.555  -0.941 128.132  0.00  0.00    +0.000 A 
ATOM     33  O   UNL     1      -7.519  -1.697 126.985  0.00  0.00    +0.000 OA
BRANCH  29  34
ATOM     34  C   UNL     1      -8.236  -1.533 124.579  0.00  0.00    +0.000 C 
BRANCH  34  35
ATOM     35  N   UNL     1      -9.550  -1.225 123.967  0.00  0.00    +0.000 NA
ATOM     36  H   UNL     1      -9.835  -2.139 123.626  0.00  0.00    +0.000 HD
BRANCH  35  37
ATOM     37  C   UNL     1      -9.521  -0.210 122.839  0.00  0.00    +0.000 C 
BRANCH  37  38
ATOM     38  C   UNL     1      -9.982   1.310 123.151  0.00  0.00    +0.000 C 
BRANCH  38  40
ATOM     39  C   UNL     1      -7.219   1.670 123.212  0.00  0.00    +0.000 C 
ATOM     40  S   UNL     1      -8.730   2.639 123.187  0.00  0.00    +0.000 S 
ATOM     41  O   UNL     1      -8.614   3.413 124.425  0.00  0.00    +0.000 OA
ATOM     42  O   UNL     1      -8.845   3.343 121.945  0.00  0.00    +0.000 OA
ENDBRANCH  38  40
ENDBRANCH  37  38
ENDBRANCH  35  37
ENDBRANCH  34  35
ENDBRANCH  29  34
ENDBRANCH   1  32
TORSDOF 10
ENDMDL
MODEL 5
REMARK VINA RESULT:      -8.6      3.502      7.418
REMARK  Name = Lapatinib
REMARK  11 active torsions:
REMARK  status: ('A' for Active; 'I' for Inactive)
REMARK    1  A    between atoms: C_1  and  S_2
REMARK    2  A    between atoms: S_2  and  C_5
REMARK    3  A    between atoms: C_5  and  C_6
REMARK    4  A    between atoms: C_6  and  N_7
REMARK    5  A    between atoms: N_7  and  C_8
REMARK    6  A    between atoms: C_8  and  C_9
REMARK    7  A    between atoms: C_12  and  C_14
REMARK    8  A    between atoms: N_24  and  C_25
REMARK    9  A    between atoms: C_29  and  O_30
REMARK   10  A    between atoms: O_30  and  C_31
REMARK   11  A    between atoms: C_31  and  C_32
REMARK                            x       y       z     vdW  Elec       q    Type
REMARK                         _______ _______ _______ _____ _____    ______ ____
ROOT
ATOM      1  C   UNL     1      -7.939  -0.849 127.598  0.00  0.00    +0.000 A 
ATOM      2  C   UNL     1      -8.333  -0.384 126.356  0.00  0.00    +0.000 A 
ATOM      3  C   UNL     1      -8.649  -1.216 125.241  0.00  0.00    +0.000 A 
ATOM      4  C   UNL     1      -8.768  -2.587 125.482  0.00  0.00    +0.000 A 
ATOM      5  C   UNL     1      -8.470  -3.056 126.764  0.00  0.00    +0.000 A 
ATOM      6  C   UNL     1      -8.027  -2.213 127.800  0.00  0.00    +0.000 A 
ATOM      7  N   UNL     1      -9.169  -3.446 124.537  0.00  0.00    +0.000 NA
ATOM      8  C   UNL     1      -9.434  -2.933 123.326  0.00  0.00    +0.000 A 
ATOM      9  N   UNL     1      -9.286  -1.655 122.947  0.00  0.00    +0.000 NA
ATOM     10  C   UNL     1      -8.876  -0.793 123.900  0.00  0.00    +0.000 A 
ATOM     11  N   UNL     1      -8.702   0.549 123.479  0.00  0.00    +0.000 N 
ATOM     12  H   UNL     1      -8.987   0.709 122.522  0.00  0.00    +0.000 HD
ENDROOT
BRANCH  11  13
ATOM     13  C   UNL     1      -8.083   1.612 124.156  0.00  0.00    +0.000 A 
ATOM     14  C   UNL     1      -6.777   1.451 124.628  0.00  0.00    +0.000 A 
ATOM     15  C   UNL     1      -6.229   2.281 125.607  0.00  0.00    +0.000 A 
ATOM     16 CL   UNL     1      -4.747   1.635 126.241  0.00  0.00    +0.000 Cl
ATOM     17  C   UNL     1      -6.929   3.412 126.056  0.00  0.00    +0.000 A 
ATOM     18  C   UNL     1      -8.245   3.610 125.544  0.00  0.00    +0.000 A 
ATOM     19  C   UNL     1      -8.811   2.722 124.594  0.00  0.00    +0.000 A 
BRANCH  17  20
ATOM     20  O   UNL     1      -6.445   4.372 126.930  0.00  0.00    +0.000 OA
BRANCH  20  21
ATOM     21  C   UNL     1      -5.123   4.951 126.644  0.00  0.00    +0.000 C 
BRANCH  21  22
ATOM     22  C   UNL     1      -4.236   5.270 127.841  0.00  0.00    +0.000 A 
ATOM     23  C   UNL     1      -4.429   4.496 128.929  0.00  0.00    +0.000 A 
ATOM     24  C   UNL     1      -3.570   4.429 130.012  0.00  0.00    +0.000 A 
ATOM     25  F   UNL     1      -3.518   3.347 130.760  0.00  0.00    +0.000 F 
ATOM     26  C   UNL     1      -2.566   5.305 130.193  0.00  0.00    +0.000 A 
ATOM     27  C   UNL     1      -2.327   6.135 129.121  0.00  0.00    +0.000 A 
ATOM     28  C   UNL     1      -3.124   6.088 127.935  0.00  0.00    +0.000 A 
ENDBRANCH  21  22
ENDBRANCH  20  21
ENDBRANCH  17  20
ENDBRANCH  11  13
BRANCH   1  32
ATOM     29  C   UNL     1      -7.118   1.857 129.834  0.00  0.00    +0.000 A 
ATOM     30  C   UNL     1      -5.996   1.074 130.060  0.00  0.00    +0.000 A 
ATOM     31  C   UNL     1      -6.104  -0.061 129.226  0.00  0.00    +0.000 A 
ATOM     32  C   UNL     1      -7.311   0.044 128.568  0.00  0.00    +0.000 A 
ATOM     33  O   UNL     1      -7.919   1.231 128.897  0.00  0.00    +0.000 OA
BRANCH  29  34
ATOM     34  C   UNL     1      -7.550   3.195 130.425  0.00  0.00    +0.000 C 
BRANCH  34  35
ATOM     35  N   UNL     1      -8.315   4.017 129.458  0.00  0.00    +0.000 NA
ATOM     36  H   UNL     1      -7.773   3.890 128.608  0.00  0.00    +0.000 HD
BRANCH  35  37
ATOM     37  C   UNL     1      -8.439   5.489 129.808  0.00  0.00    +0.000 C 
BRANCH  37  38
ATOM     38  C   UNL     1      -9.834   6.246 129.494  0.00  0.00    +0.000 C 
BRANCH  38  40
ATOM     39  C   UNL     1     -12.594   6.351 129.118  0.00  0.00    +0.000 C 
ATOM     40  S   UNL     1     -11.385   5.608 130.217  0.00  0.00    +0.000 S 
ATOM     41  O   UNL     1     -11.786   6.147 131.518  0.00  0.00    +0.000 OA
ATOM     42  O   UNL     1     -11.364   4.187 130.040  0.00  0.00    +0.000 OA
ENDBRANCH  38  40
ENDBRANCH  37  38
ENDBRANCH  35  37
ENDBRANCH  34  35
ENDBRANCH  29  34
ENDBRANCH   1  32
TORSDOF 10
ENDMDL
MODEL 6
REMARK VINA RESULT:      -8.6      5.252      7.504
REMARK  Name = Lapatinib
REMARK  11 active torsions:
REMARK  status: ('A' for Active; 'I' for Inactive)
REMARK    1  A    between atoms: C_1  and  S_2
REMARK    2  A    between atoms: S_2  and  C_5
REMARK    3  A    between atoms: C_5  and  C_6
REMARK    4  A    between atoms: C_6  and  N_7
REMARK    5  A    between atoms: N_7  and  C_8
REMARK    6  A    between atoms: C_8  and  C_9
REMARK    7  A    between atoms: C_12  and  C_14
REMARK    8  A    between atoms: N_24  and  C_25
REMARK    9  A    between atoms: C_29  and  O_30
REMARK   10  A    between atoms: O_30  and  C_31
REMARK   11  A    between atoms: C_31  and  C_32
REMARK                            x       y       z     vdW  Elec       q    Type
REMARK                         _______ _______ _______ _____ _____    ______ ____
ROOT
ATOM      1  C   UNL     1      -8.393   1.238 126.427  0.00  0.00    +0.000 A 
ATOM      2  C   UNL     1      -8.010  -0.087 126.320  0.00  0.00    +0.000 A 
ATOM      3  C   UNL     1      -8.434  -0.973 125.285  0.00  0.00    +0.000 A 
ATOM      4  C   UNL     1      -9.111  -0.411 124.201  0.00  0.00    +0.000 A 
ATOM      5  C   UNL     1      -9.415   0.953 124.253  0.00  0.00    +0.000 A 
ATOM      6  C   UNL     1      -9.097   1.763 125.360  0.00  0.00    +0.000 A 
ATOM      7  N   UNL     1      -9.456  -1.127 123.125  0.00  0.00    +0.000 NA
ATOM      8  C   UNL     1      -9.142  -2.431 123.140  0.00  0.00    +0.000 A 
ATOM      9  N   UNL     1      -8.565  -3.105 124.147  0.00  0.00    +0.000 NA
ATOM     10  C   UNL     1      -8.224  -2.381 125.231  0.00  0.00    +0.000 A 
ATOM     11  N   UNL     1      -7.637  -3.110 126.295  0.00  0.00    +0.000 N 
ATOM     12  H   UNL     1      -7.473  -4.083 126.072  0.00  0.00    +0.000 HD
ENDROOT
BRANCH  11  13
ATOM     13  C   UNL     1      -7.388  -2.699 127.614  0.00  0.00    +0.000 A 
ATOM     14  C   UNL     1      -6.084  -2.363 127.989  0.00  0.00    +0.000 A 
ATOM     15  C   UNL     1      -5.681  -2.309 129.325  0.00  0.00    +0.000 A 
ATOM     16 CL   UNL     1      -3.952  -2.220 129.471  0.00  0.00    +0.000 Cl
ATOM     17  C   UNL     1      -6.620  -2.449 130.358  0.00  0.00    +0.000 A 
ATOM     18  C   UNL     1      -7.963  -2.745 129.983  0.00  0.00    +0.000 A 
ATOM     19  C   UNL     1      -8.344  -2.858 128.621  0.00  0.00    +0.000 A 
BRANCH  17  20
ATOM     20  O   UNL     1      -6.366  -2.296 131.711  0.00  0.00    +0.000 OA
BRANCH  20  21
ATOM     21  C   UNL     1      -7.468  -2.569 132.648  0.00  0.00    +0.000 C 
BRANCH  21  22
ATOM     22  C   UNL     1      -7.235  -3.656 133.690  0.00  0.00    +0.000 A 
ATOM     23  C   UNL     1      -8.234  -3.831 134.579  0.00  0.00    +0.000 A 
ATOM     24  C   UNL     1      -8.354  -4.919 135.426  0.00  0.00    +0.000 A 
ATOM     25  F   UNL     1      -9.534  -5.295 135.870  0.00  0.00    +0.000 F 
ATOM     26  C   UNL     1      -7.358  -5.804 135.610  0.00  0.00    +0.000 A 
ATOM     27  C   UNL     1      -6.300  -5.668 134.741  0.00  0.00    +0.000 A 
ATOM     28  C   UNL     1      -6.258  -4.632 133.756  0.00  0.00    +0.000 A 
ENDBRANCH  21  22
ENDBRANCH  20  21
ENDBRANCH  17  20
ENDBRANCH  11  13
BRANCH   1  32
ATOM     29  C   UNL     1      -8.815   2.937 129.578  0.00  0.00    +0.000 A 
ATOM     30  C   UNL     1      -7.448   3.121 129.442  0.00  0.00    +0.000 A 
ATOM     31  C   UNL     1      -7.068   2.540 128.212  0.00  0.00    +0.000 A 
ATOM     32  C   UNL     1      -8.204   1.975 127.673  0.00  0.00    +0.000 A 
ATOM     33  O   UNL     1      -9.286   2.249 128.475  0.00  0.00    +0.000 OA
BRANCH  29  34
ATOM     34  C   UNL     1      -9.785   3.354 130.679  0.00  0.00    +0.000 C 
BRANCH  34  35
ATOM     35  N   UNL     1     -11.007   3.997 130.140  0.00  0.00    +0.000 NA
ATOM     36  H   UNL     1     -10.902   3.830 129.143  0.00  0.00    +0.000 HD
BRANCH  35  37
ATOM     37  C   UNL     1     -11.146   5.480 130.431  0.00  0.00    +0.000 C 
BRANCH  37  38
ATOM     38  C   UNL     1     -11.903   6.416 129.349  0.00  0.00    +0.000 C 
BRANCH  38  40
ATOM     39  C   UNL     1     -10.823   7.387 126.970  0.00  0.00    +0.000 C 
ATOM     40  S   UNL     1     -11.049   7.885 128.679  0.00  0.00    +0.000 S 
ATOM     41  O   UNL     1      -9.669   8.111 129.114  0.00  0.00    +0.000 OA
ATOM     42  O   UNL     1     -11.980   8.970 128.758  0.00  0.00    +0.000 OA
ENDBRANCH  38  40
ENDBRANCH  37  38
ENDBRANCH  35  37
ENDBRANCH  34  35
ENDBRANCH  29  34
ENDBRANCH   1  32
TORSDOF 10
ENDMDL
MODEL 7
REMARK VINA RESULT:      -8.6      4.381      5.391
REMARK  Name = Lapatinib
REMARK  11 active torsions:
REMARK  status: ('A' for Active; 'I' for Inactive)
REMARK    1  A    between atoms: C_1  and  S_2
REMARK    2  A    between atoms: S_2  and  C_5
REMARK    3  A    between atoms: C_5  and  C_6
REMARK    4  A    between atoms: C_6  and  N_7
REMARK    5  A    between atoms: N_7  and  C_8
REMARK    6  A    between atoms: C_8  and  C_9
REMARK    7  A    between atoms: C_12  and  C_14
REMARK    8  A    between atoms: N_24  and  C_25
REMARK    9  A    between atoms: C_29  and  O_30
REMARK   10  A    between atoms: O_30  and  C_31
REMARK   11  A    between atoms: C_31  and  C_32
REMARK                            x       y       z     vdW  Elec       q    Type
REMARK                         _______ _______ _______ _____ _____    ______ ____
ROOT
ATOM      1  C   UNL     1      -4.194   4.188 127.886  0.00  0.00    +0.000 A 
ATOM      2  C   UNL     1      -4.331   3.719 129.181  0.00  0.00    +0.000 A 
ATOM      3  C   UNL     1      -3.516   4.123 130.280  0.00  0.00    +0.000 A 
ATOM      4  C   UNL     1      -2.666   5.212 130.077  0.00  0.00    +0.000 A 
ATOM      5  C   UNL     1      -2.596   5.760 128.794  0.00  0.00    +0.000 A 
ATOM      6  C   UNL     1      -3.318   5.240 127.703  0.00  0.00    +0.000 A 
ATOM      7  N   UNL     1      -1.941   5.746 131.067  0.00  0.00    +0.000 NA
ATOM      8  C   UNL     1      -2.047   5.170 132.274  0.00  0.00    +0.000 A 
ATOM      9  N   UNL     1      -2.765   4.078 132.580  0.00  0.00    +0.000 NA
ATOM     10  C   UNL     1      -3.490   3.540 131.579  0.00  0.00    +0.000 A 
ATOM     11  N   UNL     1      -4.224   2.375 131.912  0.00  0.00    +0.000 N 
ATOM     12  H   UNL     1      -4.174   2.136 132.894  0.00  0.00    +0.000 HD
ENDROOT
BRANCH  11  13
ATOM     13  C   UNL     1      -4.878   1.470 131.060  0.00  0.00    +0.000 A 
ATOM     14  C   UNL     1      -6.272   1.388 131.092  0.00  0.00    +0.000 A 
ATOM     15  C   UNL     1      -6.968   0.294 130.577  0.00  0.00    +0.000 A 
ATOM     16 CL   UNL     1      -8.634   0.301 131.070  0.00  0.00    +0.000 Cl
ATOM     17  C   UNL     1      -6.292  -0.710 129.866  0.00  0.00    +0.000 A 
ATOM     18  C   UNL     1      -4.872  -0.609 129.787  0.00  0.00    +0.000 A 
ATOM     19  C   UNL     1      -4.173   0.479 130.371  0.00  0.00    +0.000 A 
BRANCH  17  20
ATOM     20  O   UNL     1      -6.882  -1.776 129.208  0.00  0.00    +0.000 OA
BRANCH  20  21
ATOM     21  C   UNL     1      -7.564  -1.500 127.932  0.00  0.00    +0.000 C 
BRANCH  21  22
ATOM     22  C   UNL     1      -7.037  -2.221 126.698  0.00  0.00    +0.000 A 
ATOM     23  C   UNL     1      -7.945  -2.956 126.025  0.00  0.00    +0.000 A 
ATOM     24  C   UNL     1      -7.759  -3.466 124.751  0.00  0.00    +0.000 A 
ATOM     25  F   UNL     1      -8.790  -3.707 123.969  0.00  0.00    +0.000 F 
ATOM     26  C   UNL     1      -6.559  -3.473 124.144  0.00  0.00    +0.000 A 
ATOM     27  C   UNL     1      -5.583  -2.750 124.791  0.00  0.00    +0.000 A 
ATOM     28  C   UNL     1      -5.830  -2.089 126.035  0.00  0.00    +0.000 A 
ENDBRANCH  21  22
ENDBRANCH  20  21
ENDBRANCH  17  20
ENDBRANCH  11  13
BRANCH   1  32
ATOM     29  C   UNL     1      -5.700   3.282 124.739  0.00  0.00    +0.000 A 
ATOM     30  C   UNL     1      -5.758   2.036 125.345  0.00  0.00    +0.000 A 
ATOM     31  C   UNL     1      -5.231   2.180 126.648  0.00  0.00    +0.000 A 
ATOM     32  C   UNL     1      -4.820   3.491 126.766  0.00  0.00    +0.000 A 
ATOM     33  O   UNL     1      -5.141   4.184 125.624  0.00  0.00    +0.000 OA
BRANCH  29  34
ATOM     34  C   UNL     1      -6.133   3.750 123.354  0.00  0.00    +0.000 C 
BRANCH  34  35
ATOM     35  N   UNL     1      -6.966   2.745 122.654  0.00  0.00    +0.000 NA
ATOM     36  H   UNL     1      -6.619   2.819 121.701  0.00  0.00    +0.000 HD
BRANCH  35  37
ATOM     37  C   UNL     1      -8.464   2.988 122.707  0.00  0.00    +0.000 C 
BRANCH  37  38
ATOM     38  C   UNL     1      -9.459   1.712 122.672  0.00  0.00    +0.000 C 
BRANCH  38  40
ATOM     39  C   UNL     1      -9.149   0.506 125.166  0.00  0.00    +0.000 C 
ATOM     40  S   UNL     1      -8.925   0.136 123.425  0.00  0.00    +0.000 S 
ATOM     41  O   UNL     1      -7.496  -0.182 123.364  0.00  0.00    +0.000 OA
ATOM     42  O   UNL     1      -9.867  -0.858 123.005  0.00  0.00    +0.000 OA
ENDBRANCH  38  40
ENDBRANCH  37  38
ENDBRANCH  35  37
ENDBRANCH  34  35
ENDBRANCH  29  34
ENDBRANCH   1  32
TORSDOF 10
ENDMDL
MODEL 8
REMARK VINA RESULT:      -8.5      4.558      8.488
REMARK  Name = Lapatinib
REMARK  11 active torsions:
REMARK  status: ('A' for Active; 'I' for Inactive)
REMARK    1  A    between atoms: C_1  and  S_2
REMARK    2  A    between atoms: S_2  and  C_5
REMARK    3  A    between atoms: C_5  and  C_6
REMARK    4  A    between atoms: C_6  and  N_7
REMARK    5  A    between atoms: N_7  and  C_8
REMARK    6  A    between atoms: C_8  and  C_9
REMARK    7  A    between atoms: C_12  and  C_14
REMARK    8  A    between atoms: N_24  and  C_25
REMARK    9  A    between atoms: C_29  and  O_30
REMARK   10  A    between atoms: O_30  and  C_31
REMARK   11  A    between atoms: C_31  and  C_32
REMARK                            x       y       z     vdW  Elec       q    Type
REMARK                         _______ _______ _______ _____ _____    ______ ____
ROOT
ATOM      1  C   UNL     1      -6.891   0.735 128.323  0.00  0.00    +0.000 A 
ATOM      2  C   UNL     1      -6.944   0.292 129.633  0.00  0.00    +0.000 A 
ATOM      3  C   UNL     1      -6.954  -1.079 130.025  0.00  0.00    +0.000 A 
ATOM      4  C   UNL     1      -6.682  -2.028 129.038  0.00  0.00    +0.000 A 
ATOM      5  C   UNL     1      -6.524  -1.579 127.723  0.00  0.00    +0.000 A 
ATOM      6  C   UNL     1      -6.660  -0.227 127.358  0.00  0.00    +0.000 A 
ATOM      7  N   UNL     1      -6.555  -3.331 129.314  0.00  0.00    +0.000 NA
ATOM      8  C   UNL     1      -6.724  -3.697 130.594  0.00  0.00    +0.000 A 
ATOM      9  N   UNL     1      -7.062  -2.899 131.617  0.00  0.00    +0.000 NA
ATOM     10  C   UNL     1      -7.195  -1.588 131.334  0.00  0.00    +0.000 A 
ATOM     11  N   UNL     1      -7.575  -0.761 132.421  0.00  0.00    +0.000 N 
ATOM     12  H   UNL     1      -7.622  -1.255 133.302  0.00  0.00    +0.000 HD
ENDROOT
BRANCH  11  13
ATOM     13  C   UNL     1      -8.007   0.575 132.403  0.00  0.00    +0.000 A 
ATOM     14  C   UNL     1      -7.254   1.544 133.072  0.00  0.00    +0.000 A 
ATOM     15  C   UNL     1      -7.780   2.789 133.421  0.00  0.00    +0.000 A 
ATOM     16 CL   UNL     1      -6.750   3.631 134.537  0.00  0.00    +0.000 Cl
ATOM     17  C   UNL     1      -9.056   3.172 132.979  0.00  0.00    +0.000 A 
ATOM     18  C   UNL     1      -9.813   2.206 132.255  0.00  0.00    +0.000 A 
ATOM     19  C   UNL     1      -9.287   0.921 131.961  0.00  0.00    +0.000 A 
BRANCH  17  20
ATOM     20  O   UNL     1      -9.635   4.418 133.157  0.00  0.00    +0.000 OA
BRANCH  20  21
ATOM     21  C   UNL     1      -9.037   5.558 132.443  0.00  0.00    +0.000 C 
BRANCH  21  22
ATOM     22  C   UNL     1      -9.907   6.255 131.404  0.00  0.00    +0.000 A 
ATOM     23  C   UNL     1     -11.221   6.320 131.697  0.00  0.00    +0.000 A 
ATOM     24  C   UNL     1     -12.136   7.126 131.043  0.00  0.00    +0.000 A 
ATOM     25  F   UNL     1     -13.227   7.535 131.655  0.00  0.00    +0.000 F 
ATOM     26  C   UNL     1     -11.847   7.761 129.893  0.00  0.00    +0.000 A 
ATOM     27  C   UNL     1     -10.521   7.719 129.531  0.00  0.00    +0.000 A 
ATOM     28  C   UNL     1      -9.547   7.013 130.304  0.00  0.00    +0.000 A 
ENDBRANCH  21  22
ENDBRANCH  20  21
ENDBRANCH  17  20
ENDBRANCH  11  13
BRANCH   1  32
ATOM     29  C   UNL     1      -7.285   3.940 126.721  0.00  0.00    +0.000 A 
ATOM     30  C   UNL     1      -7.946   4.234 127.904  0.00  0.00    +0.000 A 
ATOM     31  C   UNL     1      -7.876   3.083 128.720  0.00  0.00    +0.000 A 
ATOM     32  C   UNL     1      -7.227   2.114 127.983  0.00  0.00    +0.000 A 
ATOM     33  O   UNL     1      -6.822   2.639 126.779  0.00  0.00    +0.000 OA
BRANCH  29  34
ATOM     34  C   UNL     1      -7.021   4.782 125.477  0.00  0.00    +0.000 C 
BRANCH  34  35
ATOM     35  N   UNL     1      -7.188   4.006 124.226  0.00  0.00    +0.000 NA
ATOM     36  H   UNL     1      -7.112   4.735 123.522  0.00  0.00    +0.000 HD
BRANCH  35  37
ATOM     37  C   UNL     1      -8.501   3.256 124.093  0.00  0.00    +0.000 C 
BRANCH  37  38
ATOM     38  C   UNL     1      -8.578   2.001 123.075  0.00  0.00    +0.000 C 
BRANCH  38  40
ATOM     39  C   UNL     1      -8.647  -0.779 123.270  0.00  0.00    +0.000 C 
ATOM     40  S   UNL     1      -9.741   0.635 123.419  0.00  0.00    +0.000 S 
ATOM     41  O   UNL     1     -10.751   0.346 122.398  0.00  0.00    +0.000 OA
ATOM     42  O   UNL     1     -10.164   0.792 124.778  0.00  0.00    +0.000 OA
ENDBRANCH  38  40
ENDBRANCH  37  38
ENDBRANCH  35  37
ENDBRANCH  34  35
ENDBRANCH  29  34
ENDBRANCH   1  32
TORSDOF 10
ENDMDL
MODEL 9
REMARK VINA RESULT:      -8.5      3.864      7.617
REMARK  Name = Lapatinib
REMARK  11 active torsions:
REMARK  status: ('A' for Active; 'I' for Inactive)
REMARK    1  A    between atoms: C_1  and  S_2
REMARK    2  A    between atoms: S_2  and  C_5
REMARK    3  A    between atoms: C_5  and  C_6
REMARK    4  A    between atoms: C_6  and  N_7
REMARK    5  A    between atoms: N_7  and  C_8
REMARK    6  A    between atoms: C_8  and  C_9
REMARK    7  A    between atoms: C_12  and  C_14
REMARK    8  A    between atoms: N_24  and  C_25
REMARK    9  A    between atoms: C_29  and  O_30
REMARK   10  A    between atoms: O_30  and  C_31
REMARK   11  A    between atoms: C_31  and  C_32
REMARK                            x       y       z     vdW  Elec       q    Type
REMARK                         _______ _______ _______ _____ _____    ______ ____
ROOT
ATOM      1  C   UNL     1      -5.869   3.031 124.883  0.00  0.00    +0.000 A 
ATOM      2  C   UNL     1      -6.768   2.012 125.143  0.00  0.00    +0.000 A 
ATOM      3  C   UNL     1      -7.938   1.746 124.372  0.00  0.00    +0.000 A 
ATOM      4  C   UNL     1      -8.072   2.426 123.160  0.00  0.00    +0.000 A 
ATOM      5  C   UNL     1      -7.111   3.389 122.838  0.00  0.00    +0.000 A 
ATOM      6  C   UNL     1      -6.044   3.717 123.697  0.00  0.00    +0.000 A 
ATOM      7  N   UNL     1      -9.070   2.174 122.306  0.00  0.00    +0.000 NA
ATOM      8  C   UNL     1      -9.963   1.243 122.676  0.00  0.00    +0.000 A 
ATOM      9  N   UNL     1      -9.990   0.578 123.841  0.00  0.00    +0.000 NA
ATOM     10  C   UNL     1      -8.986   0.840 124.701  0.00  0.00    +0.000 A 
ATOM     11  N   UNL     1      -9.042   0.146 125.936  0.00  0.00    +0.000 N 
ATOM     12  H   UNL     1      -9.795  -0.527 125.985  0.00  0.00    +0.000 HD
ENDROOT
BRANCH  11  13
ATOM     13  C   UNL     1      -8.292   0.364 127.104  0.00  0.00    +0.000 A 
ATOM     14  C   UNL     1      -7.423  -0.634 127.552  0.00  0.00    +0.000 A 
ATOM     15  C   UNL     1      -6.935  -0.669 128.859  0.00  0.00    +0.000 A 
ATOM     16 CL   UNL     1      -6.179  -2.190 129.223  0.00  0.00    +0.000 Cl
ATOM     17  C   UNL     1      -7.189   0.392 129.742  0.00  0.00    +0.000 A 
ATOM     18  C   UNL     1      -8.037   1.439 129.277  0.00  0.00    +0.000 A 
ATOM     19  C   UNL     1      -8.575   1.428 127.964  0.00  0.00    +0.000 A 
BRANCH  17  20
ATOM     20  O   UNL     1      -6.664   0.530 131.017  0.00  0.00    +0.000 OA
BRANCH  20  21
ATOM     21  C   UNL     1      -7.575   0.334 132.156  0.00  0.00    +0.000 C 
BRANCH  21  22
ATOM     22  C   UNL     1      -7.984   1.578 132.935  0.00  0.00    +0.000 A 
ATOM     23  C   UNL     1      -7.012   2.140 133.681  0.00  0.00    +0.000 A 
ATOM     24  C   UNL     1      -7.081   3.403 134.244  0.00  0.00    +0.000 A 
ATOM     25  F   UNL     1      -5.984   4.083 134.500  0.00  0.00    +0.000 F 
ATOM     26  C   UNL     1      -8.224   4.109 134.296  0.00  0.00    +0.000 A 
ATOM     27  C   UNL     1      -9.261   3.579 133.563  0.00  0.00    +0.000 A 
ATOM     28  C   UNL     1      -9.131   2.347 132.849  0.00  0.00    +0.000 A 
ENDBRANCH  21  22
ENDBRANCH  20  21
ENDBRANCH  17  20
ENDBRANCH  11  13
BRANCH   1  32
ATOM     29  C   UNL     1      -4.069   4.746 127.493  0.00  0.00    +0.000 A 
ATOM     30  C   UNL     1      -3.171   3.710 127.290  0.00  0.00    +0.000 A 
ATOM     31  C   UNL     1      -3.685   2.909 126.245  0.00  0.00    +0.000 A 
ATOM     32  C   UNL     1      -4.901   3.454 125.892  0.00  0.00    +0.000 A 
ATOM     33  O   UNL     1      -5.127   4.601 126.615  0.00  0.00    +0.000 OA
BRANCH  29  34
ATOM     34  C   UNL     1      -4.050   5.921 128.465  0.00  0.00    +0.000 C 
BRANCH  34  35
ATOM     35  N   UNL     1      -5.285   6.000 129.279  0.00  0.00    +0.000 NA
ATOM     36  H   UNL     1      -5.039   6.717 129.955  0.00  0.00    +0.000 HD
BRANCH  35  37
ATOM     37  C   UNL     1      -5.690   4.713 129.976  0.00  0.00    +0.000 C 
BRANCH  37  38
ATOM     38  C   UNL     1      -7.147   4.635 130.677  0.00  0.00    +0.000 C 
BRANCH  38  40
ATOM     39  C   UNL     1      -9.049   6.659 130.446  0.00  0.00    +0.000 C 
ATOM     40  S   UNL     1      -8.633   5.076 129.711  0.00  0.00    +0.000 S 
ATOM     41  O   UNL     1      -9.847   4.297 129.961  0.00  0.00    +0.000 OA
ATOM     42  O   UNL     1      -8.201   5.258 128.357  0.00  0.00    +0.000 OA
ENDBRANCH  38  40
ENDBRANCH  37  38
ENDBRANCH  35  37
ENDBRANCH  34  35
ENDBRANCH  29  34
ENDBRANCH   1  32
TORSDOF 10
ENDMDL
