MODEL 1
REMARK VINA RESULT:      -6.5      0.000      0.000
REMARK  Name = Lapyrium
REMARK  17 active torsions:
REMARK  status: ('A' for Active; 'I' for Inactive)
REMARK    1  A    between atoms: C_1  and  C_2
REMARK    2  A    between atoms: C_2  and  C_3
REMARK    3  A    between atoms: C_3  and  C_4
REMARK    4  A    between atoms: C_4  and  C_5
REMARK    5  A    between atoms: C_5  and  C_6
REMARK    6  A    between atoms: C_6  and  C_7
REMARK    7  A    between atoms: C_7  and  C_8
REMARK    8  A    between atoms: C_8  and  C_9
REMARK    9  A    between atoms: C_9  and  C_10
REMARK   10  A    between atoms: C_10  and  C_11
REMARK   11  A    between atoms: C_11  and  C_12
REMARK   12  A    between atoms: C_12  and  O_14
REMARK   13  A    between atoms: O_14  and  C_15
REMARK   14  A    between atoms: C_15  and  C_16
REMARK   15  A    between atoms: C_16  and  N_17
REMARK   16  A    between atoms: C_18  and  C_20
REMARK   17  A    between atoms: C_20  and  N_21
REMARK                            x       y       z     vdW  Elec       q    Type
REMARK                         _______ _______ _______ _____ _____    ______ ____
ROOT
ATOM      1  O   UNL     1      -6.424  -0.658 126.301  0.00  0.00    +0.000 OA
ENDROOT
BRANCH   1   2
ATOM      2  C   UNL     1      -6.233  -1.120 127.577  0.00  0.00    +0.000 C 
ATOM      3  O   UNL     1      -5.272  -0.798 128.273  0.00  0.00    +0.000 OA
BRANCH   2   4
ATOM      4  C   UNL     1      -7.335  -2.064 128.015  0.00  0.00    +0.000 C 
BRANCH   4   5
ATOM      5  C   UNL     1      -8.390  -2.204 126.913  0.00  0.00    +0.000 C 
BRANCH   5   6
ATOM      6  C   UNL     1      -8.683  -3.659 126.562  0.00  0.00    +0.000 C 
BRANCH   6   7
ATOM      7  C   UNL     1      -8.418  -3.912 125.081  0.00  0.00    +0.000 C 
BRANCH   7   8
ATOM      8  C   UNL     1      -9.234  -2.956 124.224  0.00  0.00    +0.000 C 
BRANCH   8   9
ATOM      9  C   UNL     1      -8.525  -2.689 122.906  0.00  0.00    +0.000 C 
BRANCH   9  10
ATOM     10  C   UNL     1      -7.428  -1.657 123.102  0.00  0.00    +0.000 C 
BRANCH  10  11
ATOM     11  C   UNL     1      -6.123  -2.157 122.503  0.00  0.00    +0.000 C 
BRANCH  11  12
ATOM     12  C   UNL     1      -5.130  -2.484 123.606  0.00  0.00    +0.000 C 
BRANCH  12  14
ATOM     13  C   UNL     1      -3.908  -4.658 123.549  0.00  0.00    +0.000 C 
ATOM     14  C   UNL     1      -5.191  -3.963 123.960  0.00  0.00    +0.000 C 
ENDBRANCH  12  14
ENDBRANCH  11  12
ENDBRANCH  10  11
ENDBRANCH   9  10
ENDBRANCH   8   9
ENDBRANCH   7   8
ENDBRANCH   6   7
ENDBRANCH   5   6
ENDBRANCH   4   5
ENDBRANCH   2   4
ENDBRANCH   1   2
BRANCH   1  15
ATOM     15  C   UNL     1      -6.388   0.782 126.201  0.00  0.00    +0.000 C 
BRANCH  15  16
ATOM     16  C   UNL     1      -7.783   1.350 125.901  0.00  0.00    +0.000 C 
BRANCH  16  17
ATOM     17  N   UNL     1      -8.077   1.529 124.469  0.00  0.00    +0.000 N 
ATOM     18  C   UNL     1      -8.478   2.763 123.982  0.00  0.00    +0.000 C 
ATOM     19  O   UNL     1      -8.599   3.748 124.706  0.00  0.00    +0.000 OA
ATOM     20  H   UNL     1      -7.970   0.723 123.862  0.00  0.00    +0.000 HD
BRANCH  18  21
ATOM     21  C   UNL     1      -8.764   2.857 122.487  0.00  0.00    +0.000 C 
BRANCH  21  22
ATOM     22  N   UNL     1      -7.611   3.457 121.757  0.00  0.00    +0.000 N 
ATOM     23  C   UNL     1      -7.763   3.882 120.478  0.00  0.00    +0.000 A 
ATOM     24  C   UNL     1      -6.661   4.301 119.735  0.00  0.00    +0.000 A 
ATOM     25  C   UNL     1      -5.422   4.410 120.351  0.00  0.00    +0.000 A 
ATOM     26  C   UNL     1      -5.312   4.106 121.701  0.00  0.00    +0.000 A 
ATOM     27  C   UNL     1      -6.411   3.581 122.376  0.00  0.00    +0.000 A 
ENDBRANCH  21  22
ENDBRANCH  18  21
ENDBRANCH  16  17
ENDBRANCH  15  16
ENDBRANCH   1  15
TORSDOF 16
ENDMDL
MODEL 2
REMARK VINA RESULT:      -6.4      1.893      3.544
REMARK  Name = Lapyrium
REMARK  17 active torsions:
REMARK  status: ('A' for Active; 'I' for Inactive)
REMARK    1  A    between atoms: C_1  and  C_2
REMARK    2  A    between atoms: C_2  and  C_3
REMARK    3  A    between atoms: C_3  and  C_4
REMARK    4  A    between atoms: C_4  and  C_5
REMARK    5  A    between atoms: C_5  and  C_6
REMARK    6  A    between atoms: C_6  and  C_7
REMARK    7  A    between atoms: C_7  and  C_8
REMARK    8  A    between atoms: C_8  and  C_9
REMARK    9  A    between atoms: C_9  and  C_10
REMARK   10  A    between atoms: C_10  and  C_11
REMARK   11  A    between atoms: C_11  and  C_12
REMARK   12  A    between atoms: C_12  and  O_14
REMARK   13  A    between atoms: O_14  and  C_15
REMARK   14  A    between atoms: C_15  and  C_16
REMARK   15  A    between atoms: C_16  and  N_17
REMARK   16  A    between atoms: C_18  and  C_20
REMARK   17  A    between atoms: C_20  and  N_21
REMARK                            x       y       z     vdW  Elec       q    Type
REMARK                         _______ _______ _______ _____ _____    ______ ____
ROOT
ATOM      1  O   UNL     1      -8.646   0.241 123.575  0.00  0.00    +0.000 OA
ENDROOT
BRANCH   1   2
ATOM      2  C   UNL     1      -9.403  -0.644 122.855  0.00  0.00    +0.000 C 
ATOM      3  O   UNL     1     -10.524  -0.380 122.427  0.00  0.00    +0.000 OA
BRANCH   2   4
ATOM      4  C   UNL     1      -8.698  -1.972 122.656  0.00  0.00    +0.000 C 
BRANCH   4   5
ATOM      5  C   UNL     1      -9.484  -3.101 123.330  0.00  0.00    +0.000 C 
BRANCH   5   6
ATOM      6  C   UNL     1      -8.796  -3.628 124.584  0.00  0.00    +0.000 C 
BRANCH   6   7
ATOM      7  C   UNL     1      -9.336  -2.922 125.824  0.00  0.00    +0.000 C 
BRANCH   7   8
ATOM      8  C   UNL     1      -8.918  -3.664 127.084  0.00  0.00    +0.000 C 
BRANCH   8   9
ATOM      9  C   UNL     1      -8.120  -2.748 127.998  0.00  0.00    +0.000 C 
BRANCH   9  10
ATOM     10  C   UNL     1      -7.874  -1.413 127.316  0.00  0.00    +0.000 C 
BRANCH  10  11
ATOM     11  C   UNL     1      -6.471  -0.916 127.627  0.00  0.00    +0.000 C 
BRANCH  11  12
ATOM     12  C   UNL     1      -5.478  -1.484 126.627  0.00  0.00    +0.000 C 
BRANCH  12  14
ATOM     13  C   UNL     1      -5.354  -2.293 124.270  0.00  0.00    +0.000 C 
ATOM     14  C   UNL     1      -5.973  -1.271 125.203  0.00  0.00    +0.000 C 
ENDBRANCH  12  14
ENDBRANCH  11  12
ENDBRANCH  10  11
ENDBRANCH   9  10
ENDBRANCH   8   9
ENDBRANCH   7   8
ENDBRANCH   6   7
ENDBRANCH   5   6
ENDBRANCH   4   5
ENDBRANCH   2   4
ENDBRANCH   1   2
BRANCH   1  15
ATOM     15  C   UNL     1      -9.409   0.995 124.542  0.00  0.00    +0.000 C 
BRANCH  15  16
ATOM     16  C   UNL     1      -8.484   1.783 125.482  0.00  0.00    +0.000 C 
BRANCH  16  17
ATOM     17  N   UNL     1      -7.211   2.207 124.875  0.00  0.00    +0.000 N 
ATOM     18  C   UNL     1      -6.924   3.553 124.712  0.00  0.00    +0.000 C 
ATOM     19  O   UNL     1      -7.699   4.439 125.065  0.00  0.00    +0.000 OA
ATOM     20  H   UNL     1      -6.561   1.482 124.589  0.00  0.00    +0.000 HD
BRANCH  18  21
ATOM     21  C   UNL     1      -5.585   3.902 124.071  0.00  0.00    +0.000 C 
BRANCH  21  22
ATOM     22  N   UNL     1      -5.726   4.079 122.597  0.00  0.00    +0.000 N 
ATOM     23  C   UNL     1      -4.766   4.732 121.896  0.00  0.00    +0.000 A 
ATOM     24  C   UNL     1      -4.956   5.039 120.550  0.00  0.00    +0.000 A 
ATOM     25  C   UNL     1      -6.078   4.557 119.891  0.00  0.00    +0.000 A 
ATOM     26  C   UNL     1      -6.983   3.769 120.589  0.00  0.00    +0.000 A 
ATOM     27  C   UNL     1      -6.814   3.583 121.958  0.00  0.00    +0.000 A 
ENDBRANCH  21  22
ENDBRANCH  18  21
ENDBRANCH  16  17
ENDBRANCH  15  16
ENDBRANCH   1  15
TORSDOF 16
ENDMDL
MODEL 3
REMARK VINA RESULT:      -6.1      4.972      6.159
REMARK  Name = Lapyrium
REMARK  17 active torsions:
REMARK  status: ('A' for Active; 'I' for Inactive)
REMARK    1  A    between atoms: C_1  and  C_2
REMARK    2  A    between atoms: C_2  and  C_3
REMARK    3  A    between atoms: C_3  and  C_4
REMARK    4  A    between atoms: C_4  and  C_5
REMARK    5  A    between atoms: C_5  and  C_6
REMARK    6  A    between atoms: C_6  and  C_7
REMARK    7  A    between atoms: C_7  and  C_8
REMARK    8  A    between atoms: C_8  and  C_9
REMARK    9  A    between atoms: C_9  and  C_10
REMARK   10  A    between atoms: C_10  and  C_11
REMARK   11  A    between atoms: C_11  and  C_12
REMARK   12  A    between atoms: C_12  and  O_14
REMARK   13  A    between atoms: O_14  and  C_15
REMARK   14  A    between atoms: C_15  and  C_16
REMARK   15  A    between atoms: C_16  and  N_17
REMARK   16  A    between atoms: C_18  and  C_20
REMARK   17  A    between atoms: C_20  and  N_21
REMARK                            x       y       z     vdW  Elec       q    Type
REMARK                         _______ _______ _______ _____ _____    ______ ____
ROOT
ATOM      1  O   UNL     1      -8.039   0.182 129.859  0.00  0.00    +0.000 OA
ENDROOT
BRANCH   1   2
ATOM      2  C   UNL     1      -7.185  -0.015 128.805  0.00  0.00    +0.000 C 
ATOM      3  O   UNL     1      -6.156   0.636 128.641  0.00  0.00    +0.000 OA
BRANCH   2   4
ATOM      4  C   UNL     1      -7.663  -1.117 127.879  0.00  0.00    +0.000 C 
BRANCH   4   5
ATOM      5  C   UNL     1      -7.612  -2.472 128.591  0.00  0.00    +0.000 C 
BRANCH   5   6
ATOM      6  C   UNL     1      -8.770  -3.384 128.200  0.00  0.00    +0.000 C 
BRANCH   6   7
ATOM      7  C   UNL     1      -8.649  -3.800 126.736  0.00  0.00    +0.000 C 
BRANCH   7   8
ATOM      8  C   UNL     1      -9.635  -3.022 125.879  0.00  0.00    +0.000 C 
BRANCH   8   9
ATOM      9  C   UNL     1      -9.158  -2.971 124.436  0.00  0.00    +0.000 C 
BRANCH   9  10
ATOM     10  C   UNL     1      -7.720  -3.451 124.344  0.00  0.00    +0.000 C 
BRANCH  10  11
ATOM     11  C   UNL     1      -6.802  -2.292 123.991  0.00  0.00    +0.000 C 
BRANCH  11  12
ATOM     12  C   UNL     1      -5.519  -2.810 123.360  0.00  0.00    +0.000 C 
BRANCH  12  14
ATOM     13  C   UNL     1      -3.822  -4.636 123.449  0.00  0.00    +0.000 C 
ATOM     14  C   UNL     1      -4.911  -3.913 124.216  0.00  0.00    +0.000 C 
ENDBRANCH  12  14
ENDBRANCH  11  12
ENDBRANCH  10  11
ENDBRANCH   9  10
ENDBRANCH   8   9
ENDBRANCH   7   8
ENDBRANCH   6   7
ENDBRANCH   5   6
ENDBRANCH   4   5
ENDBRANCH   2   4
ENDBRANCH   1   2
BRANCH   1  15
ATOM     15  C   UNL     1      -7.942   1.503 130.435  0.00  0.00    +0.000 C 
BRANCH  15  16
ATOM     16  C   UNL     1      -9.014   2.438 129.854  0.00  0.00    +0.000 C 
BRANCH  16  17
ATOM     17  N   UNL     1      -9.116   3.745 130.526  0.00  0.00    +0.000 N 
ATOM     18  C   UNL     1     -10.332   4.404 130.602  0.00  0.00    +0.000 C 
ATOM     19  O   UNL     1     -11.365   3.935 130.128  0.00  0.00    +0.000 OA
ATOM     20  H   UNL     1      -8.269   4.135 130.928  0.00  0.00    +0.000 HD
BRANCH  18  21
ATOM     21  C   UNL     1     -10.345   5.753 131.312  0.00  0.00    +0.000 C 
BRANCH  21  22
ATOM     22  N   UNL     1     -10.885   6.822 130.423  0.00  0.00    +0.000 N 
ATOM     23  C   UNL     1     -12.122   7.331 130.645  0.00  0.00    +0.000 A 
ATOM     24  C   UNL     1     -12.698   8.215 129.736  0.00  0.00    +0.000 A 
ATOM     25  C   UNL     1     -11.948   8.681 128.665  0.00  0.00    +0.000 A 
ATOM     26  C   UNL     1     -10.632   8.259 128.531  0.00  0.00    +0.000 A 
ATOM     27  C   UNL     1     -10.133   7.287 129.395  0.00  0.00    +0.000 A 
ENDBRANCH  21  22
ENDBRANCH  18  21
ENDBRANCH  16  17
ENDBRANCH  15  16
ENDBRANCH   1  15
TORSDOF 16
ENDMDL
MODEL 4
REMARK VINA RESULT:      -6.1      5.878      7.132
REMARK  Name = Lapyrium
REMARK  17 active torsions:
REMARK  status: ('A' for Active; 'I' for Inactive)
REMARK    1  A    between atoms: C_1  and  C_2
REMARK    2  A    between atoms: C_2  and  C_3
REMARK    3  A    between atoms: C_3  and  C_4
REMARK    4  A    between atoms: C_4  and  C_5
REMARK    5  A    between atoms: C_5  and  C_6
REMARK    6  A    between atoms: C_6  and  C_7
REMARK    7  A    between atoms: C_7  and  C_8
REMARK    8  A    between atoms: C_8  and  C_9
REMARK    9  A    between atoms: C_9  and  C_10
REMARK   10  A    between atoms: C_10  and  C_11
REMARK   11  A    between atoms: C_11  and  C_12
REMARK   12  A    between atoms: C_12  and  O_14
REMARK   13  A    between atoms: O_14  and  C_15
REMARK   14  A    between atoms: C_15  and  C_16
REMARK   15  A    between atoms: C_16  and  N_17
REMARK   16  A    between atoms: C_18  and  C_20
REMARK   17  A    between atoms: C_20  and  N_21
REMARK                            x       y       z     vdW  Elec       q    Type
REMARK                         _______ _______ _______ _____ _____    ______ ____
ROOT
ATOM      1  O   UNL     1      -8.320   1.928 131.277  0.00  0.00    +0.000 OA
ENDROOT
BRANCH   1   2
ATOM      2  C   UNL     1      -8.607   0.589 131.320  0.00  0.00    +0.000 C 
ATOM      3  O   UNL     1      -9.541   0.120 131.966  0.00  0.00    +0.000 OA
BRANCH   2   4
ATOM      4  C   UNL     1      -7.642  -0.231 130.485  0.00  0.00    +0.000 C 
BRANCH   4   5
ATOM      5  C   UNL     1      -8.319  -1.512 129.990  0.00  0.00    +0.000 C 
BRANCH   5   6
ATOM      6  C   UNL     1      -7.421  -2.738 130.117  0.00  0.00    +0.000 C 
BRANCH   6   7
ATOM      7  C   UNL     1      -7.399  -3.520 128.807  0.00  0.00    +0.000 C 
BRANCH   7   8
ATOM      8  C   UNL     1      -8.816  -3.756 128.305  0.00  0.00    +0.000 C 
BRANCH   8   9
ATOM      9  C   UNL     1      -8.894  -3.512 126.806  0.00  0.00    +0.000 C 
BRANCH   9  10
ATOM     10  C   UNL     1      -8.480  -2.087 126.486  0.00  0.00    +0.000 C 
BRANCH  10  11
ATOM     11  C   UNL     1      -7.811  -2.029 125.122  0.00  0.00    +0.000 C 
BRANCH  11  12
ATOM     12  C   UNL     1      -6.414  -2.623 125.196  0.00  0.00    +0.000 C 
BRANCH  12  14
ATOM     13  C   UNL     1      -4.679  -3.898 123.934  0.00  0.00    +0.000 C 
ATOM     14  C   UNL     1      -6.143  -3.507 123.986  0.00  0.00    +0.000 C 
ENDBRANCH  12  14
ENDBRANCH  11  12
ENDBRANCH  10  11
ENDBRANCH   9  10
ENDBRANCH   8   9
ENDBRANCH   7   8
ENDBRANCH   6   7
ENDBRANCH   5   6
ENDBRANCH   4   5
ENDBRANCH   2   4
ENDBRANCH   1   2
BRANCH   1  15
ATOM     15  C   UNL     1      -9.425   2.736 130.819  0.00  0.00    +0.000 C 
BRANCH  15  16
ATOM     16  C   UNL     1      -9.356   4.152 131.411  0.00  0.00    +0.000 C 
BRANCH  16  17
ATOM     17  N   UNL     1     -10.651   4.851 131.480  0.00  0.00    +0.000 N 
ATOM     18  C   UNL     1     -10.704   6.236 131.473  0.00  0.00    +0.000 C 
ATOM     19  O   UNL     1      -9.695   6.933 131.404  0.00  0.00    +0.000 OA
ATOM     20  H   UNL     1     -11.491   4.283 131.528  0.00  0.00    +0.000 HD
BRANCH  18  21
ATOM     21  C   UNL     1     -12.086   6.876 131.551  0.00  0.00    +0.000 C 
BRANCH  21  22
ATOM     22  N   UNL     1     -12.525   7.370 130.214  0.00  0.00    +0.000 N 
ATOM     23  C   UNL     1     -12.600   8.703 129.974  0.00  0.00    +0.000 A 
ATOM     24  C   UNL     1     -13.152   9.178 128.787  0.00  0.00    +0.000 A 
ATOM     25  C   UNL     1     -13.505   8.281 127.789  0.00  0.00    +0.000 A 
ATOM     26  C   UNL     1     -13.289   6.925 127.995  0.00  0.00    +0.000 A 
ATOM     27  C   UNL     1     -12.843   6.485 129.239  0.00  0.00    +0.000 A 
ENDBRANCH  21  22
ENDBRANCH  18  21
ENDBRANCH  16  17
ENDBRANCH  15  16
ENDBRANCH   1  15
TORSDOF 16
ENDMDL
MODEL 5
REMARK VINA RESULT:      -6.1      5.419      6.576
REMARK  Name = Lapyrium
REMARK  17 active torsions:
REMARK  status: ('A' for Active; 'I' for Inactive)
REMARK    1  A    between atoms: C_1  and  C_2
REMARK    2  A    between atoms: C_2  and  C_3
REMARK    3  A    between atoms: C_3  and  C_4
REMARK    4  A    between atoms: C_4  and  C_5
REMARK    5  A    between atoms: C_5  and  C_6
REMARK    6  A    between atoms: C_6  and  C_7
REMARK    7  A    between atoms: C_7  and  C_8
REMARK    8  A    between atoms: C_8  and  C_9
REMARK    9  A    between atoms: C_9  and  C_10
REMARK   10  A    between atoms: C_10  and  C_11
REMARK   11  A    between atoms: C_11  and  C_12
REMARK   12  A    between atoms: C_12  and  O_14
REMARK   13  A    between atoms: O_14  and  C_15
REMARK   14  A    between atoms: C_15  and  C_16
REMARK   15  A    between atoms: C_16  and  N_17
REMARK   16  A    between atoms: C_18  and  C_20
REMARK   17  A    between atoms: C_20  and  N_21
REMARK                            x       y       z     vdW  Elec       q    Type
REMARK                         _______ _______ _______ _____ _____    ______ ____
ROOT
ATOM      1  O   UNL     1      -8.845   2.202 129.837  0.00  0.00    +0.000 OA
ENDROOT
BRANCH   1   2
ATOM      2  C   UNL     1      -7.783   1.376 130.089  0.00  0.00    +0.000 C 
ATOM      3  O   UNL     1      -6.877   1.661 130.870  0.00  0.00    +0.000 OA
BRANCH   2   4
ATOM      4  C   UNL     1      -7.860   0.085 129.297  0.00  0.00    +0.000 C 
BRANCH   4   5
ATOM      5  C   UNL     1      -8.016  -1.113 130.240  0.00  0.00    +0.000 C 
BRANCH   5   6
ATOM      6  C   UNL     1      -7.627  -2.432 129.581  0.00  0.00    +0.000 C 
BRANCH   6   7
ATOM      7  C   UNL     1      -7.774  -2.333 128.065  0.00  0.00    +0.000 C 
BRANCH   7   8
ATOM      8  C   UNL     1      -8.701  -3.422 127.548  0.00  0.00    +0.000 C 
BRANCH   8   9
ATOM      9  C   UNL     1      -9.146  -3.109 126.129  0.00  0.00    +0.000 C 
BRANCH   9  10
ATOM     10  C   UNL     1      -8.322  -3.908 125.134  0.00  0.00    +0.000 C 
BRANCH  10  11
ATOM     11  C   UNL     1      -7.969  -3.046 123.932  0.00  0.00    +0.000 C 
BRANCH  11  12
ATOM     12  C   UNL     1      -6.497  -2.671 123.970  0.00  0.00    +0.000 C 
BRANCH  12  14
ATOM     13  C   UNL     1      -5.446  -1.009 125.506  0.00  0.00    +0.000 C 
ATOM     14  C   UNL     1      -6.330  -1.191 124.288  0.00  0.00    +0.000 C 
ENDBRANCH  12  14
ENDBRANCH  11  12
ENDBRANCH  10  11
ENDBRANCH   9  10
ENDBRANCH   8   9
ENDBRANCH   7   8
ENDBRANCH   6   7
ENDBRANCH   5   6
ENDBRANCH   4   5
ENDBRANCH   2   4
ENDBRANCH   1   2
BRANCH   1  15
ATOM     15  C   UNL     1      -8.680   3.530 130.381  0.00  0.00    +0.000 C 
BRANCH  15  16
ATOM     16  C   UNL     1      -9.713   3.806 131.484  0.00  0.00    +0.000 C 
BRANCH  16  17
ATOM     17  N   UNL     1     -10.805   4.712 131.088  0.00  0.00    +0.000 N 
ATOM     18  C   UNL     1     -10.928   5.963 131.671  0.00  0.00    +0.000 C 
ATOM     19  O   UNL     1     -10.143   6.372 132.524  0.00  0.00    +0.000 OA
ATOM     20  H   UNL     1     -11.453   4.386 130.378  0.00  0.00    +0.000 HD
BRANCH  18  21
ATOM     21  C   UNL     1     -12.090   6.833 131.204  0.00  0.00    +0.000 C 
BRANCH  21  22
ATOM     22  N   UNL     1     -11.931   7.216 129.772  0.00  0.00    +0.000 N 
ATOM     23  C   UNL     1     -12.881   6.872 128.867  0.00  0.00    +0.000 A 
ATOM     24  C   UNL     1     -12.674   7.087 127.506  0.00  0.00    +0.000 A 
ATOM     25  C   UNL     1     -11.547   7.779 127.086  0.00  0.00    +0.000 A 
ATOM     26  C   UNL     1     -10.653   8.250 128.038  0.00  0.00    +0.000 A 
ATOM     27  C   UNL     1     -10.838   7.913 129.377  0.00  0.00    +0.000 A 
ENDBRANCH  21  22
ENDBRANCH  18  21
ENDBRANCH  16  17
ENDBRANCH  15  16
ENDBRANCH   1  15
TORSDOF 16
ENDMDL
MODEL 6
REMARK VINA RESULT:      -6.0      5.332      6.736
REMARK  Name = Lapyrium
REMARK  17 active torsions:
REMARK  status: ('A' for Active; 'I' for Inactive)
REMARK    1  A    between atoms: C_1  and  C_2
REMARK    2  A    between atoms: C_2  and  C_3
REMARK    3  A    between atoms: C_3  and  C_4
REMARK    4  A    between atoms: C_4  and  C_5
REMARK    5  A    between atoms: C_5  and  C_6
REMARK    6  A    between atoms: C_6  and  C_7
REMARK    7  A    between atoms: C_7  and  C_8
REMARK    8  A    between atoms: C_8  and  C_9
REMARK    9  A    between atoms: C_9  and  C_10
REMARK   10  A    between atoms: C_10  and  C_11
REMARK   11  A    between atoms: C_11  and  C_12
REMARK   12  A    between atoms: C_12  and  O_14
REMARK   13  A    between atoms: O_14  and  C_15
REMARK   14  A    between atoms: C_15  and  C_16
REMARK   15  A    between atoms: C_16  and  N_17
REMARK   16  A    between atoms: C_18  and  C_20
REMARK   17  A    between atoms: C_20  and  N_21
REMARK                            x       y       z     vdW  Elec       q    Type
REMARK                         _______ _______ _______ _____ _____    ______ ____
ROOT
ATOM      1  O   UNL     1      -9.131   3.017 129.130  0.00  0.00    +0.000 OA
ENDROOT
BRANCH   1   2
ATOM      2  C   UNL     1      -8.378   1.908 128.847  0.00  0.00    +0.000 C 
ATOM      3  O   UNL     1      -7.506   1.476 129.598  0.00  0.00    +0.000 OA
BRANCH   2   4
ATOM      4  C   UNL     1      -8.747   1.290 127.513  0.00  0.00    +0.000 C 
BRANCH   4   5
ATOM      5  C   UNL     1      -7.763   1.735 126.427  0.00  0.00    +0.000 C 
BRANCH   5   6
ATOM      6  C   UNL     1      -6.801   0.625 126.017  0.00  0.00    +0.000 C 
BRANCH   6   7
ATOM      7  C   UNL     1      -6.578   0.646 124.507  0.00  0.00    +0.000 C 
BRANCH   7   8
ATOM      8  C   UNL     1      -7.846   0.233 123.776  0.00  0.00    +0.000 C 
BRANCH   8   9
ATOM      9  C   UNL     1      -7.673  -1.142 123.152  0.00  0.00    +0.000 C 
BRANCH   9  10
ATOM     10  C   UNL     1      -9.025  -1.707 122.747  0.00  0.00    +0.000 C 
BRANCH  10  11
ATOM     11  C   UNL     1      -9.237  -3.069 123.388  0.00  0.00    +0.000 C 
BRANCH  11  12
ATOM     12  C   UNL     1      -8.042  -3.435 124.253  0.00  0.00    +0.000 C 
BRANCH  12  14
ATOM     13  C   UNL     1      -8.904  -2.414 126.361  0.00  0.00    +0.000 C 
ATOM     14  C   UNL     1      -8.482  -3.704 125.686  0.00  0.00    +0.000 C 
ENDBRANCH  12  14
ENDBRANCH  11  12
ENDBRANCH  10  11
ENDBRANCH   9  10
ENDBRANCH   8   9
ENDBRANCH   7   8
ENDBRANCH   6   7
ENDBRANCH   5   6
ENDBRANCH   4   5
ENDBRANCH   2   4
ENDBRANCH   1   2
BRANCH   1  15
ATOM     15  C   UNL     1      -8.686   3.727 130.306  0.00  0.00    +0.000 C 
BRANCH  15  16
ATOM     16  C   UNL     1      -9.816   3.840 131.342  0.00  0.00    +0.000 C 
BRANCH  16  17
ATOM     17  N   UNL     1     -10.890   4.780 130.976  0.00  0.00    +0.000 N 
ATOM     18  C   UNL     1     -10.979   6.019 131.590  0.00  0.00    +0.000 C 
ATOM     19  O   UNL     1     -10.178   6.389 132.446  0.00  0.00    +0.000 OA
ATOM     20  H   UNL     1     -11.550   4.487 130.264  0.00  0.00    +0.000 HD
BRANCH  18  21
ATOM     21  C   UNL     1     -12.124   6.926 131.154  0.00  0.00    +0.000 C 
BRANCH  21  22
ATOM     22  N   UNL     1     -12.008   7.280 129.710  0.00  0.00    +0.000 N 
ATOM     23  C   UNL     1     -12.994   6.935 128.845  0.00  0.00    +0.000 A 
ATOM     24  C   UNL     1     -12.830   7.121 127.474  0.00  0.00    +0.000 A 
ATOM     25  C   UNL     1     -11.706   7.785 127.003  0.00  0.00    +0.000 A 
ATOM     26  C   UNL     1     -10.773   8.258 127.915  0.00  0.00    +0.000 A 
ATOM     27  C   UNL     1     -10.917   7.950 129.265  0.00  0.00    +0.000 A 
ENDBRANCH  21  22
ENDBRANCH  18  21
ENDBRANCH  16  17
ENDBRANCH  15  16
ENDBRANCH   1  15
TORSDOF 16
ENDMDL
MODEL 7
REMARK VINA RESULT:      -6.0      2.820      4.686
REMARK  Name = Lapyrium
REMARK  17 active torsions:
REMARK  status: ('A' for Active; 'I' for Inactive)
REMARK    1  A    between atoms: C_1  and  C_2
REMARK    2  A    between atoms: C_2  and  C_3
REMARK    3  A    between atoms: C_3  and  C_4
REMARK    4  A    between atoms: C_4  and  C_5
REMARK    5  A    between atoms: C_5  and  C_6
REMARK    6  A    between atoms: C_6  and  C_7
REMARK    7  A    between atoms: C_7  and  C_8
REMARK    8  A    between atoms: C_8  and  C_9
REMARK    9  A    between atoms: C_9  and  C_10
REMARK   10  A    between atoms: C_10  and  C_11
REMARK   11  A    between atoms: C_11  and  C_12
REMARK   12  A    between atoms: C_12  and  O_14
REMARK   13  A    between atoms: O_14  and  C_15
REMARK   14  A    between atoms: C_15  and  C_16
REMARK   15  A    between atoms: C_16  and  N_17
REMARK   16  A    between atoms: C_18  and  C_20
REMARK   17  A    between atoms: C_20  and  N_21
REMARK                            x       y       z     vdW  Elec       q    Type
REMARK                         _______ _______ _______ _____ _____    ______ ____
ROOT
ATOM      1  O   UNL     1      -8.726   0.406 123.648  0.00  0.00    +0.000 OA
ENDROOT
BRANCH   1   2
ATOM      2  C   UNL     1      -9.397  -0.515 122.889  0.00  0.00    +0.000 C 
ATOM      3  O   UNL     1     -10.485  -0.290 122.363  0.00  0.00    +0.000 OA
BRANCH   2   4
ATOM      4  C   UNL     1      -8.645  -1.828 122.783  0.00  0.00    +0.000 C 
BRANCH   4   5
ATOM      5  C   UNL     1      -9.465  -2.965 123.400  0.00  0.00    +0.000 C 
BRANCH   5   6
ATOM      6  C   UNL     1      -8.794  -3.573 124.627  0.00  0.00    +0.000 C 
BRANCH   6   7
ATOM      7  C   UNL     1      -9.284  -2.883 125.897  0.00  0.00    +0.000 C 
BRANCH   7   8
ATOM      8  C   UNL     1      -8.921  -3.706 127.123  0.00  0.00    +0.000 C 
BRANCH   8   9
ATOM      9  C   UNL     1      -8.101  -2.875 128.096  0.00  0.00    +0.000 C 
BRANCH   9  10
ATOM     10  C   UNL     1      -7.848  -1.493 127.519  0.00  0.00    +0.000 C 
BRANCH  10  11
ATOM     11  C   UNL     1      -6.454  -1.015 127.892  0.00  0.00    +0.000 C 
BRANCH  11  12
ATOM     12  C   UNL     1      -5.453  -1.433 126.826  0.00  0.00    +0.000 C 
BRANCH  12  14
ATOM     13  C   UNL     1      -5.396  -2.097 124.421  0.00  0.00    +0.000 C 
ATOM     14  C   UNL     1      -6.004  -1.148 125.435  0.00  0.00    +0.000 C 
ENDBRANCH  12  14
ENDBRANCH  11  12
ENDBRANCH  10  11
ENDBRANCH   9  10
ENDBRANCH   8   9
ENDBRANCH   7   8
ENDBRANCH   6   7
ENDBRANCH   5   6
ENDBRANCH   4   5
ENDBRANCH   2   4
ENDBRANCH   1   2
BRANCH   1  15
ATOM     15  C   UNL     1      -9.582   1.136 124.555  0.00  0.00    +0.000 C 
BRANCH  15  16
ATOM     16  C   UNL     1      -8.802   1.606 125.792  0.00  0.00    +0.000 C 
BRANCH  16  17
ATOM     17  N   UNL     1      -7.615   2.425 125.493  0.00  0.00    +0.000 N 
ATOM     18  C   UNL     1      -7.709   3.806 125.438  0.00  0.00    +0.000 C 
ATOM     19  O   UNL     1      -8.765   4.402 125.638  0.00  0.00    +0.000 OA
ATOM     20  H   UNL     1      -6.736   1.942 125.335  0.00  0.00    +0.000 HD
BRANCH  18  21
ATOM     21  C   UNL     1      -6.432   4.575 125.118  0.00  0.00    +0.000 C 
BRANCH  21  22
ATOM     22  N   UNL     1      -5.354   4.256 126.098  0.00  0.00    +0.000 N 
ATOM     23  C   UNL     1      -4.173   3.748 125.668  0.00  0.00    +0.000 A 
ATOM     24  C   UNL     1      -3.219   3.302 126.580  0.00  0.00    +0.000 A 
ATOM     25  C   UNL     1      -3.424   3.504 127.938  0.00  0.00    +0.000 A 
ATOM     26  C   UNL     1      -4.577   4.156 128.355  0.00  0.00    +0.000 A 
ATOM     27  C   UNL     1      -5.556   4.480 127.420  0.00  0.00    +0.000 A 
ENDBRANCH  21  22
ENDBRANCH  18  21
ENDBRANCH  16  17
ENDBRANCH  15  16
ENDBRANCH   1  15
TORSDOF 16
ENDMDL
MODEL 8
REMARK VINA RESULT:      -6.0      2.407      4.488
REMARK  Name = Lapyrium
REMARK  17 active torsions:
REMARK  status: ('A' for Active; 'I' for Inactive)
REMARK    1  A    between atoms: C_1  and  C_2
REMARK    2  A    between atoms: C_2  and  C_3
REMARK    3  A    between atoms: C_3  and  C_4
REMARK    4  A    between atoms: C_4  and  C_5
REMARK    5  A    between atoms: C_5  and  C_6
REMARK    6  A    between atoms: C_6  and  C_7
REMARK    7  A    between atoms: C_7  and  C_8
REMARK    8  A    between atoms: C_8  and  C_9
REMARK    9  A    between atoms: C_9  and  C_10
REMARK   10  A    between atoms: C_10  and  C_11
REMARK   11  A    between atoms: C_11  and  C_12
REMARK   12  A    between atoms: C_12  and  O_14
REMARK   13  A    between atoms: O_14  and  C_15
REMARK   14  A    between atoms: C_15  and  C_16
REMARK   15  A    between atoms: C_16  and  N_17
REMARK   16  A    between atoms: C_18  and  C_20
REMARK   17  A    between atoms: C_20  and  N_21
REMARK                            x       y       z     vdW  Elec       q    Type
REMARK                         _______ _______ _______ _____ _____    ______ ____
ROOT
ATOM      1  O   UNL     1      -8.292  -3.550 124.410  0.00  0.00    +0.000 OA
ENDROOT
BRANCH   1   2
ATOM      2  C   UNL     1      -7.820  -2.820 125.468  0.00  0.00    +0.000 C 
ATOM      3  O   UNL     1      -6.687  -2.345 125.507  0.00  0.00    +0.000 OA
BRANCH   2   4
ATOM      4  C   UNL     1      -8.851  -2.676 126.571  0.00  0.00    +0.000 C 
BRANCH   4   5
ATOM      5  C   UNL     1      -8.830  -3.905 127.486  0.00  0.00    +0.000 C 
BRANCH   5   6
ATOM      6  C   UNL     1      -8.170  -3.622 128.832  0.00  0.00    +0.000 C 
BRANCH   6   7
ATOM      7  C   UNL     1      -8.362  -2.159 129.221  0.00  0.00    +0.000 C 
BRANCH   7   8
ATOM      8  C   UNL     1      -7.103  -1.614 129.879  0.00  0.00    +0.000 C 
BRANCH   8   9
ATOM      9  C   UNL     1      -6.142  -1.084 128.828  0.00  0.00    +0.000 C 
BRANCH   9  10
ATOM     10  C   UNL     1      -4.723  -1.520 129.149  0.00  0.00    +0.000 C 
BRANCH  10  11
ATOM     11  C   UNL     1      -4.507  -2.963 128.721  0.00  0.00    +0.000 C 
BRANCH  11  12
ATOM     12  C   UNL     1      -3.597  -3.673 129.710  0.00  0.00    +0.000 C 
BRANCH  12  14
ATOM     13  C   UNL     1      -5.444  -4.939 130.811  0.00  0.00    +0.000 C 
ATOM     14  C   UNL     1      -4.329  -3.933 131.019  0.00  0.00    +0.000 C 
ENDBRANCH  12  14
ENDBRANCH  11  12
ENDBRANCH  10  11
ENDBRANCH   9  10
ENDBRANCH   8   9
ENDBRANCH   7   8
ENDBRANCH   6   7
ENDBRANCH   5   6
ENDBRANCH   4   5
ENDBRANCH   2   4
ENDBRANCH   1   2
BRANCH   1  15
ATOM     15  C   UNL     1      -9.354  -2.889 123.687  0.00  0.00    +0.000 C 
BRANCH  15  16
ATOM     16  C   UNL     1      -8.795  -1.792 122.768  0.00  0.00    +0.000 C 
BRANCH  16  17
ATOM     17  N   UNL     1      -8.710  -0.458 123.387  0.00  0.00    +0.000 N 
ATOM     18  C   UNL     1      -9.683   0.496 123.139  0.00  0.00    +0.000 C 
ATOM     19  O   UNL     1     -10.649   0.278 122.411  0.00  0.00    +0.000 OA
ATOM     20  H   UNL     1      -7.921  -0.272 123.998  0.00  0.00    +0.000 HD
BRANCH  18  21
ATOM     21  C   UNL     1      -9.514   1.850 123.819  0.00  0.00    +0.000 C 
BRANCH  21  22
ATOM     22  N   UNL     1      -8.240   2.504 123.402  0.00  0.00    +0.000 N 
ATOM     23  C   UNL     1      -7.238   2.675 124.299  0.00  0.00    +0.000 A 
ATOM     24  C   UNL     1      -6.108   3.419 123.966  0.00  0.00    +0.000 A 
ATOM     25  C   UNL     1      -5.948   3.874 122.665  0.00  0.00    +0.000 A 
ATOM     26  C   UNL     1      -6.918   3.569 121.721  0.00  0.00    +0.000 A 
ATOM     27  C   UNL     1      -8.085   2.924 122.122  0.00  0.00    +0.000 A 
ENDBRANCH  21  22
ENDBRANCH  18  21
ENDBRANCH  16  17
ENDBRANCH  15  16
ENDBRANCH   1  15
TORSDOF 16
ENDMDL
MODEL 9
REMARK VINA RESULT:      -5.9      5.388      6.846
REMARK  Name = Lapyrium
REMARK  17 active torsions:
REMARK  status: ('A' for Active; 'I' for Inactive)
REMARK    1  A    between atoms: C_1  and  C_2
REMARK    2  A    between atoms: C_2  and  C_3
REMARK    3  A    between atoms: C_3  and  C_4
REMARK    4  A    between atoms: C_4  and  C_5
REMARK    5  A    between atoms: C_5  and  C_6
REMARK    6  A    between atoms: C_6  and  C_7
REMARK    7  A    between atoms: C_7  and  C_8
REMARK    8  A    between atoms: C_8  and  C_9
REMARK    9  A    between atoms: C_9  and  C_10
REMARK   10  A    between atoms: C_10  and  C_11
REMARK   11  A    between atoms: C_11  and  C_12
REMARK   12  A    between atoms: C_12  and  O_14
REMARK   13  A    between atoms: O_14  and  C_15
REMARK   14  A    between atoms: C_15  and  C_16
REMARK   15  A    between atoms: C_16  and  N_17
REMARK   16  A    between atoms: C_18  and  C_20
REMARK   17  A    between atoms: C_20  and  N_21
REMARK                            x       y       z     vdW  Elec       q    Type
REMARK                         _______ _______ _______ _____ _____    ______ ____
ROOT
ATOM      1  O   UNL     1      -7.990   3.502 129.809  0.00  0.00    +0.000 OA
ENDROOT
BRANCH   1   2
ATOM      2  C   UNL     1      -8.257   4.027 128.572  0.00  0.00    +0.000 C 
ATOM      3  O   UNL     1      -8.771   5.131 128.405  0.00  0.00    +0.000 OA
BRANCH   2   4
ATOM      4  C   UNL     1      -7.847   3.091 127.452  0.00  0.00    +0.000 C 
BRANCH   4   5
ATOM      5  C   UNL     1      -6.612   2.280 127.858  0.00  0.00    +0.000 C 
BRANCH   5   6
ATOM      6  C   UNL     1      -6.537   0.931 127.151  0.00  0.00    +0.000 C 
BRANCH   6   7
ATOM      7  C   UNL     1      -7.882   0.214 127.231  0.00  0.00    +0.000 C 
BRANCH   7   8
ATOM      8  C   UNL     1      -7.796  -1.154 126.571  0.00  0.00    +0.000 C 
BRANCH   8   9
ATOM      9  C   UNL     1      -9.107  -1.493 125.880  0.00  0.00    +0.000 C 
BRANCH   9  10
ATOM     10  C   UNL     1      -9.120  -2.956 125.472  0.00  0.00    +0.000 C 
BRANCH  10  11
ATOM     11  C   UNL     1      -7.885  -3.281 124.646  0.00  0.00    +0.000 C 
BRANCH  11  12
ATOM     12  C   UNL     1      -7.999  -2.660 123.264  0.00  0.00    +0.000 C 
BRANCH  12  14
ATOM     13  C   UNL     1      -5.520  -2.634 123.543  0.00  0.00    +0.000 C 
ATOM     14  C   UNL     1      -6.704  -1.952 122.887  0.00  0.00    +0.000 C 
ENDBRANCH  12  14
ENDBRANCH  11  12
ENDBRANCH  10  11
ENDBRANCH   9  10
ENDBRANCH   8   9
ENDBRANCH   7   8
ENDBRANCH   6   7
ENDBRANCH   5   6
ENDBRANCH   4   5
ENDBRANCH   2   4
ENDBRANCH   1   2
BRANCH   1  15
ATOM     15  C   UNL     1      -9.156   2.955 130.463  0.00  0.00    +0.000 C 
BRANCH  15  16
ATOM     16  C   UNL     1      -9.705   3.927 131.519  0.00  0.00    +0.000 C 
BRANCH  16  17
ATOM     17  N   UNL     1     -10.807   4.784 131.049  0.00  0.00    +0.000 N 
ATOM     18  C   UNL     1     -11.029   6.024 131.626  0.00  0.00    +0.000 C 
ATOM     19  O   UNL     1     -10.326   6.462 132.534  0.00  0.00    +0.000 OA
ATOM     20  H   UNL     1     -11.386   4.433 130.293  0.00  0.00    +0.000 HD
BRANCH  18  21
ATOM     21  C   UNL     1     -12.194   6.842 131.080  0.00  0.00    +0.000 C 
BRANCH  21  22
ATOM     22  N   UNL     1     -11.960   7.227 129.658  0.00  0.00    +0.000 N 
ATOM     23  C   UNL     1     -12.851   6.866 128.702  0.00  0.00    +0.000 A 
ATOM     24  C   UNL     1     -12.570   7.082 127.354  0.00  0.00    +0.000 A 
ATOM     25  C   UNL     1     -11.432   7.792 126.998  0.00  0.00    +0.000 A 
ATOM     26  C   UNL     1     -10.602   8.279 127.999  0.00  0.00    +0.000 A 
ATOM     27  C   UNL     1     -10.857   7.941 129.325  0.00  0.00    +0.000 A 
ENDBRANCH  21  22
ENDBRANCH  18  21
ENDBRANCH  16  17
ENDBRANCH  15  16
ENDBRANCH   1  15
TORSDOF 16
ENDMDL
