MODEL 1
REMARK VINA RESULT:      -8.8      0.000      0.000
REMARK  Name = Laropiprant
REMARK  7 active torsions:
REMARK  status: ('A' for Active; 'I' for Inactive)
REMARK    1  A    between atoms: C_1  and  S_2
REMARK    2  A    between atoms: S_2  and  C_5
REMARK    3  A    between atoms: N_7  and  C_8
REMARK    4  A    between atoms: C_8  and  C_9
REMARK    5  A    between atoms: C_20  and  C_21
REMARK    6  A    between atoms: C_21  and  C_22
REMARK    7  A    between atoms: C_22  and  O_23
REMARK                            x       y       z     vdW  Elec       q    Type
REMARK                         _______ _______ _______ _____ _____    ______ ____
ROOT
ATOM      1  C   UNL     1      -7.327  -1.036 125.516  0.00  0.00    +0.000 A 
ATOM      2  C   UNL     1      -6.728   0.271 125.389  0.00  0.00    +0.000 A 
ATOM      3  N   UNL     1      -6.861   1.482 124.581  0.00  0.00    +0.000 N 
ATOM      4  C   UNL     1      -5.896   2.403 125.177  0.00  0.00    +0.000 A 
ATOM      5  C   UNL     1      -5.201   1.745 126.164  0.00  0.00    +0.000 A 
ATOM      6  C   UNL     1      -4.148   2.522 126.867  0.00  0.00    +0.000 C 
ATOM      7  C   UNL     1      -4.492   3.963 126.473  0.00  0.00    +0.000 C 
ATOM      8  C   UNL     1      -5.303   3.834 125.107  0.00  0.00    +0.000 C 
ATOM      9  C   UNL     1      -5.661   0.454 126.308  0.00  0.00    +0.000 A 
ATOM     10  C   UNL     1      -5.242  -0.570 127.194  0.00  0.00    +0.000 A 
ATOM     11  C   UNL     1      -5.822  -1.815 127.178  0.00  0.00    +0.000 A 
ATOM     12  F   UNL     1      -5.423  -2.797 127.989  0.00  0.00    +0.000 F 
ATOM     13  C   UNL     1      -6.845  -2.054 126.337  0.00  0.00    +0.000 A 
ENDROOT
BRANCH   1  15
ATOM     14  C   UNL     1      -7.561  -1.898 122.892  0.00  0.00    +0.000 C 
ATOM     15  S   UNL     1      -8.641  -1.694 124.603  0.00  0.00    +0.000 S 
ATOM     16  O   UNL     1      -9.688  -0.752 124.333  0.00  0.00    +0.000 OA
ATOM     17  O   UNL     1      -8.953  -2.698 125.614  0.00  0.00    +0.000 OA
ENDBRANCH   1  15
BRANCH   3  18
ATOM     18  C   UNL     1      -7.790   1.828 123.324  0.00  0.00    +0.000 C 
BRANCH  18  19
ATOM     19  C   UNL     1      -7.601   2.936 122.220  0.00  0.00    +0.000 A 
ATOM     20  C   UNL     1      -8.700   3.459 121.552  0.00  0.00    +0.000 A 
ATOM     21  C   UNL     1      -8.583   4.004 120.202  0.00  0.00    +0.000 A 
ATOM     22  C   UNL     1      -7.365   4.215 119.600  0.00  0.00    +0.000 A 
ATOM     23 CL   UNL     1      -7.270   4.323 117.871  0.00  0.00    +0.000 Cl
ATOM     24  C   UNL     1      -6.261   4.062 120.407  0.00  0.00    +0.000 A 
ATOM     25  C   UNL     1      -6.372   3.422 121.700  0.00  0.00    +0.000 A 
ENDBRANCH  18  19
ENDBRANCH   3  18
BRANCH   8  26
ATOM     26  C   UNL     1      -6.273   4.982 125.001  0.00  0.00    +0.000 C 
BRANCH  26  27
ATOM     27  C   UNL     1      -7.514   4.769 125.816  0.00  0.00    +0.000 C 
ATOM     28  O   UNL     1      -7.506   4.786 127.037  0.00  0.00    +0.000 OA
BRANCH  27  29
ATOM     29  O   UNL     1      -8.660   4.570 125.135  0.00  0.00    +0.000 OA
ATOM     30  H   UNL     1      -8.740   4.974 124.248  0.00  0.00    +0.000 HD
ENDBRANCH  27  29
ENDBRANCH  26  27
ENDBRANCH   8  26
TORSDOF 6
ENDMDL
MODEL 2
REMARK VINA RESULT:      -8.0      3.678      5.955
REMARK  Name = Laropiprant
REMARK  7 active torsions:
REMARK  status: ('A' for Active; 'I' for Inactive)
REMARK    1  A    between atoms: C_1  and  S_2
REMARK    2  A    between atoms: S_2  and  C_5
REMARK    3  A    between atoms: N_7  and  C_8
REMARK    4  A    between atoms: C_8  and  C_9
REMARK    5  A    between atoms: C_20  and  C_21
REMARK    6  A    between atoms: C_21  and  C_22
REMARK    7  A    between atoms: C_22  and  O_23
REMARK                            x       y       z     vdW  Elec       q    Type
REMARK                         _______ _______ _______ _____ _____    ______ ____
ROOT
ATOM      1  C   UNL     1      -9.028  -0.669 124.404  0.00  0.00    +0.000 A 
ATOM      2  C   UNL     1      -8.526  -0.769 125.753  0.00  0.00    +0.000 A 
ATOM      3  N   UNL     1      -7.992   0.091 126.809  0.00  0.00    +0.000 N 
ATOM      4  C   UNL     1      -7.799  -0.822 127.934  0.00  0.00    +0.000 A 
ATOM      5  C   UNL     1      -8.093  -2.102 127.526  0.00  0.00    +0.000 A 
ATOM      6  C   UNL     1      -7.923  -3.177 128.536  0.00  0.00    +0.000 C 
ATOM      7  C   UNL     1      -7.838  -2.381 129.844  0.00  0.00    +0.000 C 
ATOM      8  C   UNL     1      -7.342  -0.930 129.411  0.00  0.00    +0.000 C 
ATOM      9  C   UNL     1      -8.515  -2.112 126.214  0.00  0.00    +0.000 A 
ATOM     10  C   UNL     1      -8.919  -3.196 125.394  0.00  0.00    +0.000 A 
ATOM     11  C   UNL     1      -9.300  -3.005 124.089  0.00  0.00    +0.000 A 
ATOM     12  F   UNL     1      -9.659  -4.017 123.297  0.00  0.00    +0.000 F 
ATOM     13  C   UNL     1      -9.340  -1.756 123.590  0.00  0.00    +0.000 A 
ENDROOT
BRANCH   1  15
ATOM     14  C   UNL     1      -7.210   1.078 123.251  0.00  0.00    +0.000 C 
ATOM     15  S   UNL     1      -9.209   0.759 123.443  0.00  0.00    +0.000 S 
ATOM     16  O   UNL     1      -9.749   1.876 124.161  0.00  0.00    +0.000 OA
ATOM     17  O   UNL     1     -10.128   0.116 122.509  0.00  0.00    +0.000 OA
ENDBRANCH   1  15
BRANCH   3  18
ATOM     18  C   UNL     1      -7.651   1.655 126.840  0.00  0.00    +0.000 C 
BRANCH  18  19
ATOM     19  C   UNL     1      -6.276   2.370 127.120  0.00  0.00    +0.000 A 
ATOM     20  C   UNL     1      -5.777   3.311 126.229  0.00  0.00    +0.000 A 
ATOM     21  C   UNL     1      -4.343   3.560 126.108  0.00  0.00    +0.000 A 
ATOM     22  C   UNL     1      -3.430   3.036 126.992  0.00  0.00    +0.000 A 
ATOM     23 CL   UNL     1      -1.768   2.884 126.521  0.00  0.00    +0.000 Cl
ATOM     24  C   UNL     1      -3.957   2.421 128.105  0.00  0.00    +0.000 A 
ATOM     25  C   UNL     1      -5.362   2.081 128.168  0.00  0.00    +0.000 A 
ENDBRANCH  18  19
ENDBRANCH   3  18
BRANCH   8  26
ATOM     26  C   UNL     1      -7.888   0.086 130.381  0.00  0.00    +0.000 C 
BRANCH  26  27
ATOM     27  C   UNL     1      -7.100   0.152 131.656  0.00  0.00    +0.000 C 
ATOM     28  O   UNL     1      -5.880   0.195 131.669  0.00  0.00    +0.000 OA
BRANCH  27  29
ATOM     29  O   UNL     1      -7.807   0.179 132.804  0.00  0.00    +0.000 OA
ATOM     30  H   UNL     1      -8.727  -0.148 132.781  0.00  0.00    +0.000 HD
ENDBRANCH  27  29
ENDBRANCH  26  27
ENDBRANCH   8  26
TORSDOF 6
ENDMDL
MODEL 3
REMARK VINA RESULT:      -7.8      4.338      8.010
REMARK  Name = Laropiprant
REMARK  7 active torsions:
REMARK  status: ('A' for Active; 'I' for Inactive)
REMARK    1  A    between atoms: C_1  and  S_2
REMARK    2  A    between atoms: S_2  and  C_5
REMARK    3  A    between atoms: N_7  and  C_8
REMARK    4  A    between atoms: C_8  and  C_9
REMARK    5  A    between atoms: C_20  and  C_21
REMARK    6  A    between atoms: C_21  and  C_22
REMARK    7  A    between atoms: C_22  and  O_23
REMARK                            x       y       z     vdW  Elec       q    Type
REMARK                         _______ _______ _______ _____ _____    ______ ____
ROOT
ATOM      1  C   UNL     1      -7.389   2.076 126.759  0.00  0.00    +0.000 A 
ATOM      2  C   UNL     1      -7.221   0.790 126.124  0.00  0.00    +0.000 A 
ATOM      3  N   UNL     1      -7.244  -0.632 126.466  0.00  0.00    +0.000 N 
ATOM      4  C   UNL     1      -7.058  -1.299 125.180  0.00  0.00    +0.000 A 
ATOM      5  C   UNL     1      -6.841  -0.349 124.210  0.00  0.00    +0.000 A 
ATOM      6  C   UNL     1      -6.599  -0.848 122.832  0.00  0.00    +0.000 C 
ATOM      7  C   UNL     1      -7.078  -2.301 122.927  0.00  0.00    +0.000 C 
ATOM      8  C   UNL     1      -6.959  -2.675 124.471  0.00  0.00    +0.000 C 
ATOM      9  C   UNL     1      -6.912   0.919 124.744  0.00  0.00    +0.000 A 
ATOM     10  C   UNL     1      -6.756   2.182 124.119  0.00  0.00    +0.000 A 
ATOM     11  C   UNL     1      -6.852   3.353 124.832  0.00  0.00    +0.000 A 
ATOM     12  F   UNL     1      -6.683   4.548 124.263  0.00  0.00    +0.000 F 
ATOM     13  C   UNL     1      -7.150   3.303 126.143  0.00  0.00    +0.000 A 
ENDROOT
BRANCH   1  15
ATOM     14  C   UNL     1      -5.912   1.893 129.097  0.00  0.00    +0.000 C 
ATOM     15  S   UNL     1      -7.761   2.399 128.417  0.00  0.00    +0.000 S 
ATOM     16  O   UNL     1      -8.692   1.473 128.994  0.00  0.00    +0.000 OA
ATOM     17  O   UNL     1      -8.300   3.723 128.127  0.00  0.00    +0.000 OA
ENDBRANCH   1  15
BRANCH   3  18
ATOM     18  C   UNL     1      -7.415  -1.388 127.866  0.00  0.00    +0.000 C 
BRANCH  18  19
ATOM     19  C   UNL     1      -6.502  -2.493 128.520  0.00  0.00    +0.000 A 
ATOM     20  C   UNL     1      -7.035  -3.407 129.418  0.00  0.00    +0.000 A 
ATOM     21  C   UNL     1      -6.212  -4.032 130.450  0.00  0.00    +0.000 A 
ATOM     22  C   UNL     1      -4.842  -3.910 130.468  0.00  0.00    +0.000 A 
ATOM     23 CL   UNL     1      -3.977  -4.171 131.949  0.00  0.00    +0.000 Cl
ATOM     24  C   UNL     1      -4.276  -3.328 129.357  0.00  0.00    +0.000 A 
ATOM     25  C   UNL     1      -5.092  -2.619 128.396  0.00  0.00    +0.000 A 
ENDBRANCH  18  19
ENDBRANCH   3  18
BRANCH   8  26
ATOM     26  C   UNL     1      -8.005  -3.705 124.810  0.00  0.00    +0.000 C 
BRANCH  26  27
ATOM     27  C   UNL     1      -9.402  -3.173 124.693  0.00  0.00    +0.000 C 
ATOM     28  O   UNL     1      -9.949  -2.563 125.600  0.00  0.00    +0.000 OA
BRANCH  27  29
ATOM     29  O   UNL     1     -10.035  -3.383 123.521  0.00  0.00    +0.000 OA
ATOM     30  H   UNL     1     -10.512  -2.631 123.118  0.00  0.00    +0.000 HD
ENDBRANCH  27  29
ENDBRANCH  26  27
ENDBRANCH   8  26
TORSDOF 6
ENDMDL
MODEL 4
REMARK VINA RESULT:      -7.8      4.927      7.292
REMARK  Name = Laropiprant
REMARK  7 active torsions:
REMARK  status: ('A' for Active; 'I' for Inactive)
REMARK    1  A    between atoms: C_1  and  S_2
REMARK    2  A    between atoms: S_2  and  C_5
REMARK    3  A    between atoms: N_7  and  C_8
REMARK    4  A    between atoms: C_8  and  C_9
REMARK    5  A    between atoms: C_20  and  C_21
REMARK    6  A    between atoms: C_21  and  C_22
REMARK    7  A    between atoms: C_22  and  O_23
REMARK                            x       y       z     vdW  Elec       q    Type
REMARK                         _______ _______ _______ _____ _____    ______ ____
ROOT
ATOM      1  C   UNL     1      -8.713  -0.303 124.880  0.00  0.00    +0.000 A 
ATOM      2  C   UNL     1      -8.342  -0.674 126.224  0.00  0.00    +0.000 A 
ATOM      3  N   UNL     1      -7.890  -0.049 127.467  0.00  0.00    +0.000 N 
ATOM      4  C   UNL     1      -7.821  -1.164 128.409  0.00  0.00    +0.000 A 
ATOM      5  C   UNL     1      -8.103  -2.332 127.741  0.00  0.00    +0.000 A 
ATOM      6  C   UNL     1      -8.051  -3.584 128.538  0.00  0.00    +0.000 C 
ATOM      7  C   UNL     1      -8.071  -3.051 129.976  0.00  0.00    +0.000 C 
ATOM      8  C   UNL     1      -7.506  -1.565 129.873  0.00  0.00    +0.000 C 
ATOM      9  C   UNL     1      -8.402  -2.079 126.419  0.00  0.00    +0.000 A 
ATOM     10  C   UNL     1      -8.751  -2.973 125.376  0.00  0.00    +0.000 A 
ATOM     11  C   UNL     1      -9.005  -2.526 124.102  0.00  0.00    +0.000 A 
ATOM     12  F   UNL     1      -9.310  -3.357 123.104  0.00  0.00    +0.000 F 
ATOM     13  C   UNL     1      -8.972  -1.205 123.849  0.00  0.00    +0.000 A 
ENDROOT
BRANCH   1  15
ATOM     14  C   UNL     1      -6.757   1.543 124.209  0.00  0.00    +0.000 C 
ATOM     15  S   UNL     1      -8.774   1.286 124.197  0.00  0.00    +0.000 S 
ATOM     16  O   UNL     1      -9.332   2.273 125.074  0.00  0.00    +0.000 OA
ATOM     17  O   UNL     1      -9.639   0.872 123.096  0.00  0.00    +0.000 OA
ENDBRANCH   1  15
BRANCH   3  18
ATOM     18  C   UNL     1      -7.520   1.467 127.824  0.00  0.00    +0.000 C 
BRANCH  18  19
ATOM     19  C   UNL     1      -7.984   2.344 129.048  0.00  0.00    +0.000 A 
ATOM     20  C   UNL     1      -7.049   2.954 129.872  0.00  0.00    +0.000 A 
ATOM     21  C   UNL     1      -7.348   3.261 131.268  0.00  0.00    +0.000 A 
ATOM     22  C   UNL     1      -8.616   3.152 131.787  0.00  0.00    +0.000 A 
ATOM     23 CL   UNL     1      -8.831   2.981 133.500  0.00  0.00    +0.000 Cl
ATOM     24  C   UNL     1      -9.621   2.921 130.875  0.00  0.00    +0.000 A 
ATOM     25  C   UNL     1      -9.312   2.512 129.522  0.00  0.00    +0.000 A 
ENDBRANCH  18  19
ENDBRANCH   3  18
BRANCH   8  26
ATOM     26  C   UNL     1      -8.118  -0.729 130.967  0.00  0.00    +0.000 C 
BRANCH  26  27
ATOM     27  C   UNL     1      -7.110  -0.271 131.979  0.00  0.00    +0.000 C 
ATOM     28  O   UNL     1      -7.381  -0.154 133.165  0.00  0.00    +0.000 OA
BRANCH  27  29
ATOM     29  O   UNL     1      -5.870  -0.006 131.523  0.00  0.00    +0.000 OA
ATOM     30  H   UNL     1      -5.566  -0.482 130.725  0.00  0.00    +0.000 HD
ENDBRANCH  27  29
ENDBRANCH  26  27
ENDBRANCH   8  26
TORSDOF 6
ENDMDL
MODEL 5
REMARK VINA RESULT:      -7.7      6.615      8.852
REMARK  Name = Laropiprant
REMARK  7 active torsions:
REMARK  status: ('A' for Active; 'I' for Inactive)
REMARK    1  A    between atoms: C_1  and  S_2
REMARK    2  A    between atoms: S_2  and  C_5
REMARK    3  A    between atoms: N_7  and  C_8
REMARK    4  A    between atoms: C_8  and  C_9
REMARK    5  A    between atoms: C_20  and  C_21
REMARK    6  A    between atoms: C_21  and  C_22
REMARK    7  A    between atoms: C_22  and  O_23
REMARK                            x       y       z     vdW  Elec       q    Type
REMARK                         _______ _______ _______ _____ _____    ______ ____
ROOT
ATOM      1  C   UNL     1      -3.363   5.218 128.737  0.00  0.00    +0.000 A 
ATOM      2  C   UNL     1      -4.327   4.310 129.311  0.00  0.00    +0.000 A 
ATOM      3  N   UNL     1      -5.366   4.294 130.341  0.00  0.00    +0.000 N 
ATOM      4  C   UNL     1      -5.952   2.960 130.219  0.00  0.00    +0.000 A 
ATOM      5  C   UNL     1      -5.245   2.245 129.282  0.00  0.00    +0.000 A 
ATOM      6  C   UNL     1      -5.682   0.845 129.044  0.00  0.00    +0.000 C 
ATOM      7  C   UNL     1      -7.071   0.828 129.691  0.00  0.00    +0.000 C 
ATOM      8  C   UNL     1      -7.040   2.002 130.768  0.00  0.00    +0.000 C 
ATOM      9  C   UNL     1      -4.247   3.018 128.728  0.00  0.00    +0.000 A 
ATOM     10  C   UNL     1      -3.288   2.695 127.734  0.00  0.00    +0.000 A 
ATOM     11  C   UNL     1      -2.353   3.609 127.314  0.00  0.00    +0.000 A 
ATOM     12  F   UNL     1      -1.430   3.313 126.398  0.00  0.00    +0.000 F 
ATOM     13  C   UNL     1      -2.377   4.855 127.821  0.00  0.00    +0.000 A 
ENDROOT
BRANCH   1  15
ATOM     14  C   UNL     1      -2.387   6.476 131.007  0.00  0.00    +0.000 C 
ATOM     15  S   UNL     1      -3.098   6.878 129.144  0.00  0.00    +0.000 S 
ATOM     16  O   UNL     1      -4.304   7.636 129.306  0.00  0.00    +0.000 OA
ATOM     17  O   UNL     1      -2.354   7.149 127.918  0.00  0.00    +0.000 OA
ENDBRANCH   1  15
BRANCH   3  18
ATOM     18  C   UNL     1      -5.830   5.396 131.403  0.00  0.00    +0.000 C 
BRANCH  18  19
ATOM     19  C   UNL     1      -7.244   6.064 131.594  0.00  0.00    +0.000 A 
ATOM     20  C   UNL     1      -8.027   5.751 132.696  0.00  0.00    +0.000 A 
ATOM     21  C   UNL     1      -9.484   5.850 132.650  0.00  0.00    +0.000 A 
ATOM     22  C   UNL     1     -10.145   6.440 131.598  0.00  0.00    +0.000 A 
ATOM     23 CL   UNL     1     -11.811   6.057 131.309  0.00  0.00    +0.000 Cl
ATOM     24  C   UNL     1      -9.354   7.099 130.685  0.00  0.00    +0.000 A 
ATOM     25  C   UNL     1      -7.920   6.909 130.674  0.00  0.00    +0.000 A 
ENDBRANCH  18  19
ENDBRANCH   3  18
BRANCH   8  26
ATOM     26  C   UNL     1      -8.431   2.556 130.933  0.00  0.00    +0.000 C 
BRANCH  26  27
ATOM     27  C   UNL     1      -9.126   2.025 132.151  0.00  0.00    +0.000 C 
ATOM     28  O   UNL     1     -10.277   1.616 132.122  0.00  0.00    +0.000 OA
BRANCH  27  29
ATOM     29  O   UNL     1      -8.412   2.001 133.294  0.00  0.00    +0.000 OA
ATOM     30  H   UNL     1      -7.439   1.949 133.224  0.00  0.00    +0.000 HD
ENDBRANCH  27  29
ENDBRANCH  26  27
ENDBRANCH   8  26
TORSDOF 6
ENDMDL
MODEL 6
REMARK VINA RESULT:      -7.6      4.615      7.230
REMARK  Name = Laropiprant
REMARK  7 active torsions:
REMARK  status: ('A' for Active; 'I' for Inactive)
REMARK    1  A    between atoms: C_1  and  S_2
REMARK    2  A    between atoms: S_2  and  C_5
REMARK    3  A    between atoms: N_7  and  C_8
REMARK    4  A    between atoms: C_8  and  C_9
REMARK    5  A    between atoms: C_20  and  C_21
REMARK    6  A    between atoms: C_21  and  C_22
REMARK    7  A    between atoms: C_22  and  O_23
REMARK                            x       y       z     vdW  Elec       q    Type
REMARK                         _______ _______ _______ _____ _____    ______ ____
ROOT
ATOM      1  C   UNL     1      -8.264   1.621 129.624  0.00  0.00    +0.000 A 
ATOM      2  C   UNL     1      -7.740   0.277 129.603  0.00  0.00    +0.000 A 
ATOM      3  N   UNL     1      -6.981  -0.609 128.720  0.00  0.00    +0.000 N 
ATOM      4  C   UNL     1      -6.794  -1.817 129.520  0.00  0.00    +0.000 A 
ATOM      5  C   UNL     1      -7.473  -1.677 130.707  0.00  0.00    +0.000 A 
ATOM      6  C   UNL     1      -7.421  -2.828 131.644  0.00  0.00    +0.000 C 
ATOM      7  C   UNL     1      -6.256  -3.650 131.079  0.00  0.00    +0.000 C 
ATOM      8  C   UNL     1      -6.163  -3.233 129.544  0.00  0.00    +0.000 C 
ATOM      9  C   UNL     1      -8.071  -0.437 130.784  0.00  0.00    +0.000 A 
ATOM     10  C   UNL     1      -8.861   0.131 131.815  0.00  0.00    +0.000 A 
ATOM     11  C   UNL     1      -9.387   1.395 131.702  0.00  0.00    +0.000 A 
ATOM     12  F   UNL     1     -10.152   1.936 132.652  0.00  0.00    +0.000 F 
ATOM     13  C   UNL     1      -9.106   2.130 130.611  0.00  0.00    +0.000 A 
ENDROOT
BRANCH   1  15
ATOM     14  C   UNL     1      -6.110   3.071 128.653  0.00  0.00    +0.000 C 
ATOM     15  S   UNL     1      -8.114   2.837 128.402  0.00  0.00    +0.000 S 
ATOM     16  O   UNL     1      -8.732   4.084 128.745  0.00  0.00    +0.000 OA
ATOM     17  O   UNL     1      -8.826   2.044 127.405  0.00  0.00    +0.000 OA
ENDBRANCH   1  15
BRANCH   3  18
ATOM     18  C   UNL     1      -6.442  -0.417 127.225  0.00  0.00    +0.000 C 
BRANCH  18  19
ATOM     19  C   UNL     1      -6.822  -1.210 125.918  0.00  0.00    +0.000 A 
ATOM     20  C   UNL     1      -7.456  -0.568 124.864  0.00  0.00    +0.000 A 
ATOM     21  C   UNL     1      -8.320  -1.294 123.937  0.00  0.00    +0.000 A 
ATOM     22  C   UNL     1      -8.396  -2.667 123.930  0.00  0.00    +0.000 A 
ATOM     23 CL   UNL     1      -9.785  -3.445 123.241  0.00  0.00    +0.000 Cl
ATOM     24  C   UNL     1      -7.475  -3.324 124.713  0.00  0.00    +0.000 A 
ATOM     25  C   UNL     1      -6.702  -2.609 125.704  0.00  0.00    +0.000 A 
ENDBRANCH  18  19
ENDBRANCH   3  18
BRANCH   8  26
ATOM     26  C   UNL     1      -4.734  -3.363 129.084  0.00  0.00    +0.000 C 
BRANCH  26  27
ATOM     27  C   UNL     1      -3.762  -2.713 130.024  0.00  0.00    +0.000 C 
ATOM     28  O   UNL     1      -3.649  -1.500 130.112  0.00  0.00    +0.000 OA
BRANCH  27  29
ATOM     29  O   UNL     1      -3.018  -3.535 130.791  0.00  0.00    +0.000 OA
ATOM     30  H   UNL     1      -2.915  -4.462 130.500  0.00  0.00    +0.000 HD
ENDBRANCH  27  29
ENDBRANCH  26  27
ENDBRANCH   8  26
TORSDOF 6
ENDMDL
MODEL 7
REMARK VINA RESULT:      -7.6      4.951      8.303
REMARK  Name = Laropiprant
REMARK  7 active torsions:
REMARK  status: ('A' for Active; 'I' for Inactive)
REMARK    1  A    between atoms: C_1  and  S_2
REMARK    2  A    between atoms: S_2  and  C_5
REMARK    3  A    between atoms: N_7  and  C_8
REMARK    4  A    between atoms: C_8  and  C_9
REMARK    5  A    between atoms: C_20  and  C_21
REMARK    6  A    between atoms: C_21  and  C_22
REMARK    7  A    between atoms: C_22  and  O_23
REMARK                            x       y       z     vdW  Elec       q    Type
REMARK                         _______ _______ _______ _____ _____    ______ ____
ROOT
ATOM      1  C   UNL     1      -8.023   2.214 126.382  0.00  0.00    +0.000 A 
ATOM      2  C   UNL     1      -7.991   0.806 126.700  0.00  0.00    +0.000 A 
ATOM      3  N   UNL     1      -7.486  -0.088 127.742  0.00  0.00    +0.000 N 
ATOM      4  C   UNL     1      -7.970  -1.404 127.331  0.00  0.00    +0.000 A 
ATOM      5  C   UNL     1      -8.599  -1.290 126.114  0.00  0.00    +0.000 A 
ATOM      6  C   UNL     1      -9.133  -2.542 125.520  0.00  0.00    +0.000 C 
ATOM      7  C   UNL     1      -9.120  -3.498 126.718  0.00  0.00    +0.000 C 
ATOM      8  C   UNL     1      -8.015  -2.909 127.704  0.00  0.00    +0.000 C 
ATOM      9  C   UNL     1      -8.614   0.023 125.693  0.00  0.00    +0.000 A 
ATOM     10  C   UNL     1      -9.152   0.596 124.513  0.00  0.00    +0.000 A 
ATOM     11  C   UNL     1      -9.056   1.944 124.262  0.00  0.00    +0.000 A 
ATOM     12  F   UNL     1      -9.535   2.495 123.146  0.00  0.00    +0.000 F 
ATOM     13  C   UNL     1      -8.484   2.745 125.178  0.00  0.00    +0.000 A 
ENDROOT
BRANCH   1  15
ATOM     14  C   UNL     1      -8.684   3.285 128.852  0.00  0.00    +0.000 C 
ATOM     15  S   UNL     1      -7.381   3.525 127.309  0.00  0.00    +0.000 S 
ATOM     16  O   UNL     1      -7.634   4.817 126.739  0.00  0.00    +0.000 OA
ATOM     17  O   UNL     1      -6.007   3.050 127.187  0.00  0.00    +0.000 OA
ENDBRANCH   1  15
BRANCH   3  18
ATOM     18  C   UNL     1      -6.606   0.188 129.049  0.00  0.00    +0.000 C 
BRANCH  18  19
ATOM     19  C   UNL     1      -7.075   0.545 130.511  0.00  0.00    +0.000 A 
ATOM     20  C   UNL     1      -8.355   0.221 130.938  0.00  0.00    +0.000 A 
ATOM     21  C   UNL     1      -9.026   0.988 131.984  0.00  0.00    +0.000 A 
ATOM     22  C   UNL     1      -8.369   1.933 132.736  0.00  0.00    +0.000 A 
ATOM     23 CL   UNL     1      -9.276   3.171 133.543  0.00  0.00    +0.000 Cl
ATOM     24  C   UNL     1      -7.002   1.981 132.579  0.00  0.00    +0.000 A 
ATOM     25  C   UNL     1      -6.359   1.304 131.475  0.00  0.00    +0.000 A 
ENDBRANCH  18  19
ENDBRANCH   3  18
BRANCH   8  26
ATOM     26  C   UNL     1      -8.384  -3.260 129.122  0.00  0.00    +0.000 C 
BRANCH  26  27
ATOM     27  C   UNL     1      -7.193  -3.326 130.031  0.00  0.00    +0.000 C 
ATOM     28  O   UNL     1      -6.059  -3.502 129.612  0.00  0.00    +0.000 OA
BRANCH  27  29
ATOM     29  O   UNL     1      -7.426  -3.164 131.349  0.00  0.00    +0.000 OA
ATOM     30  H   UNL     1      -7.154  -2.321 131.761  0.00  0.00    +0.000 HD
ENDBRANCH  27  29
ENDBRANCH  26  27
ENDBRANCH   8  26
TORSDOF 6
ENDMDL
MODEL 8
REMARK VINA RESULT:      -7.5      3.574      5.414
REMARK  Name = Laropiprant
REMARK  7 active torsions:
REMARK  status: ('A' for Active; 'I' for Inactive)
REMARK    1  A    between atoms: C_1  and  S_2
REMARK    2  A    between atoms: S_2  and  C_5
REMARK    3  A    between atoms: N_7  and  C_8
REMARK    4  A    between atoms: C_8  and  C_9
REMARK    5  A    between atoms: C_20  and  C_21
REMARK    6  A    between atoms: C_21  and  C_22
REMARK    7  A    between atoms: C_22  and  O_23
REMARK                            x       y       z     vdW  Elec       q    Type
REMARK                         _______ _______ _______ _____ _____    ______ ____
ROOT
ATOM      1  C   UNL     1      -7.390  -1.244 127.969  0.00  0.00    +0.000 A 
ATOM      2  C   UNL     1      -7.830  -0.155 127.132  0.00  0.00    +0.000 A 
ATOM      3  N   UNL     1      -7.687   1.297 127.028  0.00  0.00    +0.000 N 
ATOM      4  C   UNL     1      -8.409   1.628 125.801  0.00  0.00    +0.000 A 
ATOM      5  C   UNL     1      -9.001   0.489 125.309  0.00  0.00    +0.000 A 
ATOM      6  C   UNL     1      -9.809   0.640 124.072  0.00  0.00    +0.000 C 
ATOM      7  C   UNL     1      -9.358   2.012 123.558  0.00  0.00    +0.000 C 
ATOM      8  C   UNL     1      -8.819   2.779 124.846  0.00  0.00    +0.000 C 
ATOM      9  C   UNL     1      -8.691  -0.600 126.094  0.00  0.00    +0.000 A 
ATOM     10  C   UNL     1      -9.076  -1.959 125.963  0.00  0.00    +0.000 A 
ATOM     11  C   UNL     1      -8.670  -2.911 126.866  0.00  0.00    +0.000 A 
ATOM     12  F   UNL     1      -9.044  -4.188 126.770  0.00  0.00    +0.000 F 
ATOM     13  C   UNL     1      -7.847  -2.557 127.870  0.00  0.00    +0.000 A 
ENDROOT
BRANCH   1  15
ATOM     14  C   UNL     1      -7.688  -0.170 130.507  0.00  0.00    +0.000 C 
ATOM     15  S   UNL     1      -6.348  -1.168 129.348  0.00  0.00    +0.000 S 
ATOM     16  O   UNL     1      -5.216  -0.306 129.173  0.00  0.00    +0.000 OA
ATOM     17  O   UNL     1      -6.053  -2.597 129.311  0.00  0.00    +0.000 OA
ENDBRANCH   1  15
BRANCH   3  18
ATOM     18  C   UNL     1      -6.953   2.366 127.966  0.00  0.00    +0.000 C 
BRANCH  18  19
ATOM     19  C   UNL     1      -5.517   2.999 127.824  0.00  0.00    +0.000 A 
ATOM     20  C   UNL     1      -5.058   3.433 126.588  0.00  0.00    +0.000 A 
ATOM     21  C   UNL     1      -3.633   3.472 126.275  0.00  0.00    +0.000 A 
ATOM     22  C   UNL     1      -2.666   3.277 127.233  0.00  0.00    +0.000 A 
ATOM     23 CL   UNL     1      -1.072   2.786 126.757  0.00  0.00    +0.000 Cl
ATOM     24  C   UNL     1      -3.111   3.232 128.535  0.00  0.00    +0.000 A 
ATOM     25  C   UNL     1      -4.519   3.085 128.831  0.00  0.00    +0.000 A 
ENDBRANCH  18  19
ENDBRANCH   3  18
BRANCH   8  26
ATOM     26  C   UNL     1      -7.744   3.749 124.428  0.00  0.00    +0.000 C 
BRANCH  26  27
ATOM     27  C   UNL     1      -7.771   5.021 125.222  0.00  0.00    +0.000 C 
ATOM     28  O   UNL     1      -8.668   5.283 126.008  0.00  0.00    +0.000 OA
BRANCH  27  29
ATOM     29  O   UNL     1      -6.739   5.870 125.041  0.00  0.00    +0.000 OA
ATOM     30  H   UNL     1      -6.933   6.750 124.663  0.00  0.00    +0.000 HD
ENDBRANCH  27  29
ENDBRANCH  26  27
ENDBRANCH   8  26
TORSDOF 6
ENDMDL
MODEL 9
REMARK VINA RESULT:      -7.4      4.198      6.654
REMARK  Name = Laropiprant
REMARK  7 active torsions:
REMARK  status: ('A' for Active; 'I' for Inactive)
REMARK    1  A    between atoms: C_1  and  S_2
REMARK    2  A    between atoms: S_2  and  C_5
REMARK    3  A    between atoms: N_7  and  C_8
REMARK    4  A    between atoms: C_8  and  C_9
REMARK    5  A    between atoms: C_20  and  C_21
REMARK    6  A    between atoms: C_21  and  C_22
REMARK    7  A    between atoms: C_22  and  O_23
REMARK                            x       y       z     vdW  Elec       q    Type
REMARK                         _______ _______ _______ _____ _____    ______ ____
ROOT
ATOM      1  C   UNL     1      -8.328  -0.750 124.250  0.00  0.00    +0.000 A 
ATOM      2  C   UNL     1      -7.438   0.210 124.858  0.00  0.00    +0.000 A 
ATOM      3  N   UNL     1      -6.424   0.277 125.910  0.00  0.00    +0.000 N 
ATOM      4  C   UNL     1      -5.924   1.647 125.821  0.00  0.00    +0.000 A 
ATOM      5  C   UNL     1      -6.658   2.331 124.880  0.00  0.00    +0.000 A 
ATOM      6  C   UNL     1      -6.309   3.760 124.674  0.00  0.00    +0.000 C 
ATOM      7  C   UNL     1      -4.937   3.858 125.351  0.00  0.00    +0.000 C 
ATOM      8  C   UNL     1      -4.913   2.666 126.408  0.00  0.00    +0.000 C 
ATOM      9  C   UNL     1      -7.591   1.504 124.293  0.00  0.00    +0.000 A 
ATOM     10  C   UNL     1      -8.548   1.780 123.284  0.00  0.00    +0.000 A 
ATOM     11  C   UNL     1      -9.413   0.813 122.831  0.00  0.00    +0.000 A 
ATOM     12  F   UNL     1     -10.335   1.063 121.900  0.00  0.00    +0.000 F 
ATOM     13  C   UNL     1      -9.317  -0.437 123.318  0.00  0.00    +0.000 A 
ENDROOT
BRANCH   1  15
ATOM     14  C   UNL     1      -6.592  -2.904 124.077  0.00  0.00    +0.000 C 
ATOM     15  S   UNL     1      -8.492  -2.431 124.626  0.00  0.00    +0.000 S 
ATOM     16  O   UNL     1      -9.375  -3.138 123.745  0.00  0.00    +0.000 OA
ATOM     17  O   UNL     1      -9.022  -2.168 125.960  0.00  0.00    +0.000 OA
ENDBRANCH   1  15
BRANCH   3  18
ATOM     18  C   UNL     1      -5.910  -0.811 126.965  0.00  0.00    +0.000 C 
BRANCH  18  19
ATOM     19  C   UNL     1      -6.708  -1.550 128.104  0.00  0.00    +0.000 A 
ATOM     20  C   UNL     1      -7.559  -0.843 128.942  0.00  0.00    +0.000 A 
ATOM     21  C   UNL     1      -7.851  -1.302 130.297  0.00  0.00    +0.000 A 
ATOM     22  C   UNL     1      -7.470  -2.544 130.747  0.00  0.00    +0.000 A 
ATOM     23 CL   UNL     1      -7.333  -2.833 132.452  0.00  0.00    +0.000 Cl
ATOM     24  C   UNL     1      -6.967  -3.401 129.795  0.00  0.00    +0.000 A 
ATOM     25  C   UNL     1      -6.581  -2.912 128.490  0.00  0.00    +0.000 A 
ENDBRANCH  18  19
ENDBRANCH   3  18
BRANCH   8  26
ATOM     26  C   UNL     1      -3.492   2.201 126.594  0.00  0.00    +0.000 C 
BRANCH  26  27
ATOM     27  C   UNL     1      -2.580   3.297 127.060  0.00  0.00    +0.000 C 
ATOM     28  O   UNL     1      -2.778   3.917 128.094  0.00  0.00    +0.000 OA
BRANCH  27  29
ATOM     29  O   UNL     1      -1.508   3.564 126.288  0.00  0.00    +0.000 OA
ATOM     30  H   UNL     1      -0.629   3.298 126.620  0.00  0.00    +0.000 HD
ENDBRANCH  27  29
ENDBRANCH  26  27
ENDBRANCH   8  26
TORSDOF 6
ENDMDL
