MODEL 1
REMARK VINA RESULT:      -9.2      0.000      0.000
REMARK  Name = Larotrectinib
REMARK  3 active torsions:
REMARK  status: ('A' for Active; 'I' for Inactive)
REMARK    1  A    between atoms: O_1  and  C_2
REMARK    2  A    between atoms: N_9  and  C_10
REMARK    3  A    between atoms: C_23  and  C_24
REMARK                            x       y       z     vdW  Elec       q    Type
REMARK                         _______ _______ _______ _____ _____    ______ ____
ROOT
ATOM      1  C   UNL     1      -8.860   4.755 131.391  0.00  0.00    +0.000 A 
ATOM      2  C   UNL     1      -7.655   4.208 130.976  0.00  0.00    +0.000 A 
ATOM      3  N   UNL     1      -6.811   4.506 129.930  0.00  0.00    +0.000 NA
ATOM      4  C   UNL     1      -5.767   3.738 129.733  0.00  0.00    +0.000 A 
ATOM      5  C   UNL     1      -5.460   2.552 130.655  0.00  0.00    +0.000 A 
ATOM      6  C   UNL     1      -6.202   2.440 131.766  0.00  0.00    +0.000 A 
ATOM      7  N   UNL     1      -7.321   3.245 131.937  0.00  0.00    +0.000 N 
ATOM      8  N   UNL     1      -8.189   3.236 132.982  0.00  0.00    +0.000 NA
ATOM      9  C   UNL     1      -9.113   4.136 132.640  0.00  0.00    +0.000 A 
ATOM     10  N   UNL     1      -4.795   4.082 128.797  0.00  0.00    +0.000 N 
ATOM     11  C   UNL     1      -4.346   3.182 127.752  0.00  0.00    +0.000 C 
ATOM     12  C   UNL     1      -2.875   3.530 127.623  0.00  0.00    +0.000 C 
ATOM     13  C   UNL     1      -2.879   5.049 127.744  0.00  0.00    +0.000 C 
ATOM     14  C   UNL     1      -4.051   5.375 128.720  0.00  0.00    +0.000 C 
ENDROOT
BRANCH   1  22
ATOM     15  C   UNL     1     -12.578   8.619 129.469  0.00  0.00    +0.000 C 
ATOM     16  C   UNL     1     -13.348   7.676 128.552  0.00  0.00    +0.000 C 
ATOM     17  C   UNL     1     -12.783   6.297 128.888  0.00  0.00    +0.000 C 
ATOM     18  N   UNL     1     -11.507   6.526 129.568  0.00  0.00    +0.000 N 
ATOM     19  C   UNL     1     -11.199   7.950 129.566  0.00  0.00    +0.000 C 
ATOM     20  C   UNL     1     -10.815   5.455 130.114  0.00  0.00    +0.000 C 
ATOM     21  O   UNL     1     -11.325   4.327 130.079  0.00  0.00    +0.000 OA
ATOM     22  N   UNL     1      -9.619   5.744 130.746  0.00  0.00    +0.000 N 
ATOM     23  H   UNL     1      -9.455   6.693 131.037  0.00  0.00    +0.000 HD
BRANCH  15  24
ATOM     24  O   UNL     1     -12.526   9.928 128.928  0.00  0.00    +0.000 OA
ATOM     25  H   UNL     1     -11.802   9.943 128.276  0.00  0.00    +0.000 HD
ENDBRANCH  15  24
ENDBRANCH   1  22
BRANCH  14  26
ATOM     26  C   UNL     1      -3.522   5.911 130.045  0.00  0.00    +0.000 A 
ATOM     27  C   UNL     1      -3.961   7.115 130.605  0.00  0.00    +0.000 A 
ATOM     28  F   UNL     1      -4.845   7.883 129.949  0.00  0.00    +0.000 F 
ATOM     29  C   UNL     1      -3.481   7.567 131.849  0.00  0.00    +0.000 A 
ATOM     30  C   UNL     1      -2.569   6.804 132.579  0.00  0.00    +0.000 A 
ATOM     31  C   UNL     1      -2.130   5.619 132.044  0.00  0.00    +0.000 A 
ATOM     32  F   UNL     1      -1.259   4.837 132.691  0.00  0.00    +0.000 F 
ATOM     33  C   UNL     1      -2.581   5.217 130.805  0.00  0.00    +0.000 A 
ENDBRANCH  14  26
TORSDOF 3
ENDMDL
MODEL 2
REMARK VINA RESULT:      -8.9      3.205      4.483
REMARK  Name = Larotrectinib
REMARK  3 active torsions:
REMARK  status: ('A' for Active; 'I' for Inactive)
REMARK    1  A    between atoms: O_1  and  C_2
REMARK    2  A    between atoms: N_9  and  C_10
REMARK    3  A    between atoms: C_23  and  C_24
REMARK                            x       y       z     vdW  Elec       q    Type
REMARK                         _______ _______ _______ _____ _____    ______ ____
ROOT
ATOM      1  C   UNL     1      -9.455   3.308 130.319  0.00  0.00    +0.000 A 
ATOM      2  C   UNL     1      -8.831   2.423 129.452  0.00  0.00    +0.000 A 
ATOM      3  N   UNL     1      -8.743   2.375 128.079  0.00  0.00    +0.000 NA
ATOM      4  C   UNL     1      -8.149   1.343 127.528  0.00  0.00    +0.000 A 
ATOM      5  C   UNL     1      -7.534   0.225 128.378  0.00  0.00    +0.000 A 
ATOM      6  C   UNL     1      -7.476   0.432 129.702  0.00  0.00    +0.000 A 
ATOM      7  N   UNL     1      -8.139   1.516 130.264  0.00  0.00    +0.000 N 
ATOM      8  N   UNL     1      -8.204   1.847 131.580  0.00  0.00    +0.000 NA
ATOM      9  C   UNL     1      -9.004   2.916 131.603  0.00  0.00    +0.000 A 
ATOM     10  N   UNL     1      -7.888   1.318 126.162  0.00  0.00    +0.000 N 
ATOM     11  C   UNL     1      -8.289   0.224 125.296  0.00  0.00    +0.000 C 
ATOM     12  C   UNL     1      -7.152   0.159 124.294  0.00  0.00    +0.000 C 
ATOM     13  C   UNL     1      -6.857   1.630 124.027  0.00  0.00    +0.000 C 
ATOM     14  C   UNL     1      -7.154   2.355 125.376  0.00  0.00    +0.000 C 
ENDROOT
BRANCH   1  22
ATOM     15  C   UNL     1     -12.467   7.605 128.104  0.00  0.00    +0.000 C 
ATOM     16  C   UNL     1     -11.474   8.707 128.450  0.00  0.00    +0.000 C 
ATOM     17  C   UNL     1     -10.250   7.950 128.961  0.00  0.00    +0.000 C 
ATOM     18  N   UNL     1     -10.709   6.604 129.306  0.00  0.00    +0.000 N 
ATOM     19  C   UNL     1     -12.156   6.525 129.150  0.00  0.00    +0.000 C 
ATOM     20  C   UNL     1      -9.789   5.636 129.681  0.00  0.00    +0.000 C 
ATOM     21  O   UNL     1      -8.581   5.908 129.649  0.00  0.00    +0.000 OA
ATOM     22  N   UNL     1     -10.291   4.385 129.988  0.00  0.00    +0.000 N 
ATOM     23  H   UNL     1     -11.212   4.150 129.656  0.00  0.00    +0.000 HD
BRANCH  15  24
ATOM     24  O   UNL     1     -13.801   8.079 128.172  0.00  0.00    +0.000 OA
ATOM     25  H   UNL     1     -14.372   7.393 127.781  0.00  0.00    +0.000 HD
ENDBRANCH  15  24
ENDBRANCH   1  22
BRANCH  14  26
ATOM     26  C   UNL     1      -5.868   2.874 126.008  0.00  0.00    +0.000 A 
ATOM     27  C   UNL     1      -4.778   2.046 126.298  0.00  0.00    +0.000 A 
ATOM     28  F   UNL     1      -4.853   0.726 126.073  0.00  0.00    +0.000 F 
ATOM     29  C   UNL     1      -3.589   2.561 126.848  0.00  0.00    +0.000 A 
ATOM     30  C   UNL     1      -3.451   3.928 127.092  0.00  0.00    +0.000 A 
ATOM     31  C   UNL     1      -4.511   4.753 126.811  0.00  0.00    +0.000 A 
ATOM     32  F   UNL     1      -4.446   6.073 127.017  0.00  0.00    +0.000 F 
ATOM     33  C   UNL     1      -5.681   4.221 126.313  0.00  0.00    +0.000 A 
ENDBRANCH  14  26
TORSDOF 3
ENDMDL
MODEL 3
REMARK VINA RESULT:      -8.7      3.397      7.616
REMARK  Name = Larotrectinib
REMARK  3 active torsions:
REMARK  status: ('A' for Active; 'I' for Inactive)
REMARK    1  A    between atoms: O_1  and  C_2
REMARK    2  A    between atoms: N_9  and  C_10
REMARK    3  A    between atoms: C_23  and  C_24
REMARK                            x       y       z     vdW  Elec       q    Type
REMARK                         _______ _______ _______ _____ _____    ______ ____
ROOT
ATOM      1  C   UNL     1      -4.494   4.947 128.384  0.00  0.00    +0.000 A 
ATOM      2  C   UNL     1      -5.628   4.218 128.710  0.00  0.00    +0.000 A 
ATOM      3  N   UNL     1      -6.221   3.910 129.914  0.00  0.00    +0.000 NA
ATOM      4  C   UNL     1      -7.257   3.107 129.911  0.00  0.00    +0.000 A 
ATOM      5  C   UNL     1      -7.829   2.542 128.606  0.00  0.00    +0.000 A 
ATOM      6  C   UNL     1      -7.335   3.039 127.462  0.00  0.00    +0.000 A 
ATOM      7  N   UNL     1      -6.218   3.863 127.490  0.00  0.00    +0.000 N 
ATOM      8  N   UNL     1      -5.580   4.420 126.427  0.00  0.00    +0.000 NA
ATOM      9  C   UNL     1      -4.543   5.058 126.973  0.00  0.00    +0.000 A 
ATOM     10  N   UNL     1      -7.993   2.890 131.073  0.00  0.00    +0.000 N 
ATOM     11  C   UNL     1      -8.288   1.567 131.590  0.00  0.00    +0.000 C 
ATOM     12  C   UNL     1      -9.673   1.742 132.182  0.00  0.00    +0.000 C 
ATOM     13  C   UNL     1      -9.583   3.112 132.845  0.00  0.00    +0.000 C 
ATOM     14  C   UNL     1      -8.610   3.934 131.945  0.00  0.00    +0.000 C 
ENDROOT
BRANCH   1  22
ATOM     15  C   UNL     1      -1.267   6.925 132.641  0.00  0.00    +0.000 C 
ATOM     16  C   UNL     1      -1.861   8.327 132.670  0.00  0.00    +0.000 C 
ATOM     17  C   UNL     1      -3.050   8.241 131.715  0.00  0.00    +0.000 C 
ATOM     18  N   UNL     1      -2.833   7.052 130.890  0.00  0.00    +0.000 N 
ATOM     19  C   UNL     1      -1.533   6.471 131.198  0.00  0.00    +0.000 C 
ATOM     20  C   UNL     1      -3.819   6.636 130.008  0.00  0.00    +0.000 C 
ATOM     21  O   UNL     1      -4.901   7.239 129.984  0.00  0.00    +0.000 OA
ATOM     22  N   UNL     1      -3.551   5.501 129.263  0.00  0.00    +0.000 N 
ATOM     23  H   UNL     1      -2.825   4.884 129.586  0.00  0.00    +0.000 HD
BRANCH  15  24
ATOM     24  O   UNL     1       0.111   6.946 132.973  0.00  0.00    +0.000 OA
ATOM     25  H   UNL     1       0.608   6.739 132.161  0.00  0.00    +0.000 HD
ENDBRANCH  15  24
ENDBRANCH   1  22
BRANCH  14  26
ATOM     26  C   UNL     1      -9.354   5.047 131.216  0.00  0.00    +0.000 A 
ATOM     27  C   UNL     1      -8.811   6.322 131.022  0.00  0.00    +0.000 A 
ATOM     28  F   UNL     1      -7.609   6.629 131.533  0.00  0.00    +0.000 F 
ATOM     29  C   UNL     1      -9.506   7.318 130.312  0.00  0.00    +0.000 A 
ATOM     30  C   UNL     1     -10.756   7.051 129.750  0.00  0.00    +0.000 A 
ATOM     31  C   UNL     1     -11.300   5.804 129.929  0.00  0.00    +0.000 A 
ATOM     32  F   UNL     1     -12.492   5.479 129.415  0.00  0.00    +0.000 F 
ATOM     33  C   UNL     1     -10.621   4.857 130.665  0.00  0.00    +0.000 A 
ENDBRANCH  14  26
TORSDOF 3
ENDMDL
MODEL 4
REMARK VINA RESULT:      -8.5      1.787      2.136
REMARK  Name = Larotrectinib
REMARK  3 active torsions:
REMARK  status: ('A' for Active; 'I' for Inactive)
REMARK    1  A    between atoms: O_1  and  C_2
REMARK    2  A    between atoms: N_9  and  C_10
REMARK    3  A    between atoms: C_23  and  C_24
REMARK                            x       y       z     vdW  Elec       q    Type
REMARK                         _______ _______ _______ _____ _____    ______ ____
ROOT
ATOM      1  C   UNL     1      -8.645   2.977 130.168  0.00  0.00    +0.000 A 
ATOM      2  C   UNL     1      -7.314   3.204 129.850  0.00  0.00    +0.000 A 
ATOM      3  N   UNL     1      -6.636   4.329 129.437  0.00  0.00    +0.000 NA
ATOM      4  C   UNL     1      -5.370   4.212 129.117  0.00  0.00    +0.000 A 
ATOM      5  C   UNL     1      -4.638   2.869 129.225  0.00  0.00    +0.000 A 
ATOM      6  C   UNL     1      -5.297   1.866 129.823  0.00  0.00    +0.000 A 
ATOM      7  N   UNL     1      -6.646   2.004 130.124  0.00  0.00    +0.000 N 
ATOM      8  N   UNL     1      -7.459   1.080 130.697  0.00  0.00    +0.000 NA
ATOM      9  C   UNL     1      -8.657   1.668 130.709  0.00  0.00    +0.000 A 
ATOM     10  N   UNL     1      -4.596   5.337 128.849  0.00  0.00    +0.000 N 
ATOM     11  C   UNL     1      -3.808   5.490 127.641  0.00  0.00    +0.000 C 
ATOM     12  C   UNL     1      -2.591   6.252 128.131  0.00  0.00    +0.000 C 
ATOM     13  C   UNL     1      -3.197   7.260 129.101  0.00  0.00    +0.000 C 
ATOM     14  C   UNL     1      -4.421   6.528 129.733  0.00  0.00    +0.000 C 
ENDROOT
BRANCH   1  22
ATOM     15  C   UNL     1     -12.345   7.285 129.722  0.00  0.00    +0.000 C 
ATOM     16  C   UNL     1     -12.643   7.411 131.211  0.00  0.00    +0.000 C 
ATOM     17  C   UNL     1     -11.629   6.476 131.867  0.00  0.00    +0.000 C 
ATOM     18  N   UNL     1     -11.155   5.575 130.815  0.00  0.00    +0.000 N 
ATOM     19  C   UNL     1     -11.897   5.822 129.586  0.00  0.00    +0.000 C 
ATOM     20  C   UNL     1     -10.122   4.688 131.081  0.00  0.00    +0.000 C 
ATOM     21  O   UNL     1      -9.568   4.722 132.189  0.00  0.00    +0.000 OA
ATOM     22  N   UNL     1      -9.720   3.870 130.040  0.00  0.00    +0.000 N 
ATOM     23  H   UNL     1      -9.966   4.141 129.103  0.00  0.00    +0.000 HD
BRANCH  15  24
ATOM     24  O   UNL     1     -13.490   7.591 128.945  0.00  0.00    +0.000 OA
ATOM     25  H   UNL     1     -13.181   8.062 128.149  0.00  0.00    +0.000 HD
ENDBRANCH  15  24
ENDBRANCH   1  22
BRANCH  14  26
ATOM     26  C   UNL     1      -4.171   6.226 131.206  0.00  0.00    +0.000 A 
ATOM     27  C   UNL     1      -5.158   6.371 132.187  0.00  0.00    +0.000 A 
ATOM     28  F   UNL     1      -6.370   6.845 131.862  0.00  0.00    +0.000 F 
ATOM     29  C   UNL     1      -4.909   6.048 133.534  0.00  0.00    +0.000 A 
ATOM     30  C   UNL     1      -3.670   5.542 133.928  0.00  0.00    +0.000 A 
ATOM     31  C   UNL     1      -2.693   5.392 132.977  0.00  0.00    +0.000 A 
ATOM     32  F   UNL     1      -1.483   4.909 133.283  0.00  0.00    +0.000 F 
ATOM     33  C   UNL     1      -2.944   5.755 131.671  0.00  0.00    +0.000 A 
ENDBRANCH  14  26
TORSDOF 3
ENDMDL
MODEL 5
REMARK VINA RESULT:      -8.5      6.465      9.142
REMARK  Name = Larotrectinib
REMARK  3 active torsions:
REMARK  status: ('A' for Active; 'I' for Inactive)
REMARK    1  A    between atoms: O_1  and  C_2
REMARK    2  A    between atoms: N_9  and  C_10
REMARK    3  A    between atoms: C_23  and  C_24
REMARK                            x       y       z     vdW  Elec       q    Type
REMARK                         _______ _______ _______ _____ _____    ______ ____
ROOT
ATOM      1  C   UNL     1      -7.518   2.770 125.298  0.00  0.00    +0.000 A 
ATOM      2  C   UNL     1      -7.496   1.507 124.723  0.00  0.00    +0.000 A 
ATOM      3  N   UNL     1      -6.547   0.510 124.706  0.00  0.00    +0.000 NA
ATOM      4  C   UNL     1      -6.781  -0.561 123.987  0.00  0.00    +0.000 A 
ATOM      5  C   UNL     1      -8.087  -0.730 123.203  0.00  0.00    +0.000 A 
ATOM      6  C   UNL     1      -9.048   0.180 123.423  0.00  0.00    +0.000 A 
ATOM      7  N   UNL     1      -8.767   1.320 124.164  0.00  0.00    +0.000 N 
ATOM      8  N   UNL     1      -9.613   2.344 124.451  0.00  0.00    +0.000 NA
ATOM      9  C   UNL     1      -8.852   3.212 125.121  0.00  0.00    +0.000 A 
ATOM     10  N   UNL     1      -5.936  -1.665 124.058  0.00  0.00    +0.000 N 
ATOM     11  C   UNL     1      -5.340  -2.286 122.890  0.00  0.00    +0.000 C 
ATOM     12  C   UNL     1      -5.317  -3.754 123.269  0.00  0.00    +0.000 C 
ATOM     13  C   UNL     1      -4.908  -3.714 124.738  0.00  0.00    +0.000 C 
ATOM     14  C   UNL     1      -5.531  -2.397 125.295  0.00  0.00    +0.000 C 
ENDROOT
BRANCH   1  22
ATOM     15  C   UNL     1      -2.831   4.586 127.978  0.00  0.00    +0.000 C 
ATOM     16  C   UNL     1      -3.329   4.323 129.393  0.00  0.00    +0.000 C 
ATOM     17  C   UNL     1      -4.639   3.565 129.185  0.00  0.00    +0.000 C 
ATOM     18  N   UNL     1      -5.046   3.815 127.802  0.00  0.00    +0.000 N 
ATOM     19  C   UNL     1      -4.134   4.768 127.186  0.00  0.00    +0.000 C 
ATOM     20  C   UNL     1      -6.143   3.148 127.276  0.00  0.00    +0.000 C 
ATOM     21  O   UNL     1      -6.719   2.296 127.966  0.00  0.00    +0.000 OA
ATOM     22  N   UNL     1      -6.470   3.427 125.961  0.00  0.00    +0.000 N 
ATOM     23  H   UNL     1      -5.765   3.844 125.376  0.00  0.00    +0.000 HD
BRANCH  15  24
ATOM     24  O   UNL     1      -1.989   5.725 127.935  0.00  0.00    +0.000 OA
ATOM     25  H   UNL     1      -1.456   5.722 128.751  0.00  0.00    +0.000 HD
ENDBRANCH  15  24
ENDBRANCH   1  22
BRANCH  14  26
ATOM     26  C   UNL     1      -6.654  -2.702 126.280  0.00  0.00    +0.000 A 
ATOM     27  C   UNL     1      -7.840  -3.341 125.903  0.00  0.00    +0.000 A 
ATOM     28  F   UNL     1      -8.054  -3.665 124.618  0.00  0.00    +0.000 F 
ATOM     29  C   UNL     1      -8.844  -3.643 126.842  0.00  0.00    +0.000 A 
ATOM     30  C   UNL     1      -8.670  -3.338 128.193  0.00  0.00    +0.000 A 
ATOM     31  C   UNL     1      -7.511  -2.713 128.578  0.00  0.00    +0.000 A 
ATOM     32  F   UNL     1      -7.277  -2.396 129.856  0.00  0.00    +0.000 F 
ATOM     33  C   UNL     1      -6.559  -2.388 127.635  0.00  0.00    +0.000 A 
ENDBRANCH  14  26
TORSDOF 3
ENDMDL
MODEL 6
REMARK VINA RESULT:      -8.3      2.650      3.466
REMARK  Name = Larotrectinib
REMARK  3 active torsions:
REMARK  status: ('A' for Active; 'I' for Inactive)
REMARK    1  A    between atoms: O_1  and  C_2
REMARK    2  A    between atoms: N_9  and  C_10
REMARK    3  A    between atoms: C_23  and  C_24
REMARK                            x       y       z     vdW  Elec       q    Type
REMARK                         _______ _______ _______ _____ _____    ______ ____
ROOT
ATOM      1  C   UNL     1      -8.030   4.034 131.585  0.00  0.00    +0.000 A 
ATOM      2  C   UNL     1      -7.283   3.064 130.933  0.00  0.00    +0.000 A 
ATOM      3  N   UNL     1      -7.302   2.591 129.640  0.00  0.00    +0.000 NA
ATOM      4  C   UNL     1      -6.522   1.583 129.334  0.00  0.00    +0.000 A 
ATOM      5  C   UNL     1      -5.581   0.955 130.369  0.00  0.00    +0.000 A 
ATOM      6  C   UNL     1      -5.463   1.590 131.545  0.00  0.00    +0.000 A 
ATOM      7  N   UNL     1      -6.322   2.635 131.857  0.00  0.00    +0.000 N 
ATOM      8  N   UNL     1      -6.355   3.357 133.008  0.00  0.00    +0.000 NA
ATOM      9  C   UNL     1      -7.389   4.185 132.839  0.00  0.00    +0.000 A 
ATOM     10  N   UNL     1      -6.379   1.168 128.013  0.00  0.00    +0.000 N 
ATOM     11  C   UNL     1      -6.570  -0.206 127.587  0.00  0.00    +0.000 C 
ATOM     12  C   UNL     1      -5.541  -0.358 126.483  0.00  0.00    +0.000 C 
ATOM     13  C   UNL     1      -5.642   0.973 125.747  0.00  0.00    +0.000 C 
ATOM     14  C   UNL     1      -5.993   2.020 126.849  0.00  0.00    +0.000 C 
ENDROOT
BRANCH   1  22
ATOM     15  C   UNL     1     -12.132   6.734 128.700  0.00  0.00    +0.000 C 
ATOM     16  C   UNL     1     -11.459   8.101 128.682  0.00  0.00    +0.000 C 
ATOM     17  C   UNL     1     -10.065   7.830 129.243  0.00  0.00    +0.000 C 
ATOM     18  N   UNL     1     -10.141   6.543 129.938  0.00  0.00    +0.000 N 
ATOM     19  C   UNL     1     -11.518   6.067 129.939  0.00  0.00    +0.000 C 
ATOM     20  C   UNL     1      -8.987   5.965 130.446  0.00  0.00    +0.000 C 
ATOM     21  O   UNL     1      -7.896   6.514 130.240  0.00  0.00    +0.000 OA
ATOM     22  N   UNL     1      -9.130   4.747 131.086  0.00  0.00    +0.000 N 
ATOM     23  H   UNL     1      -9.964   4.212 130.905  0.00  0.00    +0.000 HD
BRANCH  15  24
ATOM     24  O   UNL     1     -13.542   6.859 128.775  0.00  0.00    +0.000 OA
ATOM     25  H   UNL     1     -13.734   7.667 129.285  0.00  0.00    +0.000 HD
ENDBRANCH  15  24
ENDBRANCH   1  22
BRANCH  14  26
ATOM     26  C   UNL     1      -4.825   2.971 127.086  0.00  0.00    +0.000 A 
ATOM     27  C   UNL     1      -4.996   4.282 127.541  0.00  0.00    +0.000 A 
ATOM     28  F   UNL     1      -6.229   4.775 127.736  0.00  0.00    +0.000 F 
ATOM     29  C   UNL     1      -3.896   5.125 127.787  0.00  0.00    +0.000 A 
ATOM     30  C   UNL     1      -2.591   4.663 127.611  0.00  0.00    +0.000 A 
ATOM     31  C   UNL     1      -2.407   3.378 127.167  0.00  0.00    +0.000 A 
ATOM     32  F   UNL     1      -1.185   2.868 126.980  0.00  0.00    +0.000 F 
ATOM     33  C   UNL     1      -3.500   2.584 126.891  0.00  0.00    +0.000 A 
ENDBRANCH  14  26
TORSDOF 3
ENDMDL
MODEL 7
REMARK VINA RESULT:      -8.1      5.414      7.814
REMARK  Name = Larotrectinib
REMARK  3 active torsions:
REMARK  status: ('A' for Active; 'I' for Inactive)
REMARK    1  A    between atoms: O_1  and  C_2
REMARK    2  A    between atoms: N_9  and  C_10
REMARK    3  A    between atoms: C_23  and  C_24
REMARK                            x       y       z     vdW  Elec       q    Type
REMARK                         _______ _______ _______ _____ _____    ______ ____
ROOT
ATOM      1  C   UNL     1      -6.921  -2.349 129.259  0.00  0.00    +0.000 A 
ATOM      2  C   UNL     1      -6.280  -1.260 129.832  0.00  0.00    +0.000 A 
ATOM      3  N   UNL     1      -6.143   0.051 129.437  0.00  0.00    +0.000 NA
ATOM      4  C   UNL     1      -5.385   0.843 130.156  0.00  0.00    +0.000 A 
ATOM      5  C   UNL     1      -4.688   0.347 131.428  0.00  0.00    +0.000 A 
ATOM      6  C   UNL     1      -5.024  -0.876 131.865  0.00  0.00    +0.000 A 
ATOM      7  N   UNL     1      -5.802  -1.707 131.071  0.00  0.00    +0.000 N 
ATOM      8  N   UNL     1      -6.202  -2.975 131.351  0.00  0.00    +0.000 NA
ATOM      9  C   UNL     1      -6.863  -3.354 130.255  0.00  0.00    +0.000 A 
ATOM     10  N   UNL     1      -5.338   2.210 129.900  0.00  0.00    +0.000 N 
ATOM     11  C   UNL     1      -4.099   2.938 129.694  0.00  0.00    +0.000 C 
ATOM     12  C   UNL     1      -4.397   4.286 130.322  0.00  0.00    +0.000 C 
ATOM     13  C   UNL     1      -5.833   4.550 129.882  0.00  0.00    +0.000 C 
ATOM     14  C   UNL     1      -6.503   3.143 129.821  0.00  0.00    +0.000 C 
ENDROOT
BRANCH   1  22
ATOM     15  C   UNL     1      -8.976  -3.434 124.058  0.00  0.00    +0.000 C 
ATOM     16  C   UNL     1      -7.876  -2.717 123.286  0.00  0.00    +0.000 C 
ATOM     17  C   UNL     1      -6.847  -2.364 124.357  0.00  0.00    +0.000 C 
ATOM     18  N   UNL     1      -7.540  -2.454 125.643  0.00  0.00    +0.000 N 
ATOM     19  C   UNL     1      -8.954  -2.725 125.420  0.00  0.00    +0.000 C 
ATOM     20  C   UNL     1      -6.825  -2.311 126.823  0.00  0.00    +0.000 C 
ATOM     21  O   UNL     1      -5.595  -2.180 126.771  0.00  0.00    +0.000 OA
ATOM     22  N   UNL     1      -7.542  -2.412 128.002  0.00  0.00    +0.000 N 
ATOM     23  H   UNL     1      -8.443  -2.860 127.971  0.00  0.00    +0.000 HD
BRANCH  15  24
ATOM     24  O   UNL     1     -10.223  -3.324 123.393  0.00  0.00    +0.000 OA
ATOM     25  H   UNL     1     -10.794  -4.038 123.729  0.00  0.00    +0.000 HD
ENDBRANCH  15  24
ENDBRANCH   1  22
BRANCH  14  26
ATOM     26  C   UNL     1      -7.546   2.989 130.921  0.00  0.00    +0.000 A 
ATOM     27  C   UNL     1      -8.824   2.471 130.687  0.00  0.00    +0.000 A 
ATOM     28  F   UNL     1      -9.200   2.135 129.443  0.00  0.00    +0.000 F 
ATOM     29  C   UNL     1      -9.754   2.307 131.730  0.00  0.00    +0.000 A 
ATOM     30  C   UNL     1      -9.414   2.630 133.045  0.00  0.00    +0.000 A 
ATOM     31  C   UNL     1      -8.163   3.137 133.291  0.00  0.00    +0.000 A 
ATOM     32  F   UNL     1      -7.769   3.464 134.527  0.00  0.00    +0.000 F 
ATOM     33  C   UNL     1      -7.283   3.330 132.247  0.00  0.00    +0.000 A 
ENDBRANCH  14  26
TORSDOF 3
ENDMDL
MODEL 8
REMARK VINA RESULT:      -8.0      3.307      6.180
REMARK  Name = Larotrectinib
REMARK  3 active torsions:
REMARK  status: ('A' for Active; 'I' for Inactive)
REMARK    1  A    between atoms: O_1  and  C_2
REMARK    2  A    between atoms: N_9  and  C_10
REMARK    3  A    between atoms: C_23  and  C_24
REMARK                            x       y       z     vdW  Elec       q    Type
REMARK                         _______ _______ _______ _____ _____    ______ ____
ROOT
ATOM      1  C   UNL     1      -8.354   3.220 131.023  0.00  0.00    +0.000 A 
ATOM      2  C   UNL     1      -7.387   4.171 131.318  0.00  0.00    +0.000 A 
ATOM      3  N   UNL     1      -6.132   4.078 131.875  0.00  0.00    +0.000 NA
ATOM      4  C   UNL     1      -5.475   5.185 132.120  0.00  0.00    +0.000 A 
ATOM      5  C   UNL     1      -6.060   6.558 131.769  0.00  0.00    +0.000 A 
ATOM      6  C   UNL     1      -7.190   6.568 131.048  0.00  0.00    +0.000 A 
ATOM      7  N   UNL     1      -7.884   5.385 130.828  0.00  0.00    +0.000 N 
ATOM      8  N   UNL     1      -9.051   5.230 130.150  0.00  0.00    +0.000 NA
ATOM      9  C   UNL     1      -9.329   3.931 130.282  0.00  0.00    +0.000 A 
ATOM     10  N   UNL     1      -4.145   5.148 132.531  0.00  0.00    +0.000 N 
ATOM     11  C   UNL     1      -3.661   5.833 133.715  0.00  0.00    +0.000 C 
ATOM     12  C   UNL     1      -2.266   6.264 133.302  0.00  0.00    +0.000 C 
ATOM     13  C   UNL     1      -1.756   5.053 132.531  0.00  0.00    +0.000 C 
ATOM     14  C   UNL     1      -3.019   4.450 131.842  0.00  0.00    +0.000 C 
ENDROOT
BRANCH   1  22
ATOM     15  C   UNL     1      -7.331  -2.275 132.118  0.00  0.00    +0.000 C 
ATOM     16  C   UNL     1      -7.566  -2.780 130.700  0.00  0.00    +0.000 C 
ATOM     17  C   UNL     1      -7.709  -1.502 129.875  0.00  0.00    +0.000 C 
ATOM     18  N   UNL     1      -8.001  -0.427 130.825  0.00  0.00    +0.000 N 
ATOM     19  C   UNL     1      -8.161  -0.983 132.162  0.00  0.00    +0.000 C 
ATOM     20  C   UNL     1      -8.058   0.886 130.384  0.00  0.00    +0.000 C 
ATOM     21  O   UNL     1      -7.789   1.137 129.200  0.00  0.00    +0.000 OA
ATOM     22  N   UNL     1      -8.333   1.853 131.335  0.00  0.00    +0.000 N 
ATOM     23  H   UNL     1      -8.189   1.618 132.303  0.00  0.00    +0.000 HD
BRANCH  15  24
ATOM     24  O   UNL     1      -7.742  -3.235 133.076  0.00  0.00    +0.000 OA
ATOM     25  H   UNL     1      -6.937  -3.576 133.508  0.00  0.00    +0.000 HD
ENDBRANCH  15  24
ENDBRANCH   1  22
BRANCH  14  26
ATOM     26  C   UNL     1      -2.954   4.637 130.330  0.00  0.00    +0.000 A 
ATOM     27  C   UNL     1      -3.450   3.690 129.427  0.00  0.00    +0.000 A 
ATOM     28  F   UNL     1      -3.962   2.534 129.875  0.00  0.00    +0.000 F 
ATOM     29  C   UNL     1      -3.409   3.907 128.038  0.00  0.00    +0.000 A 
ATOM     30  C   UNL     1      -2.897   5.096 127.517  0.00  0.00    +0.000 A 
ATOM     31  C   UNL     1      -2.409   6.035 128.390  0.00  0.00    +0.000 A 
ATOM     32  F   UNL     1      -1.906   7.198 127.960  0.00  0.00    +0.000 F 
ATOM     33  C   UNL     1      -2.418   5.784 129.745  0.00  0.00    +0.000 A 
ENDBRANCH  14  26
TORSDOF 3
ENDMDL
MODEL 9
REMARK VINA RESULT:      -7.9      3.349      6.374
REMARK  Name = Larotrectinib
REMARK  3 active torsions:
REMARK  status: ('A' for Active; 'I' for Inactive)
REMARK    1  A    between atoms: O_1  and  C_2
REMARK    2  A    between atoms: N_9  and  C_10
REMARK    3  A    between atoms: C_23  and  C_24
REMARK                            x       y       z     vdW  Elec       q    Type
REMARK                         _______ _______ _______ _____ _____    ______ ____
ROOT
ATOM      1  C   UNL     1      -8.081   2.578 130.383  0.00  0.00    +0.000 A 
ATOM      2  C   UNL     1      -7.510   3.717 130.933  0.00  0.00    +0.000 A 
ATOM      3  N   UNL     1      -6.356   3.920 131.657  0.00  0.00    +0.000 NA
ATOM      4  C   UNL     1      -6.121   5.120 132.130  0.00  0.00    +0.000 A 
ATOM      5  C   UNL     1      -7.079   6.287 131.866  0.00  0.00    +0.000 A 
ATOM      6  C   UNL     1      -8.071   6.070 130.990  0.00  0.00    +0.000 A 
ATOM      7  N   UNL     1      -8.319   4.785 130.527  0.00  0.00    +0.000 N 
ATOM      8  N   UNL     1      -9.296   4.394 129.667  0.00  0.00    +0.000 NA
ATOM      9  C   UNL     1      -9.152   3.069 129.597  0.00  0.00    +0.000 A 
ATOM     10  N   UNL     1      -4.901   5.423 132.728  0.00  0.00    +0.000 N 
ATOM     11  C   UNL     1      -4.790   6.021 134.046  0.00  0.00    +0.000 C 
ATOM     12  C   UNL     1      -3.575   6.917 133.903  0.00  0.00    +0.000 C 
ATOM     13  C   UNL     1      -2.623   6.061 133.074  0.00  0.00    +0.000 C 
ATOM     14  C   UNL     1      -3.545   5.224 132.136  0.00  0.00    +0.000 C 
ENDROOT
BRANCH   1  22
ATOM     15  C   UNL     1      -7.266  -3.030 130.960  0.00  0.00    +0.000 C 
ATOM     16  C   UNL     1      -7.263  -3.048 132.483  0.00  0.00    +0.000 C 
ATOM     17  C   UNL     1      -7.682  -1.630 132.866  0.00  0.00    +0.000 C 
ATOM     18  N   UNL     1      -7.467  -0.799 131.680  0.00  0.00    +0.000 N 
ATOM     19  C   UNL     1      -6.835  -1.592 130.634  0.00  0.00    +0.000 C 
ATOM     20  C   UNL     1      -7.881   0.524 131.681  0.00  0.00    +0.000 C 
ATOM     21  O   UNL     1      -8.492   0.964 132.665  0.00  0.00    +0.000 OA
ATOM     22  N   UNL     1      -7.651   1.250 130.526  0.00  0.00    +0.000 N 
ATOM     23  H   UNL     1      -7.481   0.742 129.674  0.00  0.00    +0.000 HD
BRANCH  15  24
ATOM     24  O   UNL     1      -6.385  -4.008 130.435  0.00  0.00    +0.000 OA
ATOM     25  H   UNL     1      -5.478  -3.674 130.553  0.00  0.00    +0.000 HD
ENDBRANCH  15  24
ENDBRANCH   1  22
BRANCH  14  26
ATOM     26  C   UNL     1      -3.387   5.665 130.685  0.00  0.00    +0.000 A 
ATOM     27  C   UNL     1      -3.713   6.952 130.244  0.00  0.00    +0.000 A 
ATOM     28  F   UNL     1      -4.239   7.845 131.097  0.00  0.00    +0.000 F 
ATOM     29  C   UNL     1      -3.522   7.342 128.906  0.00  0.00    +0.000 A 
ATOM     30  C   UNL     1      -2.968   6.458 127.979  0.00  0.00    +0.000 A 
ATOM     31  C   UNL     1      -2.642   5.192 128.396  0.00  0.00    +0.000 A 
ATOM     32  F   UNL     1      -2.105   4.295 127.562  0.00  0.00    +0.000 F 
ATOM     33  C   UNL     1      -2.878   4.818 129.702  0.00  0.00    +0.000 A 
ENDBRANCH  14  26
TORSDOF 3
ENDMDL
