MODEL 1
REMARK VINA RESULT:      -8.8      0.000      0.000
REMARK  Name = Lasmiditan
REMARK  4 active torsions:
REMARK  status: ('A' for Active; 'I' for Inactive)
REMARK    1  A    between atoms: C_1  and  N_2
REMARK    2  A    between atoms: C_5  and  C_8
REMARK    3  A    between atoms: C_8  and  C_10
REMARK    4  A    between atoms: C_16  and  C_18
REMARK                            x       y       z     vdW  Elec       q    Type
REMARK                         _______ _______ _______ _____ _____    ______ ____
ROOT
ATOM      1  C   UNL     1      -8.185   3.356 127.414  0.00  0.00    +0.000 A 
ATOM      2  C   UNL     1      -8.207   1.982 127.615  0.00  0.00    +0.000 A 
ATOM      3  C   UNL     1      -7.803   1.168 126.584  0.00  0.00    +0.000 A 
ATOM      4  C   UNL     1      -7.479   1.750 125.371  0.00  0.00    +0.000 A 
ATOM      5  C   UNL     1      -7.563   3.128 125.194  0.00  0.00    +0.000 A 
ATOM      6  N   UNL     1      -7.295   3.732 123.944  0.00  0.00    +0.000 N 
ATOM      7  C   UNL     1      -6.933   3.050 122.793  0.00  0.00    +0.000 C 
ATOM      8  O   UNL     1      -6.755   1.833 122.698  0.00  0.00    +0.000 OA
ATOM      9  N   UNL     1      -7.898   3.949 126.215  0.00  0.00    +0.000 NA
ATOM     10  H   UNL     1      -7.408   4.741 123.945  0.00  0.00    +0.000 HD
ENDROOT
BRANCH   7  11
ATOM     11  C   UNL     1      -6.725   3.795 121.546  0.00  0.00    +0.000 A 
ATOM     12  C   UNL     1      -5.499   4.362 121.220  0.00  0.00    +0.000 A 
ATOM     13  F   UNL     1      -4.471   4.309 122.077  0.00  0.00    +0.000 F 
ATOM     14  C   UNL     1      -5.303   4.967 119.977  0.00  0.00    +0.000 A 
ATOM     15  C   UNL     1      -6.345   4.993 119.056  0.00  0.00    +0.000 A 
ATOM     16  F   UNL     1      -6.166   5.591 117.873  0.00  0.00    +0.000 F 
ATOM     17  C   UNL     1      -7.568   4.410 119.346  0.00  0.00    +0.000 A 
ATOM     18  C   UNL     1      -7.747   3.805 120.586  0.00  0.00    +0.000 A 
ATOM     19  F   UNL     1      -8.937   3.240 120.837  0.00  0.00    +0.000 F 
ENDBRANCH   7  11
BRANCH   1  20
ATOM     20  C   UNL     1      -8.505   4.271 128.546  0.00  0.00    +0.000 C 
ATOM     21  O   UNL     1      -8.721   5.456 128.291  0.00  0.00    +0.000 OA
BRANCH  20  26
ATOM     22  C   UNL     1     -11.473   6.414 131.430  0.00  0.00    +0.000 C 
ATOM     23  N   UNL     1     -10.480   5.337 131.441  0.00  0.00    +0.000 NA
ATOM     24  C   UNL     1      -9.160   5.891 131.093  0.00  0.00    +0.000 C 
ATOM     25  C   UNL     1      -8.091   4.795 131.001  0.00  0.00    +0.000 C 
ATOM     26  C   UNL     1      -8.502   3.707 129.991  0.00  0.00    +0.000 C 
ATOM     27  C   UNL     1      -9.854   3.162 130.461  0.00  0.00    +0.000 C 
ATOM     28  C   UNL     1     -10.890   4.289 130.502  0.00  0.00    +0.000 C 
ENDBRANCH  20  26
ENDBRANCH   1  20
TORSDOF 3
ENDMDL
MODEL 2
REMARK VINA RESULT:      -8.7      4.476      5.746
REMARK  Name = Lasmiditan
REMARK  4 active torsions:
REMARK  status: ('A' for Active; 'I' for Inactive)
REMARK    1  A    between atoms: C_1  and  N_2
REMARK    2  A    between atoms: C_5  and  C_8
REMARK    3  A    between atoms: C_8  and  C_10
REMARK    4  A    between atoms: C_16  and  C_18
REMARK                            x       y       z     vdW  Elec       q    Type
REMARK                         _______ _______ _______ _____ _____    ______ ____
ROOT
ATOM      1  C   UNL     1      -9.115   3.672 129.987  0.00  0.00    +0.000 A 
ATOM      2  C   UNL     1      -7.875   3.809 130.599  0.00  0.00    +0.000 A 
ATOM      3  C   UNL     1      -6.828   3.057 130.122  0.00  0.00    +0.000 A 
ATOM      4  C   UNL     1      -7.078   2.138 129.120  0.00  0.00    +0.000 A 
ATOM      5  C   UNL     1      -8.361   1.973 128.604  0.00  0.00    +0.000 A 
ATOM      6  N   UNL     1      -8.646   0.995 127.622  0.00  0.00    +0.000 N 
ATOM      7  C   UNL     1      -7.717   0.120 127.081  0.00  0.00    +0.000 C 
ATOM      8  O   UNL     1      -6.513   0.089 127.342  0.00  0.00    +0.000 OA
ATOM      9  N   UNL     1      -9.389   2.748 129.016  0.00  0.00    +0.000 NA
ATOM     10  H   UNL     1      -9.621   0.968 127.344  0.00  0.00    +0.000 HD
ENDROOT
BRANCH   7  11
ATOM     11  C   UNL     1      -8.154  -0.879 126.098  0.00  0.00    +0.000 A 
ATOM     12  C   UNL     1      -8.567  -2.152 126.472  0.00  0.00    +0.000 A 
ATOM     13  F   UNL     1      -8.512  -2.541 127.752  0.00  0.00    +0.000 F 
ATOM     14  C   UNL     1      -9.083  -3.039 125.525  0.00  0.00    +0.000 A 
ATOM     15  C   UNL     1      -9.189  -2.638 124.197  0.00  0.00    +0.000 A 
ATOM     16  F   UNL     1      -9.663  -3.494 123.284  0.00  0.00    +0.000 F 
ATOM     17  C   UNL     1      -8.811  -1.364 123.804  0.00  0.00    +0.000 A 
ATOM     18  C   UNL     1      -8.305  -0.489 124.760  0.00  0.00    +0.000 A 
ATOM     19  F   UNL     1      -7.955   0.741 124.354  0.00  0.00    +0.000 F 
ENDBRANCH   7  11
BRANCH   1  20
ATOM     20  C   UNL     1     -10.242   4.556 130.400  0.00  0.00    +0.000 C 
ATOM     21  O   UNL     1     -11.379   4.246 130.047  0.00  0.00    +0.000 OA
BRANCH  20  26
ATOM     22  C   UNL     1     -12.840   8.229 129.189  0.00  0.00    +0.000 C 
ATOM     23  N   UNL     1     -11.764   7.875 130.117  0.00  0.00    +0.000 NA
ATOM     24  C   UNL     1     -10.584   7.439 129.349  0.00  0.00    +0.000 C 
ATOM     25  C   UNL     1      -9.451   6.969 130.269  0.00  0.00    +0.000 C 
ATOM     26  C   UNL     1      -9.929   5.844 131.204  0.00  0.00    +0.000 C 
ATOM     27  C   UNL     1     -11.119   6.404 131.990  0.00  0.00    +0.000 C 
ATOM     28  C   UNL     1     -12.233   6.826 131.027  0.00  0.00    +0.000 C 
ENDBRANCH  20  26
ENDBRANCH   1  20
TORSDOF 3
ENDMDL
MODEL 3
REMARK VINA RESULT:      -8.7      4.275      5.547
REMARK  Name = Lasmiditan
REMARK  4 active torsions:
REMARK  status: ('A' for Active; 'I' for Inactive)
REMARK    1  A    between atoms: C_1  and  N_2
REMARK    2  A    between atoms: C_5  and  C_8
REMARK    3  A    between atoms: C_8  and  C_10
REMARK    4  A    between atoms: C_16  and  C_18
REMARK                            x       y       z     vdW  Elec       q    Type
REMARK                         _______ _______ _______ _____ _____    ______ ____
ROOT
ATOM      1  C   UNL     1      -9.050   3.643 129.893  0.00  0.00    +0.000 A 
ATOM      2  C   UNL     1      -7.758   3.786 130.386  0.00  0.00    +0.000 A 
ATOM      3  C   UNL     1      -6.748   3.084 129.773  0.00  0.00    +0.000 A 
ATOM      4  C   UNL     1      -7.076   2.204 128.758  0.00  0.00    +0.000 A 
ATOM      5  C   UNL     1      -8.399   2.028 128.363  0.00  0.00    +0.000 A 
ATOM      6  N   UNL     1      -8.758   1.089 127.369  0.00  0.00    +0.000 N 
ATOM      7  C   UNL     1      -7.869   0.264 126.699  0.00  0.00    +0.000 C 
ATOM      8  O   UNL     1      -6.644   0.254 126.838  0.00  0.00    +0.000 OA
ATOM      9  N   UNL     1      -9.398   2.756 128.911  0.00  0.00    +0.000 NA
ATOM     10  H   UNL     1      -9.756   1.048 127.187  0.00  0.00    +0.000 HD
ENDROOT
BRANCH   7  11
ATOM     11  C   UNL     1      -8.379  -0.701 125.717  0.00  0.00    +0.000 A 
ATOM     12  C   UNL     1      -8.430  -0.415 124.358  0.00  0.00    +0.000 A 
ATOM     13  F   UNL     1      -8.077   0.793 123.899  0.00  0.00    +0.000 F 
ATOM     14  C   UNL     1      -8.813  -1.394 123.439  0.00  0.00    +0.000 A 
ATOM     15  C   UNL     1      -9.140  -2.668 123.892  0.00  0.00    +0.000 A 
ATOM     16  F   UNL     1      -9.529  -3.601 123.015  0.00  0.00    +0.000 F 
ATOM     17  C   UNL     1      -9.070  -2.987 125.239  0.00  0.00    +0.000 A 
ATOM     18  C   UNL     1      -8.680  -2.003 126.142  0.00  0.00    +0.000 A 
ATOM     19  F   UNL     1      -8.612  -2.340 127.438  0.00  0.00    +0.000 F 
ENDBRANCH   7  11
BRANCH   1  20
ATOM     20  C   UNL     1     -10.149   4.476 130.456  0.00  0.00    +0.000 C 
ATOM     21  O   UNL     1     -11.309   4.121 130.249  0.00  0.00    +0.000 OA
BRANCH  20  26
ATOM     22  C   UNL     1     -12.830   8.133 129.384  0.00  0.00    +0.000 C 
ATOM     23  N   UNL     1     -11.695   7.789 130.244  0.00  0.00    +0.000 NA
ATOM     24  C   UNL     1     -10.567   7.349 129.405  0.00  0.00    +0.000 C 
ATOM     25  C   UNL     1      -9.375   6.890 130.254  0.00  0.00    +0.000 C 
ATOM     26  C   UNL     1      -9.789   5.772 131.228  0.00  0.00    +0.000 C 
ATOM     27  C   UNL     1     -10.928   6.336 132.084  0.00  0.00    +0.000 C 
ATOM     28  C   UNL     1     -12.102   6.747 131.191  0.00  0.00    +0.000 C 
ENDBRANCH  20  26
ENDBRANCH   1  20
TORSDOF 3
ENDMDL
MODEL 4
REMARK VINA RESULT:      -8.6      6.343      8.578
REMARK  Name = Lasmiditan
REMARK  4 active torsions:
REMARK  status: ('A' for Active; 'I' for Inactive)
REMARK    1  A    between atoms: C_1  and  N_2
REMARK    2  A    between atoms: C_5  and  C_8
REMARK    3  A    between atoms: C_8  and  C_10
REMARK    4  A    between atoms: C_16  and  C_18
REMARK                            x       y       z     vdW  Elec       q    Type
REMARK                         _______ _______ _______ _____ _____    ______ ____
ROOT
ATOM      1  C   UNL     1      -5.849   4.679 131.634  0.00  0.00    +0.000 A 
ATOM      2  C   UNL     1      -6.117   3.332 131.841  0.00  0.00    +0.000 A 
ATOM      3  C   UNL     1      -7.339   2.844 131.445  0.00  0.00    +0.000 A 
ATOM      4  C   UNL     1      -8.274   3.731 130.942  0.00  0.00    +0.000 A 
ATOM      5  C   UNL     1      -7.988   5.090 130.841  0.00  0.00    +0.000 A 
ATOM      6  N   UNL     1      -8.952   6.019 130.387  0.00  0.00    +0.000 N 
ATOM      7  C   UNL     1     -10.245   5.698 130.006  0.00  0.00    +0.000 C 
ATOM      8  O   UNL     1     -10.730   4.565 129.969  0.00  0.00    +0.000 OA
ATOM      9  N   UNL     1      -6.770   5.578 131.167  0.00  0.00    +0.000 NA
ATOM     10  H   UNL     1      -8.622   6.979 130.376  0.00  0.00    +0.000 HD
ENDROOT
BRANCH   7  11
ATOM     11  C   UNL     1     -11.163   6.767 129.594  0.00  0.00    +0.000 A 
ATOM     12  C   UNL     1     -12.069   7.345 130.476  0.00  0.00    +0.000 A 
ATOM     13  F   UNL     1     -12.186   6.891 131.731  0.00  0.00    +0.000 F 
ATOM     14  C   UNL     1     -12.848   8.435 130.084  0.00  0.00    +0.000 A 
ATOM     15  C   UNL     1     -12.708   8.950 128.799  0.00  0.00    +0.000 A 
ATOM     16  F   UNL     1     -13.470   9.980 128.414  0.00  0.00    +0.000 F 
ATOM     17  C   UNL     1     -11.792   8.410 127.910  0.00  0.00    +0.000 A 
ATOM     18  C   UNL     1     -11.018   7.328 128.317  0.00  0.00    +0.000 A 
ATOM     19  F   UNL     1     -10.133   6.831 127.440  0.00  0.00    +0.000 F 
ENDBRANCH   7  11
BRANCH   1  20
ATOM     20  C   UNL     1      -4.494   5.217 131.943  0.00  0.00    +0.000 C 
ATOM     21  O   UNL     1      -4.420   6.289 132.542  0.00  0.00    +0.000 OA
BRANCH  20  26
ATOM     22  C   UNL     1      -2.453   7.051 128.178  0.00  0.00    +0.000 C 
ATOM     23  N   UNL     1      -2.305   5.916 129.092  0.00  0.00    +0.000 NA
ATOM     24  C   UNL     1      -3.512   5.074 129.019  0.00  0.00    +0.000 C 
ATOM     25  C   UNL     1      -3.455   3.915 130.022  0.00  0.00    +0.000 C 
ATOM     26  C   UNL     1      -3.247   4.435 131.456  0.00  0.00    +0.000 C 
ATOM     27  C   UNL     1      -1.952   5.253 131.441  0.00  0.00    +0.000 C 
ATOM     28  C   UNL     1      -2.076   6.415 130.451  0.00  0.00    +0.000 C 
ENDBRANCH  20  26
ENDBRANCH   1  20
TORSDOF 3
ENDMDL
MODEL 5
REMARK VINA RESULT:      -8.6      3.684      4.313
REMARK  Name = Lasmiditan
REMARK  4 active torsions:
REMARK  status: ('A' for Active; 'I' for Inactive)
REMARK    1  A    between atoms: C_1  and  N_2
REMARK    2  A    between atoms: C_5  and  C_8
REMARK    3  A    between atoms: C_8  and  C_10
REMARK    4  A    between atoms: C_16  and  C_18
REMARK                            x       y       z     vdW  Elec       q    Type
REMARK                         _______ _______ _______ _____ _____    ______ ____
ROOT
ATOM      1  C   UNL     1      -5.166   4.559 128.041  0.00  0.00    +0.000 A 
ATOM      2  C   UNL     1      -5.085   3.274 128.563  0.00  0.00    +0.000 A 
ATOM      3  C   UNL     1      -5.265   2.213 127.708  0.00  0.00    +0.000 A 
ATOM      4  C   UNL     1      -5.606   2.475 126.393  0.00  0.00    +0.000 A 
ATOM      5  C   UNL     1      -5.766   3.783 125.942  0.00  0.00    +0.000 A 
ATOM      6  N   UNL     1      -6.173   4.066 124.618  0.00  0.00    +0.000 N 
ATOM      7  C   UNL     1      -6.452   3.112 123.652  0.00  0.00    +0.000 C 
ATOM      8  O   UNL     1      -6.349   1.891 123.788  0.00  0.00    +0.000 OA
ATOM      9  N   UNL     1      -5.531   4.839 126.753  0.00  0.00    +0.000 NA
ATOM     10  H   UNL     1      -6.268   5.057 124.423  0.00  0.00    +0.000 HD
ENDROOT
BRANCH   7  11
ATOM     11  C   UNL     1      -6.908   3.540 122.324  0.00  0.00    +0.000 A 
ATOM     12  C   UNL     1      -6.025   3.978 121.344  0.00  0.00    +0.000 A 
ATOM     13  F   UNL     1      -4.717   4.093 121.605  0.00  0.00    +0.000 F 
ATOM     14  C   UNL     1      -6.479   4.270 120.057  0.00  0.00    +0.000 A 
ATOM     15  C   UNL     1      -7.828   4.114 119.754  0.00  0.00    +0.000 A 
ATOM     16  F   UNL     1      -8.269   4.415 118.527  0.00  0.00    +0.000 F 
ATOM     17  C   UNL     1      -8.724   3.652 120.705  0.00  0.00    +0.000 A 
ATOM     18  C   UNL     1      -8.256   3.358 121.982  0.00  0.00    +0.000 A 
ATOM     19  F   UNL     1      -9.143   2.905 122.880  0.00  0.00    +0.000 F 
ENDBRANCH   7  11
BRANCH   1  20
ATOM     20  C   UNL     1      -4.861   5.728 128.914  0.00  0.00    +0.000 C 
ATOM     21  O   UNL     1      -5.624   5.968 129.848  0.00  0.00    +0.000 OA
BRANCH  20  26
ATOM     22  C   UNL     1      -2.389   7.044 132.638  0.00  0.00    +0.000 C 
ATOM     23  N   UNL     1      -2.397   7.210 131.182  0.00  0.00    +0.000 NA
ATOM     24  C   UNL     1      -3.649   7.872 130.776  0.00  0.00    +0.000 C 
ATOM     25  C   UNL     1      -3.757   7.994 129.252  0.00  0.00    +0.000 C 
ATOM     26  C   UNL     1      -3.634   6.615 128.577  0.00  0.00    +0.000 C 
ATOM     27  C   UNL     1      -2.289   6.030 129.019  0.00  0.00    +0.000 C 
ATOM     28  C   UNL     1      -2.248   5.898 130.544  0.00  0.00    +0.000 C 
ENDBRANCH  20  26
ENDBRANCH   1  20
TORSDOF 3
ENDMDL
MODEL 6
REMARK VINA RESULT:      -8.4      5.936      9.643
REMARK  Name = Lasmiditan
REMARK  4 active torsions:
REMARK  status: ('A' for Active; 'I' for Inactive)
REMARK    1  A    between atoms: C_1  and  N_2
REMARK    2  A    between atoms: C_5  and  C_8
REMARK    3  A    between atoms: C_8  and  C_10
REMARK    4  A    between atoms: C_16  and  C_18
REMARK                            x       y       z     vdW  Elec       q    Type
REMARK                         _______ _______ _______ _____ _____    ______ ____
ROOT
ATOM      1  C   UNL     1      -8.326  -1.042 124.358  0.00  0.00    +0.000 A 
ATOM      2  C   UNL     1      -8.976  -2.150 123.827  0.00  0.00    +0.000 A 
ATOM      3  C   UNL     1      -9.330  -3.166 124.681  0.00  0.00    +0.000 A 
ATOM      4  C   UNL     1      -8.945  -3.080 126.006  0.00  0.00    +0.000 A 
ATOM      5  C   UNL     1      -8.212  -1.990 126.469  0.00  0.00    +0.000 A 
ATOM      6  N   UNL     1      -7.758  -1.915 127.806  0.00  0.00    +0.000 N 
ATOM      7  C   UNL     1      -7.980  -2.882 128.775  0.00  0.00    +0.000 C 
ATOM      8  O   UNL     1      -8.631  -3.919 128.628  0.00  0.00    +0.000 OA
ATOM      9  N   UNL     1      -7.910  -0.952 125.658  0.00  0.00    +0.000 NA
ATOM     10  H   UNL     1      -7.222  -1.078 128.010  0.00  0.00    +0.000 HD
ENDROOT
BRANCH   7  11
ATOM     11  C   UNL     1      -7.415  -2.701 130.118  0.00  0.00    +0.000 A 
ATOM     12  C   UNL     1      -7.801  -1.655 130.947  0.00  0.00    +0.000 A 
ATOM     13  F   UNL     1      -8.660  -0.722 130.516  0.00  0.00    +0.000 F 
ATOM     14  C   UNL     1      -7.330  -1.576 132.259  0.00  0.00    +0.000 A 
ATOM     15  C   UNL     1      -6.472  -2.561 132.739  0.00  0.00    +0.000 A 
ATOM     16  F   UNL     1      -6.002  -2.475 133.989  0.00  0.00    +0.000 F 
ATOM     17  C   UNL     1      -6.095  -3.629 131.941  0.00  0.00    +0.000 A 
ATOM     18  C   UNL     1      -6.578  -3.698 130.638  0.00  0.00    +0.000 A 
ATOM     19  F   UNL     1      -6.204  -4.747 129.891  0.00  0.00    +0.000 F 
ENDBRANCH   7  11
BRANCH   1  20
ATOM     20  C   UNL     1      -8.032   0.128 123.483  0.00  0.00    +0.000 C 
ATOM     21  O   UNL     1      -6.869   0.301 123.119  0.00  0.00    +0.000 OA
BRANCH  20  26
ATOM     22  C   UNL     1      -7.844   4.223 125.699  0.00  0.00    +0.000 C 
ATOM     23  N   UNL     1      -8.680   3.510 124.731  0.00  0.00    +0.000 NA
ATOM     24  C   UNL     1      -9.208   2.284 125.355  0.00  0.00    +0.000 C 
ATOM     25  C   UNL     1     -10.022   1.447 124.360  0.00  0.00    +0.000 C 
ATOM     26  C   UNL     1      -9.183   1.099 123.116  0.00  0.00    +0.000 C 
ATOM     27  C   UNL     1      -8.722   2.430 122.513  0.00  0.00    +0.000 C 
ATOM     28  C   UNL     1      -7.888   3.209 123.535  0.00  0.00    +0.000 C 
ENDBRANCH  20  26
ENDBRANCH   1  20
TORSDOF 3
ENDMDL
MODEL 7
REMARK VINA RESULT:      -8.3      6.713      8.593
REMARK  Name = Lasmiditan
REMARK  4 active torsions:
REMARK  status: ('A' for Active; 'I' for Inactive)
REMARK    1  A    between atoms: C_1  and  N_2
REMARK    2  A    between atoms: C_5  and  C_8
REMARK    3  A    between atoms: C_8  and  C_10
REMARK    4  A    between atoms: C_16  and  C_18
REMARK                            x       y       z     vdW  Elec       q    Type
REMARK                         _______ _______ _______ _____ _____    ______ ____
ROOT
ATOM      1  C   UNL     1      -6.634   3.438 132.294  0.00  0.00    +0.000 A 
ATOM      2  C   UNL     1      -7.137   2.144 132.230  0.00  0.00    +0.000 A 
ATOM      3  C   UNL     1      -8.329   1.943 131.577  0.00  0.00    +0.000 A 
ATOM      4  C   UNL     1      -9.012   3.044 131.094  0.00  0.00    +0.000 A 
ATOM      5  C   UNL     1      -8.508   4.331 131.265  0.00  0.00    +0.000 A 
ATOM      6  N   UNL     1      -9.223   5.471 130.832  0.00  0.00    +0.000 N 
ATOM      7  C   UNL     1     -10.461   5.443 130.210  0.00  0.00    +0.000 C 
ATOM      8  O   UNL     1     -11.099   4.431 129.911  0.00  0.00    +0.000 OA
ATOM      9  N   UNL     1      -7.307   4.542 131.850  0.00  0.00    +0.000 NA
ATOM     10  H   UNL     1      -8.753   6.348 131.032  0.00  0.00    +0.000 HD
ENDROOT
BRANCH   7  11
ATOM     11  C   UNL     1     -11.116   6.706 129.848  0.00  0.00    +0.000 A 
ATOM     12  C   UNL     1     -10.893   7.330 128.626  0.00  0.00    +0.000 A 
ATOM     13  F   UNL     1     -10.006   6.832 127.755  0.00  0.00    +0.000 F 
ATOM     14  C   UNL     1     -11.617   8.468 128.267  0.00  0.00    +0.000 A 
ATOM     15  C   UNL     1     -12.575   8.975 129.139  0.00  0.00    +0.000 A 
ATOM     16  F   UNL     1     -13.254  10.079 128.806  0.00  0.00    +0.000 F 
ATOM     17  C   UNL     1     -12.836   8.355 130.351  0.00  0.00    +0.000 A 
ATOM     18  C   UNL     1     -12.112   7.217 130.693  0.00  0.00    +0.000 A 
ATOM     19  F   UNL     1     -12.391   6.632 131.866  0.00  0.00    +0.000 F 
ENDBRANCH   7  11
BRANCH   1  20
ATOM     20  C   UNL     1      -5.289   3.676 132.892  0.00  0.00    +0.000 C 
ATOM     21  O   UNL     1      -5.199   4.493 133.807  0.00  0.00    +0.000 OA
BRANCH  20  26
ATOM     22  C   UNL     1      -2.149   6.467 130.877  0.00  0.00    +0.000 C 
ATOM     23  N   UNL     1      -2.378   5.045 131.142  0.00  0.00    +0.000 NA
ATOM     24  C   UNL     1      -3.620   4.620 130.472  0.00  0.00    +0.000 C 
ATOM     25  C   UNL     1      -3.961   3.159 130.785  0.00  0.00    +0.000 C 
ATOM     26  C   UNL     1      -4.064   2.929 132.304  0.00  0.00    +0.000 C 
ATOM     27  C   UNL     1      -2.718   3.351 132.903  0.00  0.00    +0.000 C 
ATOM     28  C   UNL     1      -2.443   4.825 132.589  0.00  0.00    +0.000 C 
ENDBRANCH  20  26
ENDBRANCH   1  20
TORSDOF 3
ENDMDL
MODEL 8
REMARK VINA RESULT:      -8.3      5.482      7.056
REMARK  Name = Lasmiditan
REMARK  4 active torsions:
REMARK  status: ('A' for Active; 'I' for Inactive)
REMARK    1  A    between atoms: C_1  and  N_2
REMARK    2  A    between atoms: C_5  and  C_8
REMARK    3  A    between atoms: C_8  and  C_10
REMARK    4  A    between atoms: C_16  and  C_18
REMARK                            x       y       z     vdW  Elec       q    Type
REMARK                         _______ _______ _______ _____ _____    ______ ____
ROOT
ATOM      1  C   UNL     1      -7.571  -3.039 129.003  0.00  0.00    +0.000 A 
ATOM      2  C   UNL     1      -8.521  -4.040 128.837  0.00  0.00    +0.000 A 
ATOM      3  C   UNL     1      -9.232  -4.072 127.662  0.00  0.00    +0.000 A 
ATOM      4  C   UNL     1      -9.033  -3.059 126.741  0.00  0.00    +0.000 A 
ATOM      5  C   UNL     1      -8.135  -2.026 126.997  0.00  0.00    +0.000 A 
ATOM      6  N   UNL     1      -7.965  -0.951 126.094  0.00  0.00    +0.000 N 
ATOM      7  C   UNL     1      -8.647  -0.804 124.897  0.00  0.00    +0.000 C 
ATOM      8  O   UNL     1      -9.465  -1.599 124.426  0.00  0.00    +0.000 OA
ATOM      9  N   UNL     1      -7.382  -2.012 128.119  0.00  0.00    +0.000 NA
ATOM     10  H   UNL     1      -7.294  -0.257 126.407  0.00  0.00    +0.000 HD
ENDROOT
BRANCH   7  11
ATOM     11  C   UNL     1      -8.408   0.385 124.070  0.00  0.00    +0.000 A 
ATOM     12  C   UNL     1      -9.317   1.434 124.004  0.00  0.00    +0.000 A 
ATOM     13  F   UNL     1     -10.491   1.363 124.646  0.00  0.00    +0.000 F 
ATOM     14  C   UNL     1      -9.009   2.599 123.299  0.00  0.00    +0.000 A 
ATOM     15  C   UNL     1      -7.777   2.709 122.664  0.00  0.00    +0.000 A 
ATOM     16  F   UNL     1      -7.489   3.816 121.969  0.00  0.00    +0.000 F 
ATOM     17  C   UNL     1      -6.842   1.689 122.738  0.00  0.00    +0.000 A 
ATOM     18  C   UNL     1      -7.160   0.537 123.450  0.00  0.00    +0.000 A 
ATOM     19  F   UNL     1      -6.233  -0.431 123.513  0.00  0.00    +0.000 F 
ENDBRANCH   7  11
BRANCH   1  20
ATOM     20  C   UNL     1      -6.701  -3.043 130.213  0.00  0.00    +0.000 C 
ATOM     21  O   UNL     1      -6.881  -2.166 131.058  0.00  0.00    +0.000 OA
BRANCH  20  26
ATOM     22  C   UNL     1      -2.905  -1.575 132.481  0.00  0.00    +0.000 C 
ATOM     23  N   UNL     1      -3.411  -2.768 131.798  0.00  0.00    +0.000 NA
ATOM     24  C   UNL     1      -3.677  -2.441 130.386  0.00  0.00    +0.000 C 
ATOM     25  C   UNL     1      -4.294  -3.628 129.636  0.00  0.00    +0.000 C 
ATOM     26  C   UNL     1      -5.582  -4.110 130.330  0.00  0.00    +0.000 C 
ATOM     27  C   UNL     1      -5.197  -4.469 131.769  0.00  0.00    +0.000 C 
ATOM     28  C   UNL     1      -4.619  -3.242 132.480  0.00  0.00    +0.000 C 
ENDBRANCH  20  26
ENDBRANCH   1  20
TORSDOF 3
ENDMDL
MODEL 9
REMARK VINA RESULT:      -8.2      7.125      9.302
REMARK  Name = Lasmiditan
REMARK  4 active torsions:
REMARK  status: ('A' for Active; 'I' for Inactive)
REMARK    1  A    between atoms: C_1  and  N_2
REMARK    2  A    between atoms: C_5  and  C_8
REMARK    3  A    between atoms: C_8  and  C_10
REMARK    4  A    between atoms: C_16  and  C_18
REMARK                            x       y       z     vdW  Elec       q    Type
REMARK                         _______ _______ _______ _____ _____    ______ ____
ROOT
ATOM      1  C   UNL     1      -9.736   4.265 131.835  0.00  0.00    +0.000 A 
ATOM      2  C   UNL     1      -9.512   4.814 133.091  0.00  0.00    +0.000 A 
ATOM      3  C   UNL     1      -8.669   4.149 133.950  0.00  0.00    +0.000 A 
ATOM      4  C   UNL     1      -8.157   2.926 133.557  0.00  0.00    +0.000 A 
ATOM      5  C   UNL     1      -8.487   2.374 132.322  0.00  0.00    +0.000 A 
ATOM      6  N   UNL     1      -8.022   1.098 131.930  0.00  0.00    +0.000 N 
ATOM      7  C   UNL     1      -7.214   0.277 132.702  0.00  0.00    +0.000 C 
ATOM      8  O   UNL     1      -6.755   0.549 133.813  0.00  0.00    +0.000 OA
ATOM      9  N   UNL     1      -9.264   3.043 131.439  0.00  0.00    +0.000 NA
ATOM     10  H   UNL     1      -8.348   0.807 131.015  0.00  0.00    +0.000 HD
ENDROOT
BRANCH   7  11
ATOM     11  C   UNL     1      -6.836  -1.047 132.194  0.00  0.00    +0.000 A 
ATOM     12  C   UNL     1      -7.482  -2.208 132.604  0.00  0.00    +0.000 A 
ATOM     13  F   UNL     1      -8.436  -2.165 133.543  0.00  0.00    +0.000 F 
ATOM     14  C   UNL     1      -7.174  -3.437 132.019  0.00  0.00    +0.000 A 
ATOM     15  C   UNL     1      -6.218  -3.496 131.010  0.00  0.00    +0.000 A 
ATOM     16  F   UNL     1      -5.906  -4.677 130.463  0.00  0.00    +0.000 F 
ATOM     17  C   UNL     1      -5.581  -2.350 130.563  0.00  0.00    +0.000 A 
ATOM     18  C   UNL     1      -5.902  -1.130 131.152  0.00  0.00    +0.000 A 
ATOM     19  F   UNL     1      -5.277  -0.035 130.694  0.00  0.00    +0.000 F 
ENDBRANCH   7  11
BRANCH   1  20
ATOM     20  C   UNL     1     -10.550   5.016 130.837  0.00  0.00    +0.000 C 
ATOM     21  O   UNL     1     -11.033   4.390 129.895  0.00  0.00    +0.000 OA
BRANCH  20  26
ATOM     22  C   UNL     1     -12.467   7.131 127.155  0.00  0.00    +0.000 C 
ATOM     23  N   UNL     1     -11.926   7.455 128.477  0.00  0.00    +0.000 NA
ATOM     24  C   UNL     1     -10.506   7.067 128.529  0.00  0.00    +0.000 C 
ATOM     25  C   UNL     1      -9.905   7.299 129.920  0.00  0.00    +0.000 C 
ATOM     26  C   UNL     1     -10.708   6.550 131.000  0.00  0.00    +0.000 C 
ATOM     27  C   UNL     1     -12.151   7.052 130.900  0.00  0.00    +0.000 C 
ATOM     28  C   UNL     1     -12.712   6.765 129.504  0.00  0.00    +0.000 C 
ENDBRANCH  20  26
ENDBRANCH   1  20
TORSDOF 3
ENDMDL
