MODEL 1
REMARK VINA RESULT:      -9.0      0.000      0.000
REMARK  Name = Lasofoxifene
REMARK  7 active torsions:
REMARK  status: ('A' for Active; 'I' for Inactive)
REMARK    1  A    between atoms: C_2  and  C_28
REMARK    2  A    between atoms: C_7  and  O_8
REMARK    3  A    between atoms: C_12  and  C_14
REMARK    4  A    between atoms: C_17  and  O_18
REMARK    5  A    between atoms: O_18  and  C_19
REMARK    6  A    between atoms: C_19  and  C_20
REMARK    7  A    between atoms: C_20  and  N_21
REMARK                            x       y       z     vdW  Elec       q    Type
REMARK                         _______ _______ _______ _____ _____    ______ ____
ROOT
ATOM      1  C   UNL     1      -8.947  -1.941 124.528  0.00  0.00    +0.000 C 
ATOM      2  C   UNL     1      -9.485  -3.142 125.334  0.00  0.00    +0.000 C 
ATOM      3  C   UNL     1      -8.467  -3.518 126.408  0.00  0.00    +0.000 C 
ATOM      4  C   UNL     1      -8.073  -2.314 127.241  0.00  0.00    +0.000 A 
ATOM      5  C   UNL     1      -7.286  -2.553 128.379  0.00  0.00    +0.000 A 
ATOM      6  C   UNL     1      -6.844  -1.485 129.149  0.00  0.00    +0.000 A 
ATOM      7  C   UNL     1      -7.166  -0.180 128.807  0.00  0.00    +0.000 A 
ATOM      8  C   UNL     1      -7.920   0.077 127.662  0.00  0.00    +0.000 A 
ATOM      9  C   UNL     1      -8.343  -0.973 126.832  0.00  0.00    +0.000 A 
ATOM     10  C   UNL     1      -8.981  -0.656 125.451  0.00  0.00    +0.000 C 
ENDROOT
BRANCH  10  11
ATOM     11  C   UNL     1      -8.451   0.635 124.759  0.00  0.00    +0.000 A 
ATOM     12  C   UNL     1      -7.143   1.110 124.895  0.00  0.00    +0.000 A 
ATOM     13  C   UNL     1      -6.610   2.294 124.487  0.00  0.00    +0.000 A 
ATOM     14  C   UNL     1      -7.385   3.038 123.655  0.00  0.00    +0.000 A 
ATOM     15  C   UNL     1      -8.688   2.597 123.365  0.00  0.00    +0.000 A 
ATOM     16  C   UNL     1      -9.251   1.446 123.956  0.00  0.00    +0.000 A 
BRANCH  14  17
ATOM     17  O   UNL     1      -6.674   4.098 123.189  0.00  0.00    +0.000 OA
BRANCH  17  18
ATOM     18  C   UNL     1      -5.466   3.664 122.630  0.00  0.00    +0.000 C 
BRANCH  18  19
ATOM     19  C   UNL     1      -5.575   3.544 121.116  0.00  0.00    +0.000 C 
BRANCH  19  20
ATOM     20  N   UNL     1      -6.222   4.686 120.459  0.00  0.00    +0.000 NA
ATOM     21  C   UNL     1      -7.453   4.363 119.732  0.00  0.00    +0.000 C 
ATOM     22  C   UNL     1      -7.044   4.359 118.272  0.00  0.00    +0.000 C 
ATOM     23  C   UNL     1      -6.136   5.566 118.226  0.00  0.00    +0.000 C 
ATOM     24  C   UNL     1      -5.403   5.520 119.570  0.00  0.00    +0.000 C 
ENDBRANCH  19  20
ENDBRANCH  18  19
ENDBRANCH  17  18
ENDBRANCH  14  17
ENDBRANCH  10  11
BRANCH   1  25
ATOM     25  C   UNL     1      -7.568  -2.353 123.983  0.00  0.00    +0.000 A 
ATOM     26  C   UNL     1      -6.894  -1.635 123.007  0.00  0.00    +0.000 A 
ATOM     27  C   UNL     1      -5.664  -2.117 122.535  0.00  0.00    +0.000 A 
ATOM     28  C   UNL     1      -4.989  -3.147 123.193  0.00  0.00    +0.000 A 
ATOM     29  C   UNL     1      -5.637  -3.826 124.184  0.00  0.00    +0.000 A 
ATOM     30  C   UNL     1      -6.984  -3.573 124.348  0.00  0.00    +0.000 A 
ENDBRANCH   1  25
BRANCH   6  31
ATOM     31  O   UNL     1      -6.079  -1.678 130.262  0.00  0.00    +0.000 OA
ATOM     32  H   UNL     1      -5.559  -2.490 130.143  0.00  0.00    +0.000 HD
ENDBRANCH   6  31
TORSDOF 7
ENDMDL
MODEL 2
REMARK VINA RESULT:      -9.0      8.557     10.956
REMARK  Name = Lasofoxifene
REMARK  7 active torsions:
REMARK  status: ('A' for Active; 'I' for Inactive)
REMARK    1  A    between atoms: C_2  and  C_28
REMARK    2  A    between atoms: C_7  and  O_8
REMARK    3  A    between atoms: C_12  and  C_14
REMARK    4  A    between atoms: C_17  and  O_18
REMARK    5  A    between atoms: O_18  and  C_19
REMARK    6  A    between atoms: C_19  and  C_20
REMARK    7  A    between atoms: C_20  and  N_21
REMARK                            x       y       z     vdW  Elec       q    Type
REMARK                         _______ _______ _______ _____ _____    ______ ____
ROOT
ATOM      1  C   UNL     1      -3.256   4.309 132.115  0.00  0.00    +0.000 C 
ATOM      2  C   UNL     1      -1.867   3.948 132.683  0.00  0.00    +0.000 C 
ATOM      3  C   UNL     1      -0.897   5.090 132.391  0.00  0.00    +0.000 C 
ATOM      4  C   UNL     1      -1.454   6.421 132.858  0.00  0.00    +0.000 A 
ATOM      5  C   UNL     1      -0.589   7.526 132.820  0.00  0.00    +0.000 A 
ATOM      6  C   UNL     1      -1.057   8.783 133.180  0.00  0.00    +0.000 A 
ATOM      7  C   UNL     1      -2.375   8.964 133.575  0.00  0.00    +0.000 A 
ATOM      8  C   UNL     1      -3.256   7.882 133.589  0.00  0.00    +0.000 A 
ATOM      9  C   UNL     1      -2.831   6.607 133.185  0.00  0.00    +0.000 A 
ATOM     10  C   UNL     1      -3.875   5.473 132.991  0.00  0.00    +0.000 C 
ENDROOT
BRANCH  10  11
ATOM     11  C   UNL     1      -5.282   5.943 132.517  0.00  0.00    +0.000 A 
ATOM     12  C   UNL     1      -6.472   5.626 133.179  0.00  0.00    +0.000 A 
ATOM     13  C   UNL     1      -7.758   5.829 132.782  0.00  0.00    +0.000 A 
ATOM     14  C   UNL     1      -7.925   6.628 131.696  0.00  0.00    +0.000 A 
ATOM     15  C   UNL     1      -6.787   7.093 131.013  0.00  0.00    +0.000 A 
ATOM     16  C   UNL     1      -5.477   6.707 131.369  0.00  0.00    +0.000 A 
BRANCH  14  17
ATOM     17  O   UNL     1      -9.247   6.888 131.513  0.00  0.00    +0.000 OA
BRANCH  17  18
ATOM     18  C   UNL     1      -9.506   7.154 130.164  0.00  0.00    +0.000 C 
BRANCH  18  19
ATOM     19  C   UNL     1     -10.654   6.297 129.647  0.00  0.00    +0.000 C 
BRANCH  19  20
ATOM     20  N   UNL     1     -11.974   6.934 129.725  0.00  0.00    +0.000 NA
ATOM     21  C   UNL     1     -12.946   6.462 128.735  0.00  0.00    +0.000 C 
ATOM     22  C   UNL     1     -12.997   7.566 127.696  0.00  0.00    +0.000 C 
ATOM     23  C   UNL     1     -12.975   8.792 128.578  0.00  0.00    +0.000 C 
ATOM     24  C   UNL     1     -12.028   8.403 129.717  0.00  0.00    +0.000 C 
ENDBRANCH  19  20
ENDBRANCH  18  19
ENDBRANCH  17  18
ENDBRANCH  14  17
ENDBRANCH  10  11
BRANCH   1  25
ATOM     25  C   UNL     1      -3.060   4.611 130.620  0.00  0.00    +0.000 A 
ATOM     26  C   UNL     1      -2.517   5.798 130.151  0.00  0.00    +0.000 A 
ATOM     27  C   UNL     1      -2.425   6.005 128.766  0.00  0.00    +0.000 A 
ATOM     28  C   UNL     1      -2.628   4.960 127.863  0.00  0.00    +0.000 A 
ATOM     29  C   UNL     1      -3.122   3.777 128.330  0.00  0.00    +0.000 A 
ATOM     30  C   UNL     1      -3.564   3.748 129.637  0.00  0.00    +0.000 A 
ENDBRANCH   1  25
BRANCH   6  31
ATOM     31  O   UNL     1      -0.246   9.879 133.155  0.00  0.00    +0.000 OA
ATOM     32  H   UNL     1      -0.536  10.494 133.848  0.00  0.00    +0.000 HD
ENDBRANCH   6  31
TORSDOF 7
ENDMDL
MODEL 3
REMARK VINA RESULT:      -8.9      4.362      6.828
REMARK  Name = Lasofoxifene
REMARK  7 active torsions:
REMARK  status: ('A' for Active; 'I' for Inactive)
REMARK    1  A    between atoms: C_2  and  C_28
REMARK    2  A    between atoms: C_7  and  O_8
REMARK    3  A    between atoms: C_12  and  C_14
REMARK    4  A    between atoms: C_17  and  O_18
REMARK    5  A    between atoms: O_18  and  C_19
REMARK    6  A    between atoms: C_19  and  C_20
REMARK    7  A    between atoms: C_20  and  N_21
REMARK                            x       y       z     vdW  Elec       q    Type
REMARK                         _______ _______ _______ _____ _____    ______ ____
ROOT
ATOM      1  C   UNL     1      -8.508   2.622 124.207  0.00  0.00    +0.000 C 
ATOM      2  C   UNL     1      -9.666   1.661 123.865  0.00  0.00    +0.000 C 
ATOM      3  C   UNL     1      -9.121   0.495 123.045  0.00  0.00    +0.000 C 
ATOM      4  C   UNL     1      -7.933  -0.153 123.728  0.00  0.00    +0.000 A 
ATOM      5  C   UNL     1      -7.452  -1.352 123.176  0.00  0.00    +0.000 A 
ATOM      6  C   UNL     1      -6.330  -1.962 123.721  0.00  0.00    +0.000 A 
ATOM      7  C   UNL     1      -5.674  -1.402 124.807  0.00  0.00    +0.000 A 
ATOM      8  C   UNL     1      -6.120  -0.196 125.349  0.00  0.00    +0.000 A 
ATOM      9  C   UNL     1      -7.220   0.475 124.793  0.00  0.00    +0.000 A 
ATOM     10  C   UNL     1      -7.560   1.917 125.261  0.00  0.00    +0.000 C 
ENDROOT
BRANCH  10  11
ATOM     11  C   UNL     1      -6.336   2.780 125.687  0.00  0.00    +0.000 A 
ATOM     12  C   UNL     1      -5.055   2.261 125.903  0.00  0.00    +0.000 A 
ATOM     13  C   UNL     1      -3.958   2.867 126.432  0.00  0.00    +0.000 A 
ATOM     14  C   UNL     1      -4.041   4.215 126.586  0.00  0.00    +0.000 A 
ATOM     15  C   UNL     1      -5.257   4.858 126.296  0.00  0.00    +0.000 A 
ATOM     16  C   UNL     1      -6.419   4.152 125.914  0.00  0.00    +0.000 A 
BRANCH  14  17
ATOM     17  O   UNL     1      -2.831   4.713 126.955  0.00  0.00    +0.000 OA
BRANCH  17  18
ATOM     18  C   UNL     1      -2.884   5.192 128.268  0.00  0.00    +0.000 C 
BRANCH  18  19
ATOM     19  C   UNL     1      -3.059   6.706 128.292  0.00  0.00    +0.000 C 
BRANCH  19  20
ATOM     20  N   UNL     1      -4.172   7.177 129.124  0.00  0.00    +0.000 NA
ATOM     21  C   UNL     1      -3.888   8.381 129.909  0.00  0.00    +0.000 C 
ATOM     22  C   UNL     1      -3.669   7.873 131.321  0.00  0.00    +0.000 C 
ATOM     23  C   UNL     1      -4.765   6.839 131.427  0.00  0.00    +0.000 C 
ATOM     24  C   UNL     1      -4.809   6.211 130.030  0.00  0.00    +0.000 C 
ENDBRANCH  19  20
ENDBRANCH  18  19
ENDBRANCH  17  18
ENDBRANCH  14  17
ENDBRANCH  10  11
BRANCH   1  25
ATOM     25  C   UNL     1      -7.859   3.029 122.872  0.00  0.00    +0.000 A 
ATOM     26  C   UNL     1      -8.591   3.431 121.765  0.00  0.00    +0.000 A 
ATOM     27  C   UNL     1      -7.913   3.734 120.574  0.00  0.00    +0.000 A 
ATOM     28  C   UNL     1      -6.526   3.885 120.549  0.00  0.00    +0.000 A 
ATOM     29  C   UNL     1      -5.808   3.530 121.654  0.00  0.00    +0.000 A 
ATOM     30  C   UNL     1      -6.483   2.871 122.662  0.00  0.00    +0.000 A 
ENDBRANCH   1  25
BRANCH   6  31
ATOM     31  O   UNL     1      -5.834  -3.126 123.211  0.00  0.00    +0.000 OA
ATOM     32  H   UNL     1      -5.793  -3.048 122.244  0.00  0.00    +0.000 HD
ENDBRANCH   6  31
TORSDOF 7
ENDMDL
MODEL 4
REMARK VINA RESULT:      -8.8      8.279     10.555
REMARK  Name = Lasofoxifene
REMARK  7 active torsions:
REMARK  status: ('A' for Active; 'I' for Inactive)
REMARK    1  A    between atoms: C_2  and  C_28
REMARK    2  A    between atoms: C_7  and  O_8
REMARK    3  A    between atoms: C_12  and  C_14
REMARK    4  A    between atoms: C_17  and  O_18
REMARK    5  A    between atoms: O_18  and  C_19
REMARK    6  A    between atoms: C_19  and  C_20
REMARK    7  A    between atoms: C_20  and  N_21
REMARK                            x       y       z     vdW  Elec       q    Type
REMARK                         _______ _______ _______ _____ _____    ______ ____
ROOT
ATOM      1  C   UNL     1      -3.726   5.005 133.629  0.00  0.00    +0.000 C 
ATOM      2  C   UNL     1      -2.208   5.279 133.657  0.00  0.00    +0.000 C 
ATOM      3  C   UNL     1      -1.659   5.192 132.235  0.00  0.00    +0.000 C 
ATOM      4  C   UNL     1      -2.450   6.068 131.284  0.00  0.00    +0.000 A 
ATOM      5  C   UNL     1      -1.940   6.226 129.985  0.00  0.00    +0.000 A 
ATOM      6  C   UNL     1      -2.649   6.969 129.050  0.00  0.00    +0.000 A 
ATOM      7  C   UNL     1      -3.861   7.557 129.380  0.00  0.00    +0.000 A 
ATOM      8  C   UNL     1      -4.398   7.384 130.657  0.00  0.00    +0.000 A 
ATOM      9  C   UNL     1      -3.733   6.599 131.612  0.00  0.00    +0.000 A 
ATOM     10  C   UNL     1      -4.450   6.233 132.942  0.00  0.00    +0.000 C 
ENDROOT
BRANCH  10  11
ATOM     11  C   UNL     1      -5.996   6.081 132.839  0.00  0.00    +0.000 A 
ATOM     12  C   UNL     1      -6.733   6.383 131.690  0.00  0.00    +0.000 A 
ATOM     13  C   UNL     1      -8.083   6.453 131.526  0.00  0.00    +0.000 A 
ATOM     14  C   UNL     1      -8.831   5.966 132.551  0.00  0.00    +0.000 A 
ATOM     15  C   UNL     1      -8.181   5.533 133.720  0.00  0.00    +0.000 A 
ATOM     16  C   UNL     1      -6.786   5.646 133.901  0.00  0.00    +0.000 A 
BRANCH  14  17
ATOM     17  O   UNL     1     -10.141   5.935 132.191  0.00  0.00    +0.000 OA
BRANCH  17  18
ATOM     18  C   UNL     1     -10.279   5.385 130.911  0.00  0.00    +0.000 C 
BRANCH  18  19
ATOM     19  C   UNL     1     -11.649   5.700 130.324  0.00  0.00    +0.000 C 
BRANCH  19  20
ATOM     20  N   UNL     1     -11.622   6.181 128.938  0.00  0.00    +0.000 NA
ATOM     21  C   UNL     1     -10.382   6.857 128.544  0.00  0.00    +0.000 C 
ATOM     22  C   UNL     1     -10.733   8.332 128.552  0.00  0.00    +0.000 C 
ATOM     23  C   UNL     1     -12.106   8.303 127.923  0.00  0.00    +0.000 C 
ATOM     24  C   UNL     1     -12.736   7.024 128.483  0.00  0.00    +0.000 C 
ENDBRANCH  19  20
ENDBRANCH  18  19
ENDBRANCH  17  18
ENDBRANCH  14  17
ENDBRANCH  10  11
BRANCH   1  25
ATOM     25  C   UNL     1      -3.918   3.636 132.955  0.00  0.00    +0.000 A 
ATOM     26  C   UNL     1      -4.647   3.461 131.788  0.00  0.00    +0.000 A 
ATOM     27  C   UNL     1      -4.811   2.165 131.275  0.00  0.00    +0.000 A 
ATOM     28  C   UNL     1      -4.058   1.094 131.759  0.00  0.00    +0.000 A 
ATOM     29  C   UNL     1      -3.306   1.277 132.884  0.00  0.00    +0.000 A 
ATOM     30  C   UNL     1      -3.482   2.458 133.576  0.00  0.00    +0.000 A 
ENDBRANCH   1  25
BRANCH   6  31
ATOM     31  O   UNL     1      -2.185   7.144 127.779  0.00  0.00    +0.000 OA
ATOM     32  H   UNL     1      -2.172   6.281 127.333  0.00  0.00    +0.000 HD
ENDBRANCH   6  31
TORSDOF 7
ENDMDL
MODEL 5
REMARK VINA RESULT:      -8.7      2.472      3.697
REMARK  Name = Lasofoxifene
REMARK  7 active torsions:
REMARK  status: ('A' for Active; 'I' for Inactive)
REMARK    1  A    between atoms: C_2  and  C_28
REMARK    2  A    between atoms: C_7  and  O_8
REMARK    3  A    between atoms: C_12  and  C_14
REMARK    4  A    between atoms: C_17  and  O_18
REMARK    5  A    between atoms: O_18  and  C_19
REMARK    6  A    between atoms: C_19  and  C_20
REMARK    7  A    between atoms: C_20  and  N_21
REMARK                            x       y       z     vdW  Elec       q    Type
REMARK                         _______ _______ _______ _____ _____    ______ ____
ROOT
ATOM      1  C   UNL     1      -8.351  -2.003 127.828  0.00  0.00    +0.000 C 
ATOM      2  C   UNL     1      -8.487  -3.228 128.756  0.00  0.00    +0.000 C 
ATOM      3  C   UNL     1      -7.101  -3.813 129.017  0.00  0.00    +0.000 C 
ATOM      4  C   UNL     1      -6.135  -2.748 129.499  0.00  0.00    +0.000 A 
ATOM      5  C   UNL     1      -4.879  -3.182 129.953  0.00  0.00    +0.000 A 
ATOM      6  C   UNL     1      -3.929  -2.251 130.352  0.00  0.00    +0.000 A 
ATOM      7  C   UNL     1      -4.204  -0.892 130.306  0.00  0.00    +0.000 A 
ATOM      8  C   UNL     1      -5.435  -0.442 129.829  0.00  0.00    +0.000 A 
ATOM      9  C   UNL     1      -6.401  -1.352 129.371  0.00  0.00    +0.000 A 
ATOM     10  C   UNL     1      -7.666  -0.828 128.637  0.00  0.00    +0.000 C 
ENDROOT
BRANCH  10  11
ATOM     11  C   UNL     1      -7.459   0.474 127.809  0.00  0.00    +0.000 A 
ATOM     12  C   UNL     1      -6.316   0.738 127.047  0.00  0.00    +0.000 A 
ATOM     13  C   UNL     1      -5.943   1.889 126.423  0.00  0.00    +0.000 A 
ATOM     14  C   UNL     1      -6.893   2.858 126.349  0.00  0.00    +0.000 A 
ATOM     15  C   UNL     1      -8.126   2.652 126.994  0.00  0.00    +0.000 A 
ATOM     16  C   UNL     1      -8.394   1.507 127.774  0.00  0.00    +0.000 A 
BRANCH  14  17
ATOM     17  O   UNL     1      -6.455   3.874 125.559  0.00  0.00    +0.000 OA
BRANCH  17  18
ATOM     18  C   UNL     1      -6.323   3.437 124.236  0.00  0.00    +0.000 C 
BRANCH  18  19
ATOM     19  C   UNL     1      -7.667   3.449 123.519  0.00  0.00    +0.000 C 
BRANCH  19  20
ATOM     20  N   UNL     1      -8.041   2.171 122.902  0.00  0.00    +0.000 NA
ATOM     21  C   UNL     1      -9.393   1.706 123.220  0.00  0.00    +0.000 C 
ATOM     22  C   UNL     1      -9.187   0.610 124.248  0.00  0.00    +0.000 C 
ATOM     23  C   UNL     1      -7.988  -0.104 123.670  0.00  0.00    +0.000 C 
ATOM     24  C   UNL     1      -7.136   1.029 123.090  0.00  0.00    +0.000 C 
ENDBRANCH  19  20
ENDBRANCH  18  19
ENDBRANCH  17  18
ENDBRANCH  14  17
ENDBRANCH  10  11
BRANCH   1  25
ATOM     25  C   UNL     1      -7.614  -2.481 126.565  0.00  0.00    +0.000 A 
ATOM     26  C   UNL     1      -6.285  -2.184 126.305  0.00  0.00    +0.000 A 
ATOM     27  C   UNL     1      -5.712  -2.621 125.101  0.00  0.00    +0.000 A 
ATOM     28  C   UNL     1      -6.360  -3.551 124.286  0.00  0.00    +0.000 A 
ATOM     29  C   UNL     1      -7.655  -3.878 124.567  0.00  0.00    +0.000 A 
ATOM     30  C   UNL     1      -8.301  -3.129 125.530  0.00  0.00    +0.000 A 
ENDBRANCH   1  25
BRANCH   6  31
ATOM     31  O   UNL     1      -2.699  -2.635 130.798  0.00  0.00    +0.000 OA
ATOM     32  H   UNL     1      -2.746  -2.769 131.759  0.00  0.00    +0.000 HD
ENDBRANCH   6  31
TORSDOF 7
ENDMDL
MODEL 6
REMARK VINA RESULT:      -8.7      3.427      4.853
REMARK  Name = Lasofoxifene
REMARK  7 active torsions:
REMARK  status: ('A' for Active; 'I' for Inactive)
REMARK    1  A    between atoms: C_2  and  C_28
REMARK    2  A    between atoms: C_7  and  O_8
REMARK    3  A    between atoms: C_12  and  C_14
REMARK    4  A    between atoms: C_17  and  O_18
REMARK    5  A    between atoms: O_18  and  C_19
REMARK    6  A    between atoms: C_19  and  C_20
REMARK    7  A    between atoms: C_20  and  N_21
REMARK                            x       y       z     vdW  Elec       q    Type
REMARK                         _______ _______ _______ _____ _____    ______ ____
ROOT
ATOM      1  C   UNL     1      -8.433  -1.562 125.231  0.00  0.00    +0.000 C 
ATOM      2  C   UNL     1      -9.460  -2.638 125.641  0.00  0.00    +0.000 C 
ATOM      3  C   UNL     1      -8.819  -3.577 126.660  0.00  0.00    +0.000 C 
ATOM      4  C   UNL     1      -8.206  -2.805 127.812  0.00  0.00    +0.000 A 
ATOM      5  C   UNL     1      -7.747  -3.551 128.910  0.00  0.00    +0.000 A 
ATOM      6  C   UNL     1      -7.122  -2.907 129.970  0.00  0.00    +0.000 A 
ATOM      7  C   UNL     1      -6.942  -1.532 129.959  0.00  0.00    +0.000 A 
ATOM      8  C   UNL     1      -7.363  -0.780 128.862  0.00  0.00    +0.000 A 
ATOM      9  C   UNL     1      -7.954  -1.402 127.751  0.00  0.00    +0.000 A 
ATOM     10  C   UNL     1      -8.208  -0.584 126.455  0.00  0.00    +0.000 C 
ENDROOT
BRANCH  10  11
ATOM     11  C   UNL     1      -7.179   0.551 126.177  0.00  0.00    +0.000 A 
ATOM     12  C   UNL     1      -5.863   0.542 126.651  0.00  0.00    +0.000 A 
ATOM     13  C   UNL     1      -4.930   1.533 126.622  0.00  0.00    +0.000 A 
ATOM     14  C   UNL     1      -5.233   2.610 125.850  0.00  0.00    +0.000 A 
ATOM     15  C   UNL     1      -6.496   2.673 125.236  0.00  0.00    +0.000 A 
ATOM     16  C   UNL     1      -7.492   1.693 125.443  0.00  0.00    +0.000 A 
BRANCH  14  17
ATOM     17  O   UNL     1      -4.157   3.436 125.770  0.00  0.00    +0.000 OA
BRANCH  17  18
ATOM     18  C   UNL     1      -3.079   2.900 126.485  0.00  0.00    +0.000 C 
BRANCH  18  19
ATOM     19  C   UNL     1      -2.305   3.992 127.211  0.00  0.00    +0.000 C 
BRANCH  19  20
ATOM     20  N   UNL     1      -3.119   4.830 128.098  0.00  0.00    +0.000 NA
ATOM     21  C   UNL     1      -2.752   6.248 128.117  0.00  0.00    +0.000 C 
ATOM     22  C   UNL     1      -1.995   6.429 129.418  0.00  0.00    +0.000 C 
ATOM     23  C   UNL     1      -2.836   5.596 130.357  0.00  0.00    +0.000 C 
ATOM     24  C   UNL     1      -3.268   4.404 129.497  0.00  0.00    +0.000 C 
ENDBRANCH  19  20
ENDBRANCH  18  19
ENDBRANCH  17  18
ENDBRANCH  14  17
ENDBRANCH  10  11
BRANCH   1  25
ATOM     25  C   UNL     1      -7.190  -2.308 124.716  0.00  0.00    +0.000 A 
ATOM     26  C   UNL     1      -5.990  -1.674 124.429  0.00  0.00    +0.000 A 
ATOM     27  C   UNL     1      -4.926  -2.430 123.915  0.00  0.00    +0.000 A 
ATOM     28  C   UNL     1      -4.959  -3.826 123.923  0.00  0.00    +0.000 A 
ATOM     29  C   UNL     1      -6.127  -4.452 124.248  0.00  0.00    +0.000 A 
ATOM     30  C   UNL     1      -7.254  -3.664 124.368  0.00  0.00    +0.000 A 
ENDBRANCH   1  25
BRANCH   6  31
ATOM     31  O   UNL     1      -6.664  -3.598 131.053  0.00  0.00    +0.000 OA
ATOM     32  H   UNL     1      -5.698  -3.676 130.985  0.00  0.00    +0.000 HD
ENDBRANCH   6  31
TORSDOF 7
ENDMDL
MODEL 7
REMARK VINA RESULT:      -8.5      7.932     10.749
REMARK  Name = Lasofoxifene
REMARK  7 active torsions:
REMARK  status: ('A' for Active; 'I' for Inactive)
REMARK    1  A    between atoms: C_2  and  C_28
REMARK    2  A    between atoms: C_7  and  O_8
REMARK    3  A    between atoms: C_12  and  C_14
REMARK    4  A    between atoms: C_17  and  O_18
REMARK    5  A    between atoms: O_18  and  C_19
REMARK    6  A    between atoms: C_19  and  C_20
REMARK    7  A    between atoms: C_20  and  N_21
REMARK                            x       y       z     vdW  Elec       q    Type
REMARK                         _______ _______ _______ _____ _____    ______ ____
ROOT
ATOM      1  C   UNL     1      -3.176   4.196 132.135  0.00  0.00    +0.000 C 
ATOM      2  C   UNL     1      -1.739   3.921 132.626  0.00  0.00    +0.000 C 
ATOM      3  C   UNL     1      -0.866   5.134 132.316  0.00  0.00    +0.000 C 
ATOM      4  C   UNL     1      -1.488   6.411 132.843  0.00  0.00    +0.000 A 
ATOM      5  C   UNL     1      -0.704   7.575 132.791  0.00  0.00    +0.000 A 
ATOM      6  C   UNL     1      -1.239   8.788 133.205  0.00  0.00    +0.000 A 
ATOM      7  C   UNL     1      -2.544   8.868 133.668  0.00  0.00    +0.000 A 
ATOM      8  C   UNL     1      -3.347   7.728 133.697  0.00  0.00    +0.000 A 
ATOM      9  C   UNL     1      -2.856   6.494 133.241  0.00  0.00    +0.000 A 
ATOM     10  C   UNL     1      -3.829   5.294 133.069  0.00  0.00    +0.000 C 
ENDROOT
BRANCH  10  11
ATOM     11  C   UNL     1      -5.286   5.676 132.676  0.00  0.00    +0.000 A 
ATOM     12  C   UNL     1      -5.620   6.378 131.513  0.00  0.00    +0.000 A 
ATOM     13  C   UNL     1      -6.816   6.911 131.143  0.00  0.00    +0.000 A 
ATOM     14  C   UNL     1      -7.888   6.545 131.895  0.00  0.00    +0.000 A 
ATOM     15  C   UNL     1      -7.678   5.747 133.033  0.00  0.00    +0.000 A 
ATOM     16  C   UNL     1      -6.390   5.365 133.468  0.00  0.00    +0.000 A 
BRANCH  14  17
ATOM     17  O   UNL     1      -9.032   7.001 131.321  0.00  0.00    +0.000 OA
BRANCH  17  18
ATOM     18  C   UNL     1      -9.162   6.489 130.025  0.00  0.00    +0.000 C 
BRANCH  18  19
ATOM     19  C   UNL     1      -9.959   5.191 130.027  0.00  0.00    +0.000 C 
BRANCH  19  20
ATOM     20  N   UNL     1      -9.276   4.055 129.397  0.00  0.00    +0.000 NA
ATOM     21  C   UNL     1      -9.010   2.924 130.290  0.00  0.00    +0.000 C 
ATOM     22  C   UNL     1      -7.531   3.029 130.608  0.00  0.00    +0.000 C 
ATOM     23  C   UNL     1      -6.972   3.394 129.253  0.00  0.00    +0.000 C 
ATOM     24  C   UNL     1      -8.034   4.325 128.660  0.00  0.00    +0.000 C 
ENDBRANCH  19  20
ENDBRANCH  18  19
ENDBRANCH  17  18
ENDBRANCH  14  17
ENDBRANCH  10  11
BRANCH   1  25
ATOM     25  C   UNL     1      -3.077   4.544 130.640  0.00  0.00    +0.000 A 
ATOM     26  C   UNL     1      -2.681   5.790 130.176  0.00  0.00    +0.000 A 
ATOM     27  C   UNL     1      -2.671   6.030 128.794  0.00  0.00    +0.000 A 
ATOM     28  C   UNL     1      -2.801   4.986 127.876  0.00  0.00    +0.000 A 
ATOM     29  C   UNL     1      -3.148   3.749 128.336  0.00  0.00    +0.000 A 
ATOM     30  C   UNL     1      -3.529   3.650 129.659  0.00  0.00    +0.000 A 
ENDBRANCH   1  25
BRANCH   6  31
ATOM     31  O   UNL     1      -0.507   9.938 133.169  0.00  0.00    +0.000 OA
ATOM     32  H   UNL     1      -0.432  10.229 132.245  0.00  0.00    +0.000 HD
ENDBRANCH   6  31
TORSDOF 7
ENDMDL
MODEL 8
REMARK VINA RESULT:      -8.5      3.698      6.813
REMARK  Name = Lasofoxifene
REMARK  7 active torsions:
REMARK  status: ('A' for Active; 'I' for Inactive)
REMARK    1  A    between atoms: C_2  and  C_28
REMARK    2  A    between atoms: C_7  and  O_8
REMARK    3  A    between atoms: C_12  and  C_14
REMARK    4  A    between atoms: C_17  and  O_18
REMARK    5  A    between atoms: O_18  and  C_19
REMARK    6  A    between atoms: C_19  and  C_20
REMARK    7  A    between atoms: C_20  and  N_21
REMARK                            x       y       z     vdW  Elec       q    Type
REMARK                         _______ _______ _______ _____ _____    ______ ____
ROOT
ATOM      1  C   UNL     1      -8.303   2.527 124.388  0.00  0.00    +0.000 C 
ATOM      2  C   UNL     1      -9.424   1.571 123.929  0.00  0.00    +0.000 C 
ATOM      3  C   UNL     1      -8.819   0.475 123.055  0.00  0.00    +0.000 C 
ATOM      4  C   UNL     1      -7.649  -0.197 123.745  0.00  0.00    +0.000 A 
ATOM      5  C   UNL     1      -7.118  -1.345 123.133  0.00  0.00    +0.000 A 
ATOM      6  C   UNL     1      -6.008  -1.971 123.685  0.00  0.00    +0.000 A 
ATOM      7  C   UNL     1      -5.412  -1.476 124.836  0.00  0.00    +0.000 A 
ATOM      8  C   UNL     1      -5.907  -0.319 125.438  0.00  0.00    +0.000 A 
ATOM      9  C   UNL     1      -6.996   0.368 124.881  0.00  0.00    +0.000 A 
ATOM     10  C   UNL     1      -7.387   1.768 125.432  0.00  0.00    +0.000 C 
ENDROOT
BRANCH  10  11
ATOM     11  C   UNL     1      -6.201   2.621 125.972  0.00  0.00    +0.000 A 
ATOM     12  C   UNL     1      -6.334   3.934 126.435  0.00  0.00    +0.000 A 
ATOM     13  C   UNL     1      -5.367   4.831 126.769  0.00  0.00    +0.000 A 
ATOM     14  C   UNL     1      -4.106   4.335 126.868  0.00  0.00    +0.000 A 
ATOM     15  C   UNL     1      -3.876   2.991 126.526  0.00  0.00    +0.000 A 
ATOM     16  C   UNL     1      -4.891   2.151 126.018  0.00  0.00    +0.000 A 
BRANCH  14  17
ATOM     17  O   UNL     1      -3.275   5.285 127.372  0.00  0.00    +0.000 OA
BRANCH  17  18
ATOM     18  C   UNL     1      -3.690   5.660 128.655  0.00  0.00    +0.000 C 
BRANCH  18  19
ATOM     19  C   UNL     1      -3.123   4.718 129.710  0.00  0.00    +0.000 C 
BRANCH  19  20
ATOM     20  N   UNL     1      -4.129   4.118 130.594  0.00  0.00    +0.000 NA
ATOM     21  C   UNL     1      -4.156   2.653 130.592  0.00  0.00    +0.000 C 
ATOM     22  C   UNL     1      -5.366   2.295 129.752  0.00  0.00    +0.000 C 
ATOM     23  C   UNL     1      -6.365   3.318 130.239  0.00  0.00    +0.000 C 
ATOM     24  C   UNL     1      -5.519   4.575 130.461  0.00  0.00    +0.000 C 
ENDBRANCH  19  20
ENDBRANCH  18  19
ENDBRANCH  17  18
ENDBRANCH  14  17
ENDBRANCH  10  11
BRANCH   1  25
ATOM     25  C   UNL     1      -7.606   3.038 123.115  0.00  0.00    +0.000 A 
ATOM     26  C   UNL     1      -6.234   3.221 123.023  0.00  0.00    +0.000 A 
ATOM     27  C   UNL     1      -5.694   3.742 121.837  0.00  0.00    +0.000 A 
ATOM     28  C   UNL     1      -6.460   3.839 120.675  0.00  0.00    +0.000 A 
ATOM     29  C   UNL     1      -7.805   3.616 120.755  0.00  0.00    +0.000 A 
ATOM     30  C   UNL     1      -8.350   3.489 122.017  0.00  0.00    +0.000 A 
ENDBRANCH   1  25
BRANCH   6  31
ATOM     31  O   UNL     1      -5.466  -3.087 123.119  0.00  0.00    +0.000 OA
ATOM     32  H   UNL     1      -5.178  -3.685 123.828  0.00  0.00    +0.000 HD
ENDBRANCH   6  31
TORSDOF 7
ENDMDL
MODEL 9
REMARK VINA RESULT:      -8.5      4.671      8.852
REMARK  Name = Lasofoxifene
REMARK  7 active torsions:
REMARK  status: ('A' for Active; 'I' for Inactive)
REMARK    1  A    between atoms: C_2  and  C_28
REMARK    2  A    between atoms: C_7  and  O_8
REMARK    3  A    between atoms: C_12  and  C_14
REMARK    4  A    between atoms: C_17  and  O_18
REMARK    5  A    between atoms: O_18  and  C_19
REMARK    6  A    between atoms: C_19  and  C_20
REMARK    7  A    between atoms: C_20  and  N_21
REMARK                            x       y       z     vdW  Elec       q    Type
REMARK                         _______ _______ _______ _____ _____    ______ ____
ROOT
ATOM      1  C   UNL     1      -5.698  -1.382 126.059  0.00  0.00    +0.000 C 
ATOM      2  C   UNL     1      -5.737  -0.096 125.208  0.00  0.00    +0.000 C 
ATOM      3  C   UNL     1      -7.030   0.660 125.505  0.00  0.00    +0.000 C 
ATOM      4  C   UNL     1      -7.215   0.872 126.995  0.00  0.00    +0.000 A 
ATOM      5  C   UNL     1      -8.266   1.713 127.396  0.00  0.00    +0.000 A 
ATOM      6  C   UNL     1      -8.524   1.899 128.748  0.00  0.00    +0.000 A 
ATOM      7  C   UNL     1      -7.756   1.263 129.712  0.00  0.00    +0.000 A 
ATOM      8  C   UNL     1      -6.729   0.400 129.331  0.00  0.00    +0.000 A 
ATOM      9  C   UNL     1      -6.471   0.148 127.974  0.00  0.00    +0.000 A 
ATOM     10  C   UNL     1      -5.481  -0.981 127.574  0.00  0.00    +0.000 C 
ENDROOT
BRANCH  10  11
ATOM     11  C   UNL     1      -5.433  -2.194 128.550  0.00  0.00    +0.000 A 
ATOM     12  C   UNL     1      -6.559  -2.727 129.185  0.00  0.00    +0.000 A 
ATOM     13  C   UNL     1      -6.629  -3.661 130.172  0.00  0.00    +0.000 A 
ATOM     14  C   UNL     1      -5.474  -4.323 130.446  0.00  0.00    +0.000 A 
ATOM     15  C   UNL     1      -4.296  -3.937 129.783  0.00  0.00    +0.000 A 
ATOM     16  C   UNL     1      -4.248  -2.843 128.893  0.00  0.00    +0.000 A 
BRANCH  14  17
ATOM     17  O   UNL     1      -5.719  -5.337 131.318  0.00  0.00    +0.000 OA
BRANCH  17  18
ATOM     18  C   UNL     1      -4.942  -5.182 132.472  0.00  0.00    +0.000 C 
BRANCH  18  19
ATOM     19  C   UNL     1      -5.613  -4.240 133.463  0.00  0.00    +0.000 C 
BRANCH  19  20
ATOM     20  N   UNL     1      -4.813  -3.064 133.824  0.00  0.00    +0.000 NA
ATOM     21  C   UNL     1      -5.475  -1.776 133.602  0.00  0.00    +0.000 C 
ATOM     22  C   UNL     1      -4.838  -1.234 132.337  0.00  0.00    +0.000 C 
ATOM     23  C   UNL     1      -3.390  -1.593 132.569  0.00  0.00    +0.000 C 
ATOM     24  C   UNL     1      -3.460  -2.957 133.262  0.00  0.00    +0.000 C 
ENDBRANCH  19  20
ENDBRANCH  18  19
ENDBRANCH  17  18
ENDBRANCH  14  17
ENDBRANCH  10  11
BRANCH   1  25
ATOM     25  C   UNL     1      -6.982  -2.167 125.738  0.00  0.00    +0.000 A 
ATOM     26  C   UNL     1      -8.025  -2.315 126.640  0.00  0.00    +0.000 A 
ATOM     27  C   UNL     1      -9.135  -3.093 126.276  0.00  0.00    +0.000 A 
ATOM     28  C   UNL     1      -9.329  -3.504 124.956  0.00  0.00    +0.000 A 
ATOM     29  C   UNL     1      -8.320  -3.319 124.057  0.00  0.00    +0.000 A 
ATOM     30  C   UNL     1      -7.100  -2.904 124.552  0.00  0.00    +0.000 A 
ENDBRANCH   1  25
BRANCH   6  31
ATOM     31  O   UNL     1      -9.535   2.709 129.175  0.00  0.00    +0.000 OA
ATOM     32  H   UNL     1      -9.157   3.562 129.443  0.00  0.00    +0.000 HD
ENDBRANCH   6  31
TORSDOF 7
ENDMDL
