MODEL 1
REMARK VINA RESULT:      -6.7      0.000      0.000
REMARK  Name = Latanoprostene bunod
REMARK  22 active torsions:
REMARK  status: ('A' for Active; 'I' for Inactive)
REMARK    1  A    between atoms: O_1  and  C_2
REMARK    2  A    between atoms: C_2  and  C_3
REMARK    3  A    between atoms: C_2  and  C_29
REMARK    4  A    between atoms: C_3  and  C_4
REMARK    5  A    between atoms: C_4  and  C_5
REMARK    6  A    between atoms: C_6  and  O_7
REMARK    7  A    between atoms: C_9  and  O_10
REMARK    8  A    between atoms: C_11  and  C_12
REMARK    9  A    between atoms: C_12  and  C_13
REMARK   10  A    between atoms: C_14  and  C_15
REMARK   11  A    between atoms: C_15  and  C_16
REMARK   12  A    between atoms: C_16  and  C_17
REMARK   13  A    between atoms: C_17  and  C_18
REMARK   14  A    between atoms: C_18  and  O_20
REMARK   15  A    between atoms: O_20  and  C_21
REMARK   16  A    between atoms: C_21  and  C_22
REMARK   17  A    between atoms: C_22  and  C_23
REMARK   18  A    between atoms: C_23  and  C_24
REMARK   19  A    between atoms: C_24  and  O_25
REMARK   20  A    between atoms: O_25  and  N_26
REMARK   21  A    between atoms: C_29  and  C_30
REMARK   22  A    between atoms: C_30  and  C_31
REMARK                            x       y       z     vdW  Elec       q    Type
REMARK                         _______ _______ _______ _____ _____    ______ ____
ROOT
ATOM      1  C   UNL     1      -4.029   7.172 131.224  0.00  0.00    +0.000 C 
ATOM      2  C   UNL     1      -3.406   7.350 129.834  0.00  0.00    +0.000 C 
ATOM      3  C   UNL     1      -3.189   5.940 129.260  0.00  0.00    +0.000 C 
ATOM      4  C   UNL     1      -3.676   4.946 130.317  0.00  0.00    +0.000 C 
ATOM      5  C   UNL     1      -4.641   5.751 131.201  0.00  0.00    +0.000 C 
ENDROOT
BRANCH   2   6
ATOM      6  O   UNL     1      -4.247   8.114 128.976  0.00  0.00    +0.000 OA
ATOM      7  H   UNL     1      -4.814   7.524 128.457  0.00  0.00    +0.000 HD
ENDBRANCH   2   6
BRANCH   4   8
ATOM      8  O   UNL     1      -4.222   3.761 129.765  0.00  0.00    +0.000 OA
ATOM      9  H   UNL     1      -5.190   3.799 129.805  0.00  0.00    +0.000 HD
ENDBRANCH   4   8
BRANCH   5  10
ATOM     10  C   UNL     1      -6.047   5.748 130.602  0.00  0.00    +0.000 C 
BRANCH  10  11
ATOM     11  C   UNL     1      -6.978   6.736 131.233  0.00  0.00    +0.000 C 
ATOM     12  C   UNL     1      -8.307   6.605 131.128  0.00  0.00    +0.000 C 
BRANCH  12  13
ATOM     13  C   UNL     1      -8.940   5.464 130.381  0.00  0.00    +0.000 C 
BRANCH  13  14
ATOM     14  C   UNL     1     -10.413   5.323 130.719  0.00  0.00    +0.000 C 
BRANCH  14  15
ATOM     15  C   UNL     1     -10.883   6.396 131.706  0.00  0.00    +0.000 C 
BRANCH  15  16
ATOM     16  C   UNL     1     -12.116   7.085 131.160  0.00  0.00    +0.000 C 
ATOM     17  O   UNL     1     -13.226   7.014 131.673  0.00  0.00    +0.000 OA
BRANCH  16  18
ATOM     18  O   UNL     1     -11.840   7.798 130.027  0.00  0.00    +0.000 OA
BRANCH  18  19
ATOM     19  C   UNL     1     -12.665   8.972 129.881  0.00  0.00    +0.000 C 
BRANCH  19  20
ATOM     20  C   UNL     1     -13.379   8.947 128.527  0.00  0.00    +0.000 C 
BRANCH  20  21
ATOM     21  C   UNL     1     -13.250   7.587 127.836  0.00  0.00    +0.000 C 
BRANCH  21  22
ATOM     22  C   UNL     1     -12.429   7.666 126.544  0.00  0.00    +0.000 C 
BRANCH  22  23
ATOM     23  O   UNL     1     -11.600   6.506 126.483  0.00  0.00    +0.000 OA
BRANCH  23  24
ATOM     24  N   UNL     1     -10.239   6.778 126.766  0.00  0.00    +0.000 N 
ATOM     25  O   UNL     1      -9.400   5.993 126.306  0.00  0.00    +0.000 OA
ATOM     26  O   UNL     1     -10.082   7.784 127.446  0.00  0.00    +0.000 OA
ENDBRANCH  23  24
ENDBRANCH  22  23
ENDBRANCH  21  22
ENDBRANCH  20  21
ENDBRANCH  19  20
ENDBRANCH  18  19
ENDBRANCH  16  18
ENDBRANCH  15  16
ENDBRANCH  14  15
ENDBRANCH  13  14
ENDBRANCH  12  13
ENDBRANCH  10  11
ENDBRANCH   5  10
BRANCH   1  27
ATOM     27  C   UNL     1      -2.994   7.356 132.339  0.00  0.00    +0.000 C 
BRANCH  27  28
ATOM     28  C   UNL     1      -3.492   7.059 133.748  0.00  0.00    +0.000 C 
BRANCH  28  29
ATOM     29  C   UNL     1      -2.934   5.781 134.349  0.00  0.00    +0.000 C 
BRANCH  29  30
ATOM     30  O   UNL     1      -2.181   6.095 135.512  0.00  0.00    +0.000 OA
ATOM     31  H   UNL     1      -2.623   6.812 135.991  0.00  0.00    +0.000 HD
ENDBRANCH  29  30
BRANCH  29  32
ATOM     32  C   UNL     1      -4.097   4.865 134.709  0.00  0.00    +0.000 C 
BRANCH  32  33
ATOM     33  C   UNL     1      -5.408   5.640 134.736  0.00  0.00    +0.000 C 
BRANCH  33  34
ATOM     34  C   UNL     1      -6.523   4.698 134.404  0.00  0.00    +0.000 A 
ATOM     35  C   UNL     1      -6.269   3.523 133.694  0.00  0.00    +0.000 A 
ATOM     36  C   UNL     1      -7.331   2.809 133.152  0.00  0.00    +0.000 A 
ATOM     37  C   UNL     1      -8.645   3.214 133.397  0.00  0.00    +0.000 A 
ATOM     38  C   UNL     1      -8.902   4.350 134.160  0.00  0.00    +0.000 A 
ATOM     39  C   UNL     1      -7.843   5.092 134.663  0.00  0.00    +0.000 A 
ENDBRANCH  33  34
ENDBRANCH  32  33
ENDBRANCH  29  32
ENDBRANCH  28  29
ENDBRANCH  27  28
ENDBRANCH   1  27
TORSDOF 22
ENDMDL
MODEL 2
REMARK VINA RESULT:      -6.7      6.052      8.495
REMARK  Name = Latanoprostene bunod
REMARK  22 active torsions:
REMARK  status: ('A' for Active; 'I' for Inactive)
REMARK    1  A    between atoms: O_1  and  C_2
REMARK    2  A    between atoms: C_2  and  C_3
REMARK    3  A    between atoms: C_2  and  C_29
REMARK    4  A    between atoms: C_3  and  C_4
REMARK    5  A    between atoms: C_4  and  C_5
REMARK    6  A    between atoms: C_6  and  O_7
REMARK    7  A    between atoms: C_9  and  O_10
REMARK    8  A    between atoms: C_11  and  C_12
REMARK    9  A    between atoms: C_12  and  C_13
REMARK   10  A    between atoms: C_14  and  C_15
REMARK   11  A    between atoms: C_15  and  C_16
REMARK   12  A    between atoms: C_16  and  C_17
REMARK   13  A    between atoms: C_17  and  C_18
REMARK   14  A    between atoms: C_18  and  O_20
REMARK   15  A    between atoms: O_20  and  C_21
REMARK   16  A    between atoms: C_21  and  C_22
REMARK   17  A    between atoms: C_22  and  C_23
REMARK   18  A    between atoms: C_23  and  C_24
REMARK   19  A    between atoms: C_24  and  O_25
REMARK   20  A    between atoms: O_25  and  N_26
REMARK   21  A    between atoms: C_29  and  C_30
REMARK   22  A    between atoms: C_30  and  C_31
REMARK                            x       y       z     vdW  Elec       q    Type
REMARK                         _______ _______ _______ _____ _____    ______ ____
ROOT
ATOM      1  C   UNL     1      -6.912   1.370 124.870  0.00  0.00    +0.000 C 
ATOM      2  C   UNL     1      -5.908   2.513 124.676  0.00  0.00    +0.000 C 
ATOM      3  C   UNL     1      -6.725   3.812 124.576  0.00  0.00    +0.000 C 
ATOM      4  C   UNL     1      -8.200   3.424 124.702  0.00  0.00    +0.000 C 
ATOM      5  C   UNL     1      -8.191   2.059 125.407  0.00  0.00    +0.000 C 
ENDROOT
BRANCH   2   6
ATOM      6  O   UNL     1      -4.983   2.587 125.757  0.00  0.00    +0.000 OA
ATOM      7  H   UNL     1      -4.532   3.445 125.748  0.00  0.00    +0.000 HD
ENDBRANCH   2   6
BRANCH   4   8
ATOM      8  O   UNL     1      -8.990   4.415 125.335  0.00  0.00    +0.000 OA
ATOM      9  H   UNL     1      -8.870   4.363 126.296  0.00  0.00    +0.000 HD
ENDBRANCH   4   8
BRANCH   5  10
ATOM     10  C   UNL     1      -8.145   2.238 126.924  0.00  0.00    +0.000 C 
BRANCH  10  11
ATOM     11  C   UNL     1      -8.667   1.062 127.689  0.00  0.00    +0.000 C 
ATOM     12  C   UNL     1      -8.033   0.603 128.776  0.00  0.00    +0.000 C 
BRANCH  12  13
ATOM     13  C   UNL     1      -6.773   1.240 129.294  0.00  0.00    +0.000 C 
BRANCH  13  14
ATOM     14  C   UNL     1      -6.381   0.681 130.650  0.00  0.00    +0.000 C 
BRANCH  14  15
ATOM     15  C   UNL     1      -7.569   0.047 131.378  0.00  0.00    +0.000 C 
BRANCH  15  16
ATOM     16  C   UNL     1      -8.130   1.027 132.388  0.00  0.00    +0.000 C 
ATOM     17  O   UNL     1      -7.587   1.305 133.450  0.00  0.00    +0.000 OA
BRANCH  16  18
ATOM     18  O   UNL     1      -9.314   1.566 131.969  0.00  0.00    +0.000 OA
BRANCH  18  19
ATOM     19  C   UNL     1      -9.274   3.003 131.853  0.00  0.00    +0.000 C 
BRANCH  19  20
ATOM     20  C   UNL     1      -9.790   3.433 130.478  0.00  0.00    +0.000 C 
BRANCH  20  21
ATOM     21  C   UNL     1      -8.830   4.403 129.782  0.00  0.00    +0.000 C 
BRANCH  21  22
ATOM     22  C   UNL     1      -9.520   5.708 129.370  0.00  0.00    +0.000 C 
BRANCH  22  23
ATOM     23  O   UNL     1      -9.472   5.795 127.946  0.00  0.00    +0.000 OA
BRANCH  23  24
ATOM     24  N   UNL     1     -10.140   6.934 127.434  0.00  0.00    +0.000 N 
ATOM     25  O   UNL     1     -10.151   7.947 128.146  0.00  0.00    +0.000 OA
ATOM     26  O   UNL     1     -10.626   6.748 126.326  0.00  0.00    +0.000 OA
ENDBRANCH  23  24
ENDBRANCH  22  23
ENDBRANCH  21  22
ENDBRANCH  20  21
ENDBRANCH  19  20
ENDBRANCH  18  19
ENDBRANCH  16  18
ENDBRANCH  15  16
ENDBRANCH  14  15
ENDBRANCH  13  14
ENDBRANCH  12  13
ENDBRANCH  10  11
ENDBRANCH   5  10
BRANCH   1  27
ATOM     27  C   UNL     1      -7.154   0.599 123.568  0.00  0.00    +0.000 C 
BRANCH  27  28
ATOM     28  C   UNL     1      -8.359  -0.334 123.576  0.00  0.00    +0.000 C 
BRANCH  28  29
ATOM     29  C   UNL     1      -8.068  -1.731 123.055  0.00  0.00    +0.000 C 
BRANCH  29  30
ATOM     30  O   UNL     1      -6.716  -1.804 122.629  0.00  0.00    +0.000 OA
ATOM     31  H   UNL     1      -6.167  -2.109 123.367  0.00  0.00    +0.000 HD
ENDBRANCH  29  30
BRANCH  29  32
ATOM     32  C   UNL     1      -8.320  -2.730 124.178  0.00  0.00    +0.000 C 
BRANCH  32  33
ATOM     33  C   UNL     1      -8.804  -2.021 125.436  0.00  0.00    +0.000 C 
BRANCH  33  34
ATOM     34  C   UNL     1      -7.932  -2.435 126.579  0.00  0.00    +0.000 A 
ATOM     35  C   UNL     1      -8.480  -3.079 127.690  0.00  0.00    +0.000 A 
ATOM     36  C   UNL     1      -7.724  -3.201 128.851  0.00  0.00    +0.000 A 
ATOM     37  C   UNL     1      -6.397  -2.767 128.871  0.00  0.00    +0.000 A 
ATOM     38  C   UNL     1      -5.828  -2.183 127.742  0.00  0.00    +0.000 A 
ATOM     39  C   UNL     1      -6.595  -2.016 126.597  0.00  0.00    +0.000 A 
ENDBRANCH  33  34
ENDBRANCH  32  33
ENDBRANCH  29  32
ENDBRANCH  28  29
ENDBRANCH  27  28
ENDBRANCH   1  27
TORSDOF 22
ENDMDL
MODEL 3
REMARK VINA RESULT:      -6.5      7.594     10.622
REMARK  Name = Latanoprostene bunod
REMARK  22 active torsions:
REMARK  status: ('A' for Active; 'I' for Inactive)
REMARK    1  A    between atoms: O_1  and  C_2
REMARK    2  A    between atoms: C_2  and  C_3
REMARK    3  A    between atoms: C_2  and  C_29
REMARK    4  A    between atoms: C_3  and  C_4
REMARK    5  A    between atoms: C_4  and  C_5
REMARK    6  A    between atoms: C_6  and  O_7
REMARK    7  A    between atoms: C_9  and  O_10
REMARK    8  A    between atoms: C_11  and  C_12
REMARK    9  A    between atoms: C_12  and  C_13
REMARK   10  A    between atoms: C_14  and  C_15
REMARK   11  A    between atoms: C_15  and  C_16
REMARK   12  A    between atoms: C_16  and  C_17
REMARK   13  A    between atoms: C_17  and  C_18
REMARK   14  A    between atoms: C_18  and  O_20
REMARK   15  A    between atoms: O_20  and  C_21
REMARK   16  A    between atoms: C_21  and  C_22
REMARK   17  A    between atoms: C_22  and  C_23
REMARK   18  A    between atoms: C_23  and  C_24
REMARK   19  A    between atoms: C_24  and  O_25
REMARK   20  A    between atoms: O_25  and  N_26
REMARK   21  A    between atoms: C_29  and  C_30
REMARK   22  A    between atoms: C_30  and  C_31
REMARK                            x       y       z     vdW  Elec       q    Type
REMARK                         _______ _______ _______ _____ _____    ______ ____
ROOT
ATOM      1  C   UNL     1      -7.054  -1.288 124.242  0.00  0.00    +0.000 C 
ATOM      2  C   UNL     1      -6.827  -1.393 122.729  0.00  0.00    +0.000 C 
ATOM      3  C   UNL     1      -5.712  -2.431 122.518  0.00  0.00    +0.000 C 
ATOM      4  C   UNL     1      -5.286  -2.920 123.904  0.00  0.00    +0.000 C 
ATOM      5  C   UNL     1      -6.481  -2.606 124.818  0.00  0.00    +0.000 C 
ENDROOT
BRANCH   2   6
ATOM      6  O   UNL     1      -8.013  -1.789 122.047  0.00  0.00    +0.000 OA
ATOM      7  H   UNL     1      -8.612  -2.242 122.661  0.00  0.00    +0.000 HD
ENDBRANCH   2   6
BRANCH   4   8
ATOM      8  O   UNL     1      -4.867  -4.273 123.918  0.00  0.00    +0.000 OA
ATOM      9  H   UNL     1      -3.993  -4.348 123.505  0.00  0.00    +0.000 HD
ENDBRANCH   4   8
BRANCH   5  10
ATOM     10  C   UNL     1      -7.505  -3.738 124.771  0.00  0.00    +0.000 C 
BRANCH  10  11
ATOM     11  C   UNL     1      -8.921  -3.284 124.949  0.00  0.00    +0.000 C 
ATOM     12  C   UNL     1      -9.445  -3.101 126.167  0.00  0.00    +0.000 C 
BRANCH  12  13
ATOM     13  C   UNL     1      -8.648  -3.332 127.422  0.00  0.00    +0.000 C 
BRANCH  13  14
ATOM     14  C   UNL     1      -8.096  -2.034 127.980  0.00  0.00    +0.000 C 
BRANCH  14  15
ATOM     15  C   UNL     1      -6.793  -2.248 128.757  0.00  0.00    +0.000 C 
BRANCH  15  16
ATOM     16  C   UNL     1      -7.078  -2.236 130.244  0.00  0.00    +0.000 C 
ATOM     17  O   UNL     1      -7.305  -3.240 130.908  0.00  0.00    +0.000 OA
BRANCH  16  18
ATOM     18  O   UNL     1      -7.050  -0.969 130.756  0.00  0.00    +0.000 OA
BRANCH  18  19
ATOM     19  C   UNL     1      -8.284  -0.589 131.399  0.00  0.00    +0.000 C 
BRANCH  19  20
ATOM     20  C   UNL     1      -8.561   0.898 131.165  0.00  0.00    +0.000 C 
BRANCH  20  21
ATOM     21  C   UNL     1      -8.397   1.288 129.694  0.00  0.00    +0.000 C 
BRANCH  21  22
ATOM     22  C   UNL     1      -8.094   2.780 129.518  0.00  0.00    +0.000 C 
BRANCH  22  23
ATOM     23  O   UNL     1      -8.377   3.126 128.163  0.00  0.00    +0.000 OA
BRANCH  23  24
ATOM     24  N   UNL     1      -7.971   4.440 127.826  0.00  0.00    +0.000 N 
ATOM     25  O   UNL     1      -8.802   5.156 127.250  0.00  0.00    +0.000 OA
ATOM     26  O   UNL     1      -6.822   4.690 128.166  0.00  0.00    +0.000 OA
ENDBRANCH  23  24
ENDBRANCH  22  23
ENDBRANCH  21  22
ENDBRANCH  20  21
ENDBRANCH  19  20
ENDBRANCH  18  19
ENDBRANCH  16  18
ENDBRANCH  15  16
ENDBRANCH  14  15
ENDBRANCH  13  14
ENDBRANCH  12  13
ENDBRANCH  10  11
ENDBRANCH   5  10
BRANCH   1  27
ATOM     27  C   UNL     1      -6.386  -0.041 124.832  0.00  0.00    +0.000 C 
BRANCH  27  28
ATOM     28  C   UNL     1      -7.247   0.768 125.795  0.00  0.00    +0.000 C 
BRANCH  28  29
ATOM     29  C   UNL     1      -8.655   1.038 125.294  0.00  0.00    +0.000 C 
BRANCH  29  30
ATOM     30  O   UNL     1      -9.552   1.060 126.395  0.00  0.00    +0.000 OA
ATOM     31  H   UNL     1      -9.240   0.440 127.071  0.00  0.00    +0.000 HD
ENDBRANCH  29  30
BRANCH  29  32
ATOM     32  C   UNL     1      -8.667   2.384 124.580  0.00  0.00    +0.000 C 
BRANCH  32  33
ATOM     33  C   UNL     1      -9.112   2.225 123.132  0.00  0.00    +0.000 C 
BRANCH  33  34
ATOM     34  C   UNL     1      -8.169   2.993 122.260  0.00  0.00    +0.000 A 
ATOM     35  C   UNL     1      -8.619   3.584 121.078  0.00  0.00    +0.000 A 
ATOM     36  C   UNL     1      -7.694   4.043 120.147  0.00  0.00    +0.000 A 
ATOM     37  C   UNL     1      -6.329   3.999 120.437  0.00  0.00    +0.000 A 
ATOM     38  C   UNL     1      -5.881   3.469 121.644  0.00  0.00    +0.000 A 
ATOM     39  C   UNL     1      -6.799   2.966 122.555  0.00  0.00    +0.000 A 
ENDBRANCH  33  34
ENDBRANCH  32  33
ENDBRANCH  29  32
ENDBRANCH  28  29
ENDBRANCH  27  28
ENDBRANCH   1  27
TORSDOF 22
ENDMDL
MODEL 4
REMARK VINA RESULT:      -6.5      2.129      4.811
REMARK  Name = Latanoprostene bunod
REMARK  22 active torsions:
REMARK  status: ('A' for Active; 'I' for Inactive)
REMARK    1  A    between atoms: O_1  and  C_2
REMARK    2  A    between atoms: C_2  and  C_3
REMARK    3  A    between atoms: C_2  and  C_29
REMARK    4  A    between atoms: C_3  and  C_4
REMARK    5  A    between atoms: C_4  and  C_5
REMARK    6  A    between atoms: C_6  and  O_7
REMARK    7  A    between atoms: C_9  and  O_10
REMARK    8  A    between atoms: C_11  and  C_12
REMARK    9  A    between atoms: C_12  and  C_13
REMARK   10  A    between atoms: C_14  and  C_15
REMARK   11  A    between atoms: C_15  and  C_16
REMARK   12  A    between atoms: C_16  and  C_17
REMARK   13  A    between atoms: C_17  and  C_18
REMARK   14  A    between atoms: C_18  and  O_20
REMARK   15  A    between atoms: O_20  and  C_21
REMARK   16  A    between atoms: C_21  and  C_22
REMARK   17  A    between atoms: C_22  and  C_23
REMARK   18  A    between atoms: C_23  and  C_24
REMARK   19  A    between atoms: C_24  and  O_25
REMARK   20  A    between atoms: O_25  and  N_26
REMARK   21  A    between atoms: C_29  and  C_30
REMARK   22  A    between atoms: C_30  and  C_31
REMARK                            x       y       z     vdW  Elec       q    Type
REMARK                         _______ _______ _______ _____ _____    ______ ____
ROOT
ATOM      1  C   UNL     1      -6.469   3.906 130.381  0.00  0.00    +0.000 C 
ATOM      2  C   UNL     1      -7.561   2.862 130.645  0.00  0.00    +0.000 C 
ATOM      3  C   UNL     1      -7.418   2.429 132.113  0.00  0.00    +0.000 C 
ATOM      4  C   UNL     1      -6.240   3.212 132.699  0.00  0.00    +0.000 C 
ATOM      5  C   UNL     1      -6.088   4.437 131.785  0.00  0.00    +0.000 C 
ENDROOT
BRANCH   2   6
ATOM      6  O   UNL     1      -8.861   3.391 130.405  0.00  0.00    +0.000 OA
ATOM      7  H   UNL     1      -9.388   3.356 131.218  0.00  0.00    +0.000 HD
ENDBRANCH   2   6
BRANCH   4   8
ATOM      8  O   UNL     1      -6.394   3.512 134.075  0.00  0.00    +0.000 OA
ATOM      9  H   UNL     1      -6.086   4.414 134.248  0.00  0.00    +0.000 HD
ENDBRANCH   4   8
BRANCH   5  10
ATOM     10  C   UNL     1      -7.016   5.564 132.237  0.00  0.00    +0.000 C 
BRANCH  10  11
ATOM     11  C   UNL     1      -7.396   6.513 131.143  0.00  0.00    +0.000 C 
ATOM     12  C   UNL     1      -8.669   6.885 130.956  0.00  0.00    +0.000 C 
BRANCH  12  13
ATOM     13  C   UNL     1      -9.784   6.383 131.831  0.00  0.00    +0.000 C 
BRANCH  13  14
ATOM     14  C   UNL     1     -11.040   6.098 131.028  0.00  0.00    +0.000 C 
BRANCH  14  15
ATOM     15  C   UNL     1     -12.220   6.967 131.475  0.00  0.00    +0.000 C 
BRANCH  15  16
ATOM     16  C   UNL     1     -12.766   7.735 130.290  0.00  0.00    +0.000 C 
ATOM     17  O   UNL     1     -12.787   8.958 130.214  0.00  0.00    +0.000 OA
BRANCH  16  18
ATOM     18  O   UNL     1     -13.230   6.899 129.313  0.00  0.00    +0.000 OA
BRANCH  18  19
ATOM     19  C   UNL     1     -13.588   7.590 128.098  0.00  0.00    +0.000 C 
BRANCH  19  20
ATOM     20  C   UNL     1     -12.697   7.121 126.946  0.00  0.00    +0.000 C 
BRANCH  20  21
ATOM     21  C   UNL     1     -11.340   7.829 126.944  0.00  0.00    +0.000 C 
BRANCH  21  22
ATOM     22  C   UNL     1     -10.213   6.929 127.460  0.00  0.00    +0.000 C 
BRANCH  22  23
ATOM     23  O   UNL     1      -9.595   6.312 126.332  0.00  0.00    +0.000 OA
BRANCH  23  24
ATOM     24  N   UNL     1      -8.583   5.387 126.686  0.00  0.00    +0.000 N 
ATOM     25  O   UNL     1      -7.814   5.023 125.787  0.00  0.00    +0.000 OA
ATOM     26  O   UNL     1      -8.614   5.071 127.868  0.00  0.00    +0.000 OA
ENDBRANCH  23  24
ENDBRANCH  22  23
ENDBRANCH  21  22
ENDBRANCH  20  21
ENDBRANCH  19  20
ENDBRANCH  18  19
ENDBRANCH  16  18
ENDBRANCH  15  16
ENDBRANCH  14  15
ENDBRANCH  13  14
ENDBRANCH  12  13
ENDBRANCH  10  11
ENDBRANCH   5  10
BRANCH   1  27
ATOM     27  C   UNL     1      -5.277   3.305 129.629  0.00  0.00    +0.000 C 
BRANCH  27  28
ATOM     28  C   UNL     1      -5.413   3.268 128.112  0.00  0.00    +0.000 C 
BRANCH  28  29
ATOM     29  C   UNL     1      -4.090   3.308 127.367  0.00  0.00    +0.000 C 
BRANCH  29  30
ATOM     30  O   UNL     1      -4.220   4.133 126.219  0.00  0.00    +0.000 OA
ATOM     31  H   UNL     1      -4.277   3.573 125.430  0.00  0.00    +0.000 HD
ENDBRANCH  29  30
BRANCH  29  32
ATOM     32  C   UNL     1      -3.024   3.869 128.299  0.00  0.00    +0.000 C 
BRANCH  32  33
ATOM     33  C   UNL     1      -2.705   5.316 127.948  0.00  0.00    +0.000 C 
BRANCH  33  34
ATOM     34  C   UNL     1      -2.931   6.161 129.163  0.00  0.00    +0.000 A 
ATOM     35  C   UNL     1      -2.532   5.711 130.422  0.00  0.00    +0.000 A 
ATOM     36  C   UNL     1      -2.995   6.362 131.559  0.00  0.00    +0.000 A 
ATOM     37  C   UNL     1      -3.775   7.513 131.438  0.00  0.00    +0.000 A 
ATOM     38  C   UNL     1      -4.121   8.002 130.181  0.00  0.00    +0.000 A 
ATOM     39  C   UNL     1      -3.700   7.326 129.043  0.00  0.00    +0.000 A 
ENDBRANCH  33  34
ENDBRANCH  32  33
ENDBRANCH  29  32
ENDBRANCH  28  29
ENDBRANCH  27  28
ENDBRANCH   1  27
TORSDOF 22
ENDMDL
MODEL 5
REMARK VINA RESULT:      -6.4      2.161      4.694
REMARK  Name = Latanoprostene bunod
REMARK  22 active torsions:
REMARK  status: ('A' for Active; 'I' for Inactive)
REMARK    1  A    between atoms: O_1  and  C_2
REMARK    2  A    between atoms: C_2  and  C_3
REMARK    3  A    between atoms: C_2  and  C_29
REMARK    4  A    between atoms: C_3  and  C_4
REMARK    5  A    between atoms: C_4  and  C_5
REMARK    6  A    between atoms: C_6  and  O_7
REMARK    7  A    between atoms: C_9  and  O_10
REMARK    8  A    between atoms: C_11  and  C_12
REMARK    9  A    between atoms: C_12  and  C_13
REMARK   10  A    between atoms: C_14  and  C_15
REMARK   11  A    between atoms: C_15  and  C_16
REMARK   12  A    between atoms: C_16  and  C_17
REMARK   13  A    between atoms: C_17  and  C_18
REMARK   14  A    between atoms: C_18  and  O_20
REMARK   15  A    between atoms: O_20  and  C_21
REMARK   16  A    between atoms: C_21  and  C_22
REMARK   17  A    between atoms: C_22  and  C_23
REMARK   18  A    between atoms: C_23  and  C_24
REMARK   19  A    between atoms: C_24  and  O_25
REMARK   20  A    between atoms: O_25  and  N_26
REMARK   21  A    between atoms: C_29  and  C_30
REMARK   22  A    between atoms: C_30  and  C_31
REMARK                            x       y       z     vdW  Elec       q    Type
REMARK                         _______ _______ _______ _____ _____    ______ ____
ROOT
ATOM      1  C   UNL     1      -5.953   3.938 129.437  0.00  0.00    +0.000 C 
ATOM      2  C   UNL     1      -6.892   2.780 129.800  0.00  0.00    +0.000 C 
ATOM      3  C   UNL     1      -6.284   2.083 131.029  0.00  0.00    +0.000 C 
ATOM      4  C   UNL     1      -4.991   2.827 131.372  0.00  0.00    +0.000 C 
ATOM      5  C   UNL     1      -5.152   4.214 130.733  0.00  0.00    +0.000 C 
ENDROOT
BRANCH   2   6
ATOM      6  O   UNL     1      -8.207   3.243 130.089  0.00  0.00    +0.000 OA
ATOM      7  H   UNL     1      -8.708   3.352 129.266  0.00  0.00    +0.000 HD
ENDBRANCH   2   6
BRANCH   4   8
ATOM      8  O   UNL     1      -4.703   2.841 132.759  0.00  0.00    +0.000 OA
ATOM      9  H   UNL     1      -4.337   1.983 133.025  0.00  0.00    +0.000 HD
ENDBRANCH   4   8
BRANCH   5  10
ATOM     10  C   UNL     1      -5.903   5.156 131.674  0.00  0.00    +0.000 C 
BRANCH  10  11
ATOM     11  C   UNL     1      -6.689   6.218 130.970  0.00  0.00    +0.000 C 
ATOM     12  C   UNL     1      -7.871   6.636 131.441  0.00  0.00    +0.000 C 
BRANCH  12  13
ATOM     13  C   UNL     1      -8.471   6.075 132.701  0.00  0.00    +0.000 C 
BRANCH  13  14
ATOM     14  C   UNL     1      -9.858   5.510 132.456  0.00  0.00    +0.000 C 
BRANCH  14  15
ATOM     15  C   UNL     1     -10.659   6.359 131.464  0.00  0.00    +0.000 C 
BRANCH  15  16
ATOM     16  C   UNL     1     -11.427   5.454 130.523  0.00  0.00    +0.000 C 
ATOM     17  O   UNL     1     -11.113   4.297 130.275  0.00  0.00    +0.000 OA
BRANCH  16  18
ATOM     18  O   UNL     1     -12.515   6.085 129.987  0.00  0.00    +0.000 OA
BRANCH  18  19
ATOM     19  C   UNL     1     -12.755   7.387 130.559  0.00  0.00    +0.000 C 
BRANCH  19  20
ATOM     20  C   UNL     1     -12.649   8.464 129.477  0.00  0.00    +0.000 C 
BRANCH  20  21
ATOM     21  C   UNL     1     -12.434   7.861 128.086  0.00  0.00    +0.000 C 
BRANCH  21  22
ATOM     22  C   UNL     1     -11.081   8.254 127.484  0.00  0.00    +0.000 C 
BRANCH  22  23
ATOM     23  O   UNL     1     -10.069   7.508 128.160  0.00  0.00    +0.000 OA
BRANCH  23  24
ATOM     24  N   UNL     1      -9.628   6.378 127.429  0.00  0.00    +0.000 N 
ATOM     25  O   UNL     1      -8.964   5.533 128.045  0.00  0.00    +0.000 OA
ATOM     26  O   UNL     1      -9.978   6.398 126.256  0.00  0.00    +0.000 OA
ENDBRANCH  23  24
ENDBRANCH  22  23
ENDBRANCH  21  22
ENDBRANCH  20  21
ENDBRANCH  19  20
ENDBRANCH  18  19
ENDBRANCH  16  18
ENDBRANCH  15  16
ENDBRANCH  14  15
ENDBRANCH  13  14
ENDBRANCH  12  13
ENDBRANCH  10  11
ENDBRANCH   5  10
BRANCH   1  27
ATOM     27  C   UNL     1      -5.055   3.589 128.246  0.00  0.00    +0.000 C 
BRANCH  27  28
ATOM     28  C   UNL     1      -4.205   4.735 127.710  0.00  0.00    +0.000 C 
BRANCH  28  29
ATOM     29  C   UNL     1      -2.730   4.631 128.055  0.00  0.00    +0.000 C 
BRANCH  29  30
ATOM     30  O   UNL     1      -2.014   4.150 126.927  0.00  0.00    +0.000 OA
ATOM     31  H   UNL     1      -1.164   3.791 127.220  0.00  0.00    +0.000 HD
ENDBRANCH  29  30
BRANCH  29  32
ATOM     32  C   UNL     1      -2.224   6.014 128.447  0.00  0.00    +0.000 C 
BRANCH  32  33
ATOM     33  C   UNL     1      -3.286   6.779 129.226  0.00  0.00    +0.000 C 
BRANCH  33  34
ATOM     34  C   UNL     1      -2.761   7.050 130.601  0.00  0.00    +0.000 A 
ATOM     35  C   UNL     1      -3.280   8.099 131.363  0.00  0.00    +0.000 A 
ATOM     36  C   UNL     1      -2.603   8.515 132.503  0.00  0.00    +0.000 A 
ATOM     37  C   UNL     1      -1.467   7.827 132.934  0.00  0.00    +0.000 A 
ATOM     38  C   UNL     1      -0.986   6.739 132.211  0.00  0.00    +0.000 A 
ATOM     39  C   UNL     1      -1.631   6.350 131.045  0.00  0.00    +0.000 A 
ENDBRANCH  33  34
ENDBRANCH  32  33
ENDBRANCH  29  32
ENDBRANCH  28  29
ENDBRANCH  27  28
ENDBRANCH   1  27
TORSDOF 22
ENDMDL
MODEL 6
REMARK VINA RESULT:      -6.4      5.546      8.911
REMARK  Name = Latanoprostene bunod
REMARK  22 active torsions:
REMARK  status: ('A' for Active; 'I' for Inactive)
REMARK    1  A    between atoms: O_1  and  C_2
REMARK    2  A    between atoms: C_2  and  C_3
REMARK    3  A    between atoms: C_2  and  C_29
REMARK    4  A    between atoms: C_3  and  C_4
REMARK    5  A    between atoms: C_4  and  C_5
REMARK    6  A    between atoms: C_6  and  O_7
REMARK    7  A    between atoms: C_9  and  O_10
REMARK    8  A    between atoms: C_11  and  C_12
REMARK    9  A    between atoms: C_12  and  C_13
REMARK   10  A    between atoms: C_14  and  C_15
REMARK   11  A    between atoms: C_15  and  C_16
REMARK   12  A    between atoms: C_16  and  C_17
REMARK   13  A    between atoms: C_17  and  C_18
REMARK   14  A    between atoms: C_18  and  O_20
REMARK   15  A    between atoms: O_20  and  C_21
REMARK   16  A    between atoms: C_21  and  C_22
REMARK   17  A    between atoms: C_22  and  C_23
REMARK   18  A    between atoms: C_23  and  C_24
REMARK   19  A    between atoms: C_24  and  O_25
REMARK   20  A    between atoms: O_25  and  N_26
REMARK   21  A    between atoms: C_29  and  C_30
REMARK   22  A    between atoms: C_30  and  C_31
REMARK                            x       y       z     vdW  Elec       q    Type
REMARK                         _______ _______ _______ _____ _____    ______ ____
ROOT
ATOM      1  C   UNL     1      -6.308   2.750 125.603  0.00  0.00    +0.000 C 
ATOM      2  C   UNL     1      -5.473   3.993 125.273  0.00  0.00    +0.000 C 
ATOM      3  C   UNL     1      -6.434   5.194 125.298  0.00  0.00    +0.000 C 
ATOM      4  C   UNL     1      -7.825   4.648 125.632  0.00  0.00    +0.000 C 
ATOM      5  C   UNL     1      -7.564   3.299 126.321  0.00  0.00    +0.000 C 
ENDROOT
BRANCH   2   6
ATOM      6  O   UNL     1      -4.418   4.180 126.210  0.00  0.00    +0.000 OA
ATOM      7  H   UNL     1      -4.460   5.074 126.583  0.00  0.00    +0.000 HD
ENDBRANCH   2   6
BRANCH   4   8
ATOM      8  O   UNL     1      -8.620   5.553 126.377  0.00  0.00    +0.000 OA
ATOM      9  H   UNL     1      -8.194   6.424 126.393  0.00  0.00    +0.000 HD
ENDBRANCH   4   8
BRANCH   5  10
ATOM     10  C   UNL     1      -7.322   3.499 127.817  0.00  0.00    +0.000 C 
BRANCH  10  11
ATOM     11  C   UNL     1      -6.680   2.325 128.489  0.00  0.00    +0.000 C 
ATOM     12  C   UNL     1      -7.270   1.705 129.519  0.00  0.00    +0.000 C 
BRANCH  12  13
ATOM     13  C   UNL     1      -8.606   2.142 130.054  0.00  0.00    +0.000 C 
BRANCH  13  14
ATOM     14  C   UNL     1      -9.045   1.287 131.229  0.00  0.00    +0.000 C 
BRANCH  14  15
ATOM     15  C   UNL     1      -9.749   2.111 132.311  0.00  0.00    +0.000 C 
BRANCH  15  16
ATOM     16  C   UNL     1      -8.720   2.721 133.239  0.00  0.00    +0.000 C 
ATOM     17  O   UNL     1      -7.668   2.176 133.550  0.00  0.00    +0.000 OA
BRANCH  16  18
ATOM     18  O   UNL     1      -9.105   3.953 133.685  0.00  0.00    +0.000 OA
BRANCH  18  19
ATOM     19  C   UNL     1      -9.595   4.810 132.633  0.00  0.00    +0.000 C 
BRANCH  19  20
ATOM     20  C   UNL     1      -8.504   5.794 132.206  0.00  0.00    +0.000 C 
BRANCH  20  21
ATOM     21  C   UNL     1      -8.460   5.979 130.687  0.00  0.00    +0.000 C 
BRANCH  21  22
ATOM     22  C   UNL     1      -9.525   6.962 130.190  0.00  0.00    +0.000 C 
BRANCH  22  23
ATOM     23  O   UNL     1      -9.466   6.986 128.764  0.00  0.00    +0.000 OA
BRANCH  23  24
ATOM     24  N   UNL     1     -10.696   7.342 128.160  0.00  0.00    +0.000 N 
ATOM     25  O   UNL     1     -10.725   8.404 127.525  0.00  0.00    +0.000 OA
ATOM     26  O   UNL     1     -11.584   6.522 128.358  0.00  0.00    +0.000 OA
ENDBRANCH  23  24
ENDBRANCH  22  23
ENDBRANCH  21  22
ENDBRANCH  20  21
ENDBRANCH  19  20
ENDBRANCH  18  19
ENDBRANCH  16  18
ENDBRANCH  15  16
ENDBRANCH  14  15
ENDBRANCH  13  14
ENDBRANCH  12  13
ENDBRANCH  10  11
ENDBRANCH   5  10
BRANCH   1  27
ATOM     27  C   UNL     1      -6.647   1.942 124.346  0.00  0.00    +0.000 C 
BRANCH  27  28
ATOM     28  C   UNL     1      -8.002   1.244 124.363  0.00  0.00    +0.000 C 
BRANCH  28  29
ATOM     29  C   UNL     1      -8.997   1.790 123.354  0.00  0.00    +0.000 C 
BRANCH  29  30
ATOM     30  O   UNL     1     -10.240   2.025 123.997  0.00  0.00    +0.000 OA
ATOM     31  H   UNL     1     -10.740   1.197 124.034  0.00  0.00    +0.000 HD
ENDBRANCH  29  30
BRANCH  29  32
ATOM     32  C   UNL     1      -8.446   3.091 122.783  0.00  0.00    +0.000 C 
BRANCH  32  33
ATOM     33  C   UNL     1      -8.756   3.205 121.296  0.00  0.00    +0.000 C 
BRANCH  33  34
ATOM     34  C   UNL     1      -7.548   3.751 120.601  0.00  0.00    +0.000 A 
ATOM     35  C   UNL     1      -6.323   3.831 121.266  0.00  0.00    +0.000 A 
ATOM     36  C   UNL     1      -5.296   4.589 120.717  0.00  0.00    +0.000 A 
ATOM     37  C   UNL     1      -5.457   5.186 119.466  0.00  0.00    +0.000 A 
ATOM     38  C   UNL     1      -6.656   5.052 118.770  0.00  0.00    +0.000 A 
ATOM     39  C   UNL     1      -7.701   4.336 119.336  0.00  0.00    +0.000 A 
ENDBRANCH  33  34
ENDBRANCH  32  33
ENDBRANCH  29  32
ENDBRANCH  28  29
ENDBRANCH  27  28
ENDBRANCH   1  27
TORSDOF 22
ENDMDL
MODEL 7
REMARK VINA RESULT:      -6.4      7.270     10.815
REMARK  Name = Latanoprostene bunod
REMARK  22 active torsions:
REMARK  status: ('A' for Active; 'I' for Inactive)
REMARK    1  A    between atoms: O_1  and  C_2
REMARK    2  A    between atoms: C_2  and  C_3
REMARK    3  A    between atoms: C_2  and  C_29
REMARK    4  A    between atoms: C_3  and  C_4
REMARK    5  A    between atoms: C_4  and  C_5
REMARK    6  A    between atoms: C_6  and  O_7
REMARK    7  A    between atoms: C_9  and  O_10
REMARK    8  A    between atoms: C_11  and  C_12
REMARK    9  A    between atoms: C_12  and  C_13
REMARK   10  A    between atoms: C_14  and  C_15
REMARK   11  A    between atoms: C_15  and  C_16
REMARK   12  A    between atoms: C_16  and  C_17
REMARK   13  A    between atoms: C_17  and  C_18
REMARK   14  A    between atoms: C_18  and  O_20
REMARK   15  A    between atoms: O_20  and  C_21
REMARK   16  A    between atoms: C_21  and  C_22
REMARK   17  A    between atoms: C_22  and  C_23
REMARK   18  A    between atoms: C_23  and  C_24
REMARK   19  A    between atoms: C_24  and  O_25
REMARK   20  A    between atoms: O_25  and  N_26
REMARK   21  A    between atoms: C_29  and  C_30
REMARK   22  A    between atoms: C_30  and  C_31
REMARK                            x       y       z     vdW  Elec       q    Type
REMARK                         _______ _______ _______ _____ _____    ______ ____
ROOT
ATOM      1  C   UNL     1      -9.014  -0.782 125.105  0.00  0.00    +0.000 C 
ATOM      2  C   UNL     1      -8.962  -0.977 123.584  0.00  0.00    +0.000 C 
ATOM      3  C   UNL     1      -7.478  -1.105 123.203  0.00  0.00    +0.000 C 
ATOM      4  C   UNL     1      -6.669  -0.975 124.496  0.00  0.00    +0.000 C 
ATOM      5  C   UNL     1      -7.659  -1.328 125.617  0.00  0.00    +0.000 C 
ENDROOT
BRANCH   2   6
ATOM      6  O   UNL     1      -9.683  -2.136 123.180  0.00  0.00    +0.000 OA
ATOM      7  H   UNL     1      -9.381  -2.907 123.685  0.00  0.00    +0.000 HD
ENDBRANCH   2   6
BRANCH   4   8
ATOM      8  O   UNL     1      -5.477  -1.739 124.492  0.00  0.00    +0.000 OA
ATOM      9  H   UNL     1      -5.362  -2.168 125.354  0.00  0.00    +0.000 HD
ENDBRANCH   4   8
BRANCH   5  10
ATOM     10  C   UNL     1      -7.703  -2.839 125.838  0.00  0.00    +0.000 C 
BRANCH  10  11
ATOM     11  C   UNL     1      -8.959  -3.320 126.495  0.00  0.00    +0.000 C 
ATOM     12  C   UNL     1      -8.974  -3.685 127.784  0.00  0.00    +0.000 C 
BRANCH  12  13
ATOM     13  C   UNL     1      -7.742  -3.626 128.644  0.00  0.00    +0.000 C 
BRANCH  13  14
ATOM     14  C   UNL     1      -7.928  -2.690 129.824  0.00  0.00    +0.000 C 
BRANCH  14  15
ATOM     15  C   UNL     1      -7.842  -1.217 129.410  0.00  0.00    +0.000 C 
BRANCH  15  16
ATOM     16  C   UNL     1      -7.695  -0.349 130.642  0.00  0.00    +0.000 C 
ATOM     17  O   UNL     1      -8.155  -0.633 131.741  0.00  0.00    +0.000 OA
BRANCH  16  18
ATOM     18  O   UNL     1      -6.984   0.788 130.380  0.00  0.00    +0.000 OA
BRANCH  18  19
ATOM     19  C   UNL     1      -6.241   0.721 129.146  0.00  0.00    +0.000 C 
BRANCH  19  20
ATOM     20  C   UNL     1      -4.764   1.027 129.405  0.00  0.00    +0.000 C 
BRANCH  20  21
ATOM     21  C   UNL     1      -4.307   2.302 128.690  0.00  0.00    +0.000 C 
BRANCH  21  22
ATOM     22  C   UNL     1      -5.484   3.114 128.141  0.00  0.00    +0.000 C 
BRANCH  22  23
ATOM     23  O   UNL     1      -5.144   3.538 126.821  0.00  0.00    +0.000 OA
BRANCH  23  24
ATOM     24  N   UNL     1      -5.402   4.911 126.591  0.00  0.00    +0.000 N 
ATOM     25  O   UNL     1      -4.639   5.725 127.127  0.00  0.00    +0.000 OA
ATOM     26  O   UNL     1      -6.374   5.102 125.871  0.00  0.00    +0.000 OA
ENDBRANCH  23  24
ENDBRANCH  22  23
ENDBRANCH  21  22
ENDBRANCH  20  21
ENDBRANCH  19  20
ENDBRANCH  18  19
ENDBRANCH  16  18
ENDBRANCH  15  16
ENDBRANCH  14  15
ENDBRANCH  13  14
ENDBRANCH  12  13
ENDBRANCH  10  11
ENDBRANCH   5  10
BRANCH   1  27
ATOM     27  C   UNL     1      -9.245   0.685 125.482  0.00  0.00    +0.000 C 
BRANCH  27  28
ATOM     28  C   UNL     1      -9.502   1.628 124.313  0.00  0.00    +0.000 C 
BRANCH  28  29
ATOM     29  C   UNL     1      -8.504   2.767 124.200  0.00  0.00    +0.000 C 
BRANCH  29  30
ATOM     30  O   UNL     1      -7.354   2.465 124.976  0.00  0.00    +0.000 OA
ATOM     31  H   UNL     1      -7.125   3.235 125.517  0.00  0.00    +0.000 HD
ENDBRANCH  29  30
BRANCH  29  32
ATOM     32  C   UNL     1      -8.120   2.933 122.734  0.00  0.00    +0.000 C 
BRANCH  32  33
ATOM     33  C   UNL     1      -6.645   3.288 122.598  0.00  0.00    +0.000 C 
BRANCH  33  34
ATOM     34  C   UNL     1      -6.417   3.844 121.227  0.00  0.00    +0.000 A 
ATOM     35  C   UNL     1      -5.253   4.558 120.937  0.00  0.00    +0.000 A 
ATOM     36  C   UNL     1      -5.181   5.301 119.764  0.00  0.00    +0.000 A 
ATOM     37  C   UNL     1      -6.227   5.257 118.842  0.00  0.00    +0.000 A 
ATOM     38  C   UNL     1      -7.363   4.493 119.100  0.00  0.00    +0.000 A 
ATOM     39  C   UNL     1      -7.459   3.787 120.291  0.00  0.00    +0.000 A 
ENDBRANCH  33  34
ENDBRANCH  32  33
ENDBRANCH  29  32
ENDBRANCH  28  29
ENDBRANCH  27  28
ENDBRANCH   1  27
TORSDOF 22
ENDMDL
MODEL 8
REMARK VINA RESULT:      -6.3      7.514     11.056
REMARK  Name = Latanoprostene bunod
REMARK  22 active torsions:
REMARK  status: ('A' for Active; 'I' for Inactive)
REMARK    1  A    between atoms: O_1  and  C_2
REMARK    2  A    between atoms: C_2  and  C_3
REMARK    3  A    between atoms: C_2  and  C_29
REMARK    4  A    between atoms: C_3  and  C_4
REMARK    5  A    between atoms: C_4  and  C_5
REMARK    6  A    between atoms: C_6  and  O_7
REMARK    7  A    between atoms: C_9  and  O_10
REMARK    8  A    between atoms: C_11  and  C_12
REMARK    9  A    between atoms: C_12  and  C_13
REMARK   10  A    between atoms: C_14  and  C_15
REMARK   11  A    between atoms: C_15  and  C_16
REMARK   12  A    between atoms: C_16  and  C_17
REMARK   13  A    between atoms: C_17  and  C_18
REMARK   14  A    between atoms: C_18  and  O_20
REMARK   15  A    between atoms: O_20  and  C_21
REMARK   16  A    between atoms: C_21  and  C_22
REMARK   17  A    between atoms: C_22  and  C_23
REMARK   18  A    between atoms: C_23  and  C_24
REMARK   19  A    between atoms: C_24  and  O_25
REMARK   20  A    between atoms: O_25  and  N_26
REMARK   21  A    between atoms: C_29  and  C_30
REMARK   22  A    between atoms: C_30  and  C_31
REMARK                            x       y       z     vdW  Elec       q    Type
REMARK                         _______ _______ _______ _____ _____    ______ ____
ROOT
ATOM      1  C   UNL     1      -9.013  -1.128 125.045  0.00  0.00    +0.000 C 
ATOM      2  C   UNL     1      -8.960  -1.507 123.560  0.00  0.00    +0.000 C 
ATOM      3  C   UNL     1      -7.475  -1.666 123.194  0.00  0.00    +0.000 C 
ATOM      4  C   UNL     1      -6.667  -1.371 124.461  0.00  0.00    +0.000 C 
ATOM      5  C   UNL     1      -7.653  -1.594 125.618  0.00  0.00    +0.000 C 
ENDROOT
BRANCH   2   6
ATOM      6  O   UNL     1      -9.669  -2.714 123.301  0.00  0.00    +0.000 OA
ATOM      7  H   UNL     1      -9.060  -3.392 122.970  0.00  0.00    +0.000 HD
ENDBRANCH   2   6
BRANCH   4   8
ATOM      8  O   UNL     1      -5.467  -2.118 124.549  0.00  0.00    +0.000 OA
ATOM      9  H   UNL     1      -5.532  -2.906 123.988  0.00  0.00    +0.000 HD
ENDBRANCH   4   8
BRANCH   5  10
ATOM     10  C   UNL     1      -7.682  -3.068 126.022  0.00  0.00    +0.000 C 
BRANCH  10  11
ATOM     11  C   UNL     1      -8.962  -3.495 126.668  0.00  0.00    +0.000 C 
ATOM     12  C   UNL     1      -9.039  -3.706 127.989  0.00  0.00    +0.000 C 
BRANCH  12  13
ATOM     13  C   UNL     1      -7.854  -3.521 128.896  0.00  0.00    +0.000 C 
BRANCH  13  14
ATOM     14  C   UNL     1      -7.805  -2.117 129.473  0.00  0.00    +0.000 C 
BRANCH  14  15
ATOM     15  C   UNL     1      -6.439  -1.792 130.085  0.00  0.00    +0.000 C 
BRANCH  15  16
ATOM     16  C   UNL     1      -5.402  -1.682 128.987  0.00  0.00    +0.000 C 
ATOM     17  O   UNL     1      -4.337  -2.288 128.985  0.00  0.00    +0.000 OA
BRANCH  16  18
ATOM     18  O   UNL     1      -5.799  -0.828 127.997  0.00  0.00    +0.000 OA
BRANCH  18  19
ATOM     19  C   UNL     1      -5.239   0.495 128.130  0.00  0.00    +0.000 C 
BRANCH  19  20
ATOM     20  C   UNL     1      -6.253   1.544 127.669  0.00  0.00    +0.000 C 
BRANCH  20  21
ATOM     21  C   UNL     1      -7.607   1.378 128.364  0.00  0.00    +0.000 C 
BRANCH  21  22
ATOM     22  C   UNL     1      -7.535   1.694 129.862  0.00  0.00    +0.000 C 
BRANCH  22  23
ATOM     23  O   UNL     1      -8.847   1.544 130.403  0.00  0.00    +0.000 OA
BRANCH  23  24
ATOM     24  N   UNL     1      -8.863   0.869 131.647  0.00  0.00    +0.000 N 
ATOM     25  O   UNL     1      -7.801   0.835 132.284  0.00  0.00    +0.000 OA
ATOM     26  O   UNL     1      -9.960   0.401 131.926  0.00  0.00    +0.000 OA
ENDBRANCH  23  24
ENDBRANCH  22  23
ENDBRANCH  21  22
ENDBRANCH  20  21
ENDBRANCH  19  20
ENDBRANCH  18  19
ENDBRANCH  16  18
ENDBRANCH  15  16
ENDBRANCH  14  15
ENDBRANCH  13  14
ENDBRANCH  12  13
ENDBRANCH  10  11
ENDBRANCH   5  10
BRANCH   1  27
ATOM     27  C   UNL     1      -9.259   0.371 125.241  0.00  0.00    +0.000 C 
BRANCH  27  28
ATOM     28  C   UNL     1      -9.841   1.101 124.037  0.00  0.00    +0.000 C 
BRANCH  28  29
ATOM     29  C   UNL     1      -9.143   2.408 123.704  0.00  0.00    +0.000 C 
BRANCH  29  30
ATOM     30  O   UNL     1      -9.187   3.268 124.832  0.00  0.00    +0.000 OA
ATOM     31  H   UNL     1      -8.392   3.131 125.368  0.00  0.00    +0.000 HD
ENDBRANCH  29  30
BRANCH  29  32
ATOM     32  C   UNL     1      -7.697   2.105 123.331  0.00  0.00    +0.000 C 
BRANCH  32  33
ATOM     33  C   UNL     1      -6.813   3.327 123.551  0.00  0.00    +0.000 C 
BRANCH  33  34
ATOM     34  C   UNL     1      -6.265   3.759 122.227  0.00  0.00    +0.000 A 
ATOM     35  C   UNL     1      -5.036   4.417 122.151  0.00  0.00    +0.000 A 
ATOM     36  C   UNL     1      -4.676   5.057 120.970  0.00  0.00    +0.000 A 
ATOM     37  C   UNL     1      -5.494   4.960 119.843  0.00  0.00    +0.000 A 
ATOM     38  C   UNL     1      -6.690   4.248 119.899  0.00  0.00    +0.000 A 
ATOM     39  C   UNL     1      -7.076   3.648 121.089  0.00  0.00    +0.000 A 
ENDBRANCH  33  34
ENDBRANCH  32  33
ENDBRANCH  29  32
ENDBRANCH  28  29
ENDBRANCH  27  28
ENDBRANCH   1  27
TORSDOF 22
ENDMDL
MODEL 9
REMARK VINA RESULT:      -6.2      2.458      5.403
REMARK  Name = Latanoprostene bunod
REMARK  22 active torsions:
REMARK  status: ('A' for Active; 'I' for Inactive)
REMARK    1  A    between atoms: O_1  and  C_2
REMARK    2  A    between atoms: C_2  and  C_3
REMARK    3  A    between atoms: C_2  and  C_29
REMARK    4  A    between atoms: C_3  and  C_4
REMARK    5  A    between atoms: C_4  and  C_5
REMARK    6  A    between atoms: C_6  and  O_7
REMARK    7  A    between atoms: C_9  and  O_10
REMARK    8  A    between atoms: C_11  and  C_12
REMARK    9  A    between atoms: C_12  and  C_13
REMARK   10  A    between atoms: C_14  and  C_15
REMARK   11  A    between atoms: C_15  and  C_16
REMARK   12  A    between atoms: C_16  and  C_17
REMARK   13  A    between atoms: C_17  and  C_18
REMARK   14  A    between atoms: C_18  and  O_20
REMARK   15  A    between atoms: O_20  and  C_21
REMARK   16  A    between atoms: C_21  and  C_22
REMARK   17  A    between atoms: C_22  and  C_23
REMARK   18  A    between atoms: C_23  and  C_24
REMARK   19  A    between atoms: C_24  and  O_25
REMARK   20  A    between atoms: O_25  and  N_26
REMARK   21  A    between atoms: C_29  and  C_30
REMARK   22  A    between atoms: C_30  and  C_31
REMARK                            x       y       z     vdW  Elec       q    Type
REMARK                         _______ _______ _______ _____ _____    ______ ____
ROOT
ATOM      1  C   UNL     1      -7.266   2.945 129.018  0.00  0.00    +0.000 C 
ATOM      2  C   UNL     1      -8.614   2.214 129.048  0.00  0.00    +0.000 C 
ATOM      3  C   UNL     1      -8.410   0.936 129.878  0.00  0.00    +0.000 C 
ATOM      4  C   UNL     1      -6.944   0.919 130.321  0.00  0.00    +0.000 C 
ATOM      5  C   UNL     1      -6.489   2.384 130.234  0.00  0.00    +0.000 C 
ENDROOT
BRANCH   2   6
ATOM      6  O   UNL     1      -9.636   3.024 129.622  0.00  0.00    +0.000 OA
ATOM      7  H   UNL     1      -9.558   3.019 130.589  0.00  0.00    +0.000 HD
ENDBRANCH   2   6
BRANCH   4   8
ATOM      8  O   UNL     1      -6.746   0.308 131.583  0.00  0.00    +0.000 OA
ATOM      9  H   UNL     1      -6.578   0.989 132.252  0.00  0.00    +0.000 HD
ENDBRANCH   4   8
BRANCH   5  10
ATOM     10  C   UNL     1      -6.832   3.131 131.522  0.00  0.00    +0.000 C 
BRANCH  10  11
ATOM     11  C   UNL     1      -5.672   3.853 132.132  0.00  0.00    +0.000 C 
ATOM     12  C   UNL     1      -5.342   5.092 131.744  0.00  0.00    +0.000 C 
BRANCH  12  13
ATOM     13  C   UNL     1      -6.114   5.829 130.685  0.00  0.00    +0.000 C 
BRANCH  13  14
ATOM     14  C   UNL     1      -7.025   6.883 131.290  0.00  0.00    +0.000 C 
BRANCH  14  15
ATOM     15  C   UNL     1      -8.505   6.577 131.043  0.00  0.00    +0.000 C 
BRANCH  15  16
ATOM     16  C   UNL     1      -9.151   6.109 132.330  0.00  0.00    +0.000 C 
ATOM     17  O   UNL     1      -8.541   5.926 133.377  0.00  0.00    +0.000 OA
BRANCH  16  18
ATOM     18  O   UNL     1     -10.495   5.916 132.183  0.00  0.00    +0.000 OA
BRANCH  18  19
ATOM     19  C   UNL     1     -11.003   6.398 130.922  0.00  0.00    +0.000 C 
BRANCH  19  20
ATOM     20  C   UNL     1     -12.418   6.951 131.103  0.00  0.00    +0.000 C 
BRANCH  20  21
ATOM     21  C   UNL     1     -12.957   7.581 129.815  0.00  0.00    +0.000 C 
BRANCH  21  22
ATOM     22  C   UNL     1     -12.690   6.710 128.584  0.00  0.00    +0.000 C 
BRANCH  22  23
ATOM     23  O   UNL     1     -12.264   7.568 127.526  0.00  0.00    +0.000 OA
BRANCH  23  24
ATOM     24  N   UNL     1     -10.870   7.505 127.284  0.00  0.00    +0.000 N 
ATOM     25  O   UNL     1     -10.146   8.238 127.970  0.00  0.00    +0.000 OA
ATOM     26  O   UNL     1     -10.571   6.708 126.403  0.00  0.00    +0.000 OA
ENDBRANCH  23  24
ENDBRANCH  22  23
ENDBRANCH  21  22
ENDBRANCH  20  21
ENDBRANCH  19  20
ENDBRANCH  18  19
ENDBRANCH  16  18
ENDBRANCH  15  16
ENDBRANCH  14  15
ENDBRANCH  13  14
ENDBRANCH  12  13
ENDBRANCH  10  11
ENDBRANCH   5  10
BRANCH   1  27
ATOM     27  C   UNL     1      -6.532   2.729 127.691  0.00  0.00    +0.000 C 
BRANCH  27  28
ATOM     28  C   UNL     1      -5.011   2.688 127.785  0.00  0.00    +0.000 C 
BRANCH  28  29
ATOM     29  C   UNL     1      -4.330   3.999 127.435  0.00  0.00    +0.000 C 
BRANCH  29  30
ATOM     30  O   UNL     1      -5.307   5.024 127.328  0.00  0.00    +0.000 OA
ATOM     31  H   UNL     1      -5.480   5.391 128.208  0.00  0.00    +0.000 HD
ENDBRANCH  29  30
BRANCH  29  32
ATOM     32  C   UNL     1      -3.333   4.338 128.537  0.00  0.00    +0.000 C 
BRANCH  32  33
ATOM     33  C   UNL     1      -2.486   5.543 128.149  0.00  0.00    +0.000 C 
BRANCH  33  34
ATOM     34  C   UNL     1      -2.635   6.587 129.212  0.00  0.00    +0.000 A 
ATOM     35  C   UNL     1      -2.053   6.408 130.468  0.00  0.00    +0.000 A 
ATOM     36  C   UNL     1      -2.429   7.235 131.520  0.00  0.00    +0.000 A 
ATOM     37  C   UNL     1      -3.310   8.295 131.297  0.00  0.00    +0.000 A 
ATOM     38  C   UNL     1      -3.841   8.515 130.029  0.00  0.00    +0.000 A 
ATOM     39  C   UNL     1      -3.505   7.663 128.987  0.00  0.00    +0.000 A 
ENDBRANCH  33  34
ENDBRANCH  32  33
ENDBRANCH  29  32
ENDBRANCH  28  29
ENDBRANCH  27  28
ENDBRANCH   1  27
TORSDOF 22
ENDMDL
