MODEL 1
REMARK VINA RESULT:      -7.5      0.000      0.000
REMARK  Name = Latanoprost
REMARK  19 active torsions:
REMARK  status: ('A' for Active; 'I' for Inactive)
REMARK    1  A    between atoms: C_1  and  C_2
REMARK    2  A    between atoms: C_2  and  C_3
REMARK    3  A    between atoms: C_2  and  O_4
REMARK    4  A    between atoms: O_4  and  C_5
REMARK    5  A    between atoms: C_5  and  C_7
REMARK    6  A    between atoms: C_7  and  C_8
REMARK    7  A    between atoms: C_8  and  C_9
REMARK    8  A    between atoms: C_9  and  C_10
REMARK    9  A    between atoms: C_11  and  C_12
REMARK   10  A    between atoms: C_12  and  C_13
REMARK   11  A    between atoms: C_14  and  O_15
REMARK   12  A    between atoms: C_17  and  O_18
REMARK   13  A    between atoms: C_19  and  C_20
REMARK   14  A    between atoms: C_20  and  C_21
REMARK   15  A    between atoms: C_21  and  C_22
REMARK   16  A    between atoms: C_22  and  O_23
REMARK   17  A    between atoms: C_22  and  C_24
REMARK   18  A    between atoms: C_24  and  C_25
REMARK   19  A    between atoms: C_25  and  C_26
REMARK                            x       y       z     vdW  Elec       q    Type
REMARK                         _______ _______ _______ _____ _____    ______ ____
ROOT
ATOM      1  C   UNL     1      -6.669  -2.833 124.898  0.00  0.00    +0.000 C 
ATOM      2  C   UNL     1      -5.408  -3.201 124.099  0.00  0.00    +0.000 C 
ATOM      3  C   UNL     1      -5.504  -2.468 122.754  0.00  0.00    +0.000 C 
ATOM      4  C   UNL     1      -6.780  -1.626 122.805  0.00  0.00    +0.000 C 
ATOM      5  C   UNL     1      -7.103  -1.479 124.293  0.00  0.00    +0.000 C 
ENDROOT
BRANCH   2   6
ATOM      6  O   UNL     1      -5.221  -4.593 123.916  0.00  0.00    +0.000 OA
ATOM      7  H   UNL     1      -5.128  -4.783 122.968  0.00  0.00    +0.000 HD
ENDBRANCH   2   6
BRANCH   4   8
ATOM      8  O   UNL     1      -7.846  -2.264 122.110  0.00  0.00    +0.000 OA
ATOM      9  H   UNL     1      -7.684  -3.216 122.050  0.00  0.00    +0.000 HD
ENDBRANCH   4   8
BRANCH   1  10
ATOM     10  C   UNL     1      -7.779  -3.877 124.839  0.00  0.00    +0.000 C 
BRANCH  10  12
ATOM     11  C   UNL     1      -9.515  -3.283 126.500  0.00  0.00    +0.000 C 
ATOM     12  C   UNL     1      -9.118  -3.318 125.222  0.00  0.00    +0.000 C 
BRANCH  11  13
ATOM     13  C   UNL     1      -8.640  -3.793 127.610  0.00  0.00    +0.000 C 
BRANCH  13  14
ATOM     14  C   UNL     1      -8.150  -2.667 128.494  0.00  0.00    +0.000 C 
BRANCH  14  15
ATOM     15  C   UNL     1      -7.779  -3.162 129.897  0.00  0.00    +0.000 C 
BRANCH  15  16
ATOM     16  C   UNL     1      -6.393  -3.754 129.849  0.00  0.00    +0.000 C 
ATOM     17  O   UNL     1      -6.108  -4.840 130.352  0.00  0.00    +0.000 OA
BRANCH  16  18
ATOM     18  O   UNL     1      -5.511  -2.954 129.186  0.00  0.00    +0.000 OA
BRANCH  18  20
ATOM     19  C   UNL     1      -3.101  -3.006 129.475  0.00  0.00    +0.000 C 
ATOM     20  C   UNL     1      -4.425  -2.441 129.994  0.00  0.00    +0.000 C 
ATOM     21  C   UNL     1      -4.359  -0.915 129.923  0.00  0.00    +0.000 C 
ENDBRANCH  18  20
ENDBRANCH  16  18
ENDBRANCH  15  16
ENDBRANCH  14  15
ENDBRANCH  13  14
ENDBRANCH  11  13
ENDBRANCH  10  12
ENDBRANCH   1  10
BRANCH   5  22
ATOM     22  C   UNL     1      -6.306  -0.316 124.897  0.00  0.00    +0.000 C 
BRANCH  22  23
ATOM     23  C   UNL     1      -7.217   0.647 125.653  0.00  0.00    +0.000 C 
BRANCH  23  24
ATOM     24  C   UNL     1      -8.344   1.138 124.762  0.00  0.00    +0.000 C 
BRANCH  24  25
ATOM     25  O   UNL     1      -9.088   2.145 125.436  0.00  0.00    +0.000 OA
ATOM     26  H   UNL     1      -8.595   2.389 126.238  0.00  0.00    +0.000 HD
ENDBRANCH  24  25
BRANCH  24  27
ATOM     27  C   UNL     1      -7.756   1.690 123.474  0.00  0.00    +0.000 C 
BRANCH  27  28
ATOM     28  C   UNL     1      -8.602   2.847 122.969  0.00  0.00    +0.000 C 
BRANCH  28  29
ATOM     29  C   UNL     1      -8.010   3.463 121.735  0.00  0.00    +0.000 A 
ATOM     30  C   UNL     1      -8.817   3.775 120.639  0.00  0.00    +0.000 A 
ATOM     31  C   UNL     1      -8.229   4.173 119.440  0.00  0.00    +0.000 A 
ATOM     32  C   UNL     1      -6.849   4.355 119.364  0.00  0.00    +0.000 A 
ATOM     33  C   UNL     1      -6.046   4.108 120.475  0.00  0.00    +0.000 A 
ATOM     34  C   UNL     1      -6.624   3.652 121.653  0.00  0.00    +0.000 A 
ENDBRANCH  28  29
ENDBRANCH  27  28
ENDBRANCH  24  27
ENDBRANCH  23  24
ENDBRANCH  22  23
ENDBRANCH   5  22
TORSDOF 17
ENDMDL
MODEL 2
REMARK VINA RESULT:      -7.5      6.422      9.491
REMARK  Name = Latanoprost
REMARK  19 active torsions:
REMARK  status: ('A' for Active; 'I' for Inactive)
REMARK    1  A    between atoms: C_1  and  C_2
REMARK    2  A    between atoms: C_2  and  C_3
REMARK    3  A    between atoms: C_2  and  O_4
REMARK    4  A    between atoms: O_4  and  C_5
REMARK    5  A    between atoms: C_5  and  C_7
REMARK    6  A    between atoms: C_7  and  C_8
REMARK    7  A    between atoms: C_8  and  C_9
REMARK    8  A    between atoms: C_9  and  C_10
REMARK    9  A    between atoms: C_11  and  C_12
REMARK   10  A    between atoms: C_12  and  C_13
REMARK   11  A    between atoms: C_14  and  O_15
REMARK   12  A    between atoms: C_17  and  O_18
REMARK   13  A    between atoms: C_19  and  C_20
REMARK   14  A    between atoms: C_20  and  C_21
REMARK   15  A    between atoms: C_21  and  C_22
REMARK   16  A    between atoms: C_22  and  O_23
REMARK   17  A    between atoms: C_22  and  C_24
REMARK   18  A    between atoms: C_24  and  C_25
REMARK   19  A    between atoms: C_25  and  C_26
REMARK                            x       y       z     vdW  Elec       q    Type
REMARK                         _______ _______ _______ _____ _____    ______ ____
ROOT
ATOM      1  C   UNL     1      -6.816   3.245 127.291  0.00  0.00    +0.000 C 
ATOM      2  C   UNL     1      -7.824   2.343 126.559  0.00  0.00    +0.000 C 
ATOM      3  C   UNL     1      -8.237   3.084 125.280  0.00  0.00    +0.000 C 
ATOM      4  C   UNL     1      -7.419   4.376 125.240  0.00  0.00    +0.000 C 
ATOM      5  C   UNL     1      -6.227   4.123 126.165  0.00  0.00    +0.000 C 
ENDROOT
BRANCH   2   6
ATOM      6  O   UNL     1      -8.953   1.984 127.335  0.00  0.00    +0.000 OA
ATOM      7  H   UNL     1      -9.750   2.382 126.947  0.00  0.00    +0.000 HD
ENDBRANCH   2   6
BRANCH   4   8
ATOM      8  O   UNL     1      -8.189   5.486 125.686  0.00  0.00    +0.000 OA
ATOM      9  H   UNL     1      -7.881   6.299 125.263  0.00  0.00    +0.000 HD
ENDBRANCH   4   8
BRANCH   1  10
ATOM     10  C   UNL     1      -7.418   4.076 128.420  0.00  0.00    +0.000 C 
BRANCH  10  12
ATOM     11  C   UNL     1      -6.674   5.278 130.451  0.00  0.00    +0.000 C 
ATOM     12  C   UNL     1      -6.374   4.758 129.254  0.00  0.00    +0.000 C 
BRANCH  11  13
ATOM     13  C   UNL     1      -8.062   5.196 131.019  0.00  0.00    +0.000 C 
BRANCH  13  14
ATOM     14  C   UNL     1      -8.775   6.529 130.941  0.00  0.00    +0.000 C 
BRANCH  14  15
ATOM     15  C   UNL     1     -10.206   6.444 131.484  0.00  0.00    +0.000 C 
BRANCH  15  16
ATOM     16  C   UNL     1     -11.161   6.382 130.320  0.00  0.00    +0.000 C 
ATOM     17  O   UNL     1     -11.347   5.362 129.656  0.00  0.00    +0.000 OA
BRANCH  16  18
ATOM     18  O   UNL     1     -11.786   7.573 130.099  0.00  0.00    +0.000 OA
BRANCH  18  20
ATOM     19  C   UNL     1     -12.965   9.050 128.574  0.00  0.00    +0.000 C 
ATOM     20  C   UNL     1     -11.909   7.950 128.706  0.00  0.00    +0.000 C 
ATOM     21  C   UNL     1     -10.584   8.485 128.163  0.00  0.00    +0.000 C 
ENDBRANCH  18  20
ENDBRANCH  16  18
ENDBRANCH  15  16
ENDBRANCH  14  15
ENDBRANCH  13  14
ENDBRANCH  11  13
ENDBRANCH  10  12
ENDBRANCH   1  10
BRANCH   5  22
ATOM     22  C   UNL     1      -5.113   3.389 125.408  0.00  0.00    +0.000 C 
BRANCH  22  23
ATOM     23  C   UNL     1      -3.733   3.863 125.854  0.00  0.00    +0.000 C 
BRANCH  23  24
ATOM     24  C   UNL     1      -3.133   2.907 126.868  0.00  0.00    +0.000 C 
BRANCH  24  25
ATOM     25  O   UNL     1      -1.890   2.412 126.387  0.00  0.00    +0.000 OA
ATOM     26  H   UNL     1      -1.548   1.783 127.045  0.00  0.00    +0.000 HD
ENDBRANCH  24  25
BRANCH  24  27
ATOM     27  C   UNL     1      -2.934   3.639 128.185  0.00  0.00    +0.000 C 
BRANCH  27  28
ATOM     28  C   UNL     1      -2.513   5.076 127.925  0.00  0.00    +0.000 C 
BRANCH  28  29
ATOM     29  C   UNL     1      -3.033   6.002 128.986  0.00  0.00    +0.000 A 
ATOM     30  C   UNL     1      -3.625   7.218 128.640  0.00  0.00    +0.000 A 
ATOM     31  C   UNL     1      -3.934   8.143 129.634  0.00  0.00    +0.000 A 
ATOM     32  C   UNL     1      -3.744   7.816 130.977  0.00  0.00    +0.000 A 
ATOM     33  C   UNL     1      -3.214   6.578 131.329  0.00  0.00    +0.000 A 
ATOM     34  C   UNL     1      -2.849   5.678 130.336  0.00  0.00    +0.000 A 
ENDBRANCH  28  29
ENDBRANCH  27  28
ENDBRANCH  24  27
ENDBRANCH  23  24
ENDBRANCH  22  23
ENDBRANCH   5  22
TORSDOF 17
ENDMDL
MODEL 3
REMARK VINA RESULT:      -7.4      2.075      2.944
REMARK  Name = Latanoprost
REMARK  19 active torsions:
REMARK  status: ('A' for Active; 'I' for Inactive)
REMARK    1  A    between atoms: C_1  and  C_2
REMARK    2  A    between atoms: C_2  and  C_3
REMARK    3  A    between atoms: C_2  and  O_4
REMARK    4  A    between atoms: O_4  and  C_5
REMARK    5  A    between atoms: C_5  and  C_7
REMARK    6  A    between atoms: C_7  and  C_8
REMARK    7  A    between atoms: C_8  and  C_9
REMARK    8  A    between atoms: C_9  and  C_10
REMARK    9  A    between atoms: C_11  and  C_12
REMARK   10  A    between atoms: C_12  and  C_13
REMARK   11  A    between atoms: C_14  and  O_15
REMARK   12  A    between atoms: C_17  and  O_18
REMARK   13  A    between atoms: C_19  and  C_20
REMARK   14  A    between atoms: C_20  and  C_21
REMARK   15  A    between atoms: C_21  and  C_22
REMARK   16  A    between atoms: C_22  and  O_23
REMARK   17  A    between atoms: C_22  and  C_24
REMARK   18  A    between atoms: C_24  and  C_25
REMARK   19  A    between atoms: C_25  and  C_26
REMARK                            x       y       z     vdW  Elec       q    Type
REMARK                         _______ _______ _______ _____ _____    ______ ____
ROOT
ATOM      1  C   UNL     1      -6.521  -2.943 125.009  0.00  0.00    +0.000 C 
ATOM      2  C   UNL     1      -5.282  -3.393 124.216  0.00  0.00    +0.000 C 
ATOM      3  C   UNL     1      -5.201  -2.497 122.972  0.00  0.00    +0.000 C 
ATOM      4  C   UNL     1      -6.347  -1.491 123.083  0.00  0.00    +0.000 C 
ATOM      5  C   UNL     1      -6.727  -1.478 124.565  0.00  0.00    +0.000 C 
ENDROOT
BRANCH   2   6
ATOM      6  O   UNL     1      -5.282  -4.765 123.865  0.00  0.00    +0.000 OA
ATOM      7  H   UNL     1      -4.491  -5.191 124.233  0.00  0.00    +0.000 HD
ENDBRANCH   2   6
BRANCH   4   8
ATOM      8  O   UNL     1      -7.452  -1.878 122.274  0.00  0.00    +0.000 OA
ATOM      9  H   UNL     1      -8.235  -2.021 122.823  0.00  0.00    +0.000 HD
ENDBRANCH   4   8
BRANCH   1  10
ATOM     10  C   UNL     1      -7.762  -3.800 124.777  0.00  0.00    +0.000 C 
BRANCH  10  12
ATOM     11  C   UNL     1      -9.550  -3.227 126.390  0.00  0.00    +0.000 C 
ATOM     12  C   UNL     1      -9.029  -3.095 125.163  0.00  0.00    +0.000 C 
BRANCH  11  13
ATOM     13  C   UNL     1      -8.890  -4.077 127.438  0.00  0.00    +0.000 C 
BRANCH  13  14
ATOM     14  C   UNL     1      -8.677  -3.310 128.725  0.00  0.00    +0.000 C 
BRANCH  14  15
ATOM     15  C   UNL     1      -7.227  -3.402 129.212  0.00  0.00    +0.000 C 
BRANCH  15  16
ATOM     16  C   UNL     1      -7.063  -2.505 130.412  0.00  0.00    +0.000 C 
ATOM     17  O   UNL     1      -7.890  -1.652 130.733  0.00  0.00    +0.000 OA
BRANCH  16  18
ATOM     18  O   UNL     1      -5.907  -2.754 131.091  0.00  0.00    +0.000 OA
BRANCH  18  20
ATOM     19  C   UNL     1      -3.776  -3.641 130.337  0.00  0.00    +0.000 C 
ATOM     20  C   UNL     1      -5.223  -3.971 130.707  0.00  0.00    +0.000 C 
ATOM     21  C   UNL     1      -5.209  -4.979 131.857  0.00  0.00    +0.000 C 
ENDBRANCH  18  20
ENDBRANCH  16  18
ENDBRANCH  15  16
ENDBRANCH  14  15
ENDBRANCH  13  14
ENDBRANCH  11  13
ENDBRANCH  10  12
ENDBRANCH   1  10
BRANCH   5  22
ATOM     22  C   UNL     1      -5.808  -0.525 125.341  0.00  0.00    +0.000 C 
BRANCH  22  23
ATOM     23  C   UNL     1      -5.698  -0.932 126.807  0.00  0.00    +0.000 C 
BRANCH  23  24
ATOM     24  C   UNL     1      -6.347   0.103 127.708  0.00  0.00    +0.000 C 
BRANCH  24  25
ATOM     25  O   UNL     1      -5.865   1.399 127.378  0.00  0.00    +0.000 OA
ATOM     26  H   UNL     1      -6.399   1.733 126.637  0.00  0.00    +0.000 HD
ENDBRANCH  24  25
BRANCH  24  27
ATOM     27  C   UNL     1      -7.855   0.041 127.531  0.00  0.00    +0.000 C 
BRANCH  27  28
ATOM     28  C   UNL     1      -8.405   1.430 127.254  0.00  0.00    +0.000 C 
BRANCH  28  29
ATOM     29  C   UNL     1      -8.789   1.592 125.813  0.00  0.00    +0.000 A 
ATOM     30  C   UNL     1      -9.550   0.616 125.165  0.00  0.00    +0.000 A 
ATOM     31  C   UNL     1      -9.740   0.691 123.788  0.00  0.00    +0.000 A 
ATOM     32  C   UNL     1      -9.259   1.788 123.073  0.00  0.00    +0.000 A 
ATOM     33  C   UNL     1      -8.556   2.796 123.726  0.00  0.00    +0.000 A 
ATOM     34  C   UNL     1      -8.312   2.693 125.090  0.00  0.00    +0.000 A 
ENDBRANCH  28  29
ENDBRANCH  27  28
ENDBRANCH  24  27
ENDBRANCH  23  24
ENDBRANCH  22  23
ENDBRANCH   5  22
TORSDOF 17
ENDMDL
MODEL 4
REMARK VINA RESULT:      -7.4      2.976      5.906
REMARK  Name = Latanoprost
REMARK  19 active torsions:
REMARK  status: ('A' for Active; 'I' for Inactive)
REMARK    1  A    between atoms: C_1  and  C_2
REMARK    2  A    between atoms: C_2  and  C_3
REMARK    3  A    between atoms: C_2  and  O_4
REMARK    4  A    between atoms: O_4  and  C_5
REMARK    5  A    between atoms: C_5  and  C_7
REMARK    6  A    between atoms: C_7  and  C_8
REMARK    7  A    between atoms: C_8  and  C_9
REMARK    8  A    between atoms: C_9  and  C_10
REMARK    9  A    between atoms: C_11  and  C_12
REMARK   10  A    between atoms: C_12  and  C_13
REMARK   11  A    between atoms: C_14  and  O_15
REMARK   12  A    between atoms: C_17  and  O_18
REMARK   13  A    between atoms: C_19  and  C_20
REMARK   14  A    between atoms: C_20  and  C_21
REMARK   15  A    between atoms: C_21  and  C_22
REMARK   16  A    between atoms: C_22  and  O_23
REMARK   17  A    between atoms: C_22  and  C_24
REMARK   18  A    between atoms: C_24  and  C_25
REMARK   19  A    between atoms: C_25  and  C_26
REMARK                            x       y       z     vdW  Elec       q    Type
REMARK                         _______ _______ _______ _____ _____    ______ ____
ROOT
ATOM      1  C   UNL     1      -6.900  -1.511 127.266  0.00  0.00    +0.000 C 
ATOM      2  C   UNL     1      -5.736  -2.273 127.922  0.00  0.00    +0.000 C 
ATOM      3  C   UNL     1      -6.323  -3.044 129.111  0.00  0.00    +0.000 C 
ATOM      4  C   UNL     1      -7.831  -2.784 129.099  0.00  0.00    +0.000 C 
ATOM      5  C   UNL     1      -8.147  -2.326 127.674  0.00  0.00    +0.000 C 
ENDROOT
BRANCH   2   6
ATOM      6  O   UNL     1      -4.655  -1.451 128.323  0.00  0.00    +0.000 OA
ATOM      7  H   UNL     1      -3.852  -1.991 128.402  0.00  0.00    +0.000 HD
ENDBRANCH   2   6
BRANCH   4   8
ATOM      8  O   UNL     1      -8.188  -1.787 130.050  0.00  0.00    +0.000 OA
ATOM      9  H   UNL     1      -8.429  -2.197 130.891  0.00  0.00    +0.000 HD
ENDBRANCH   4   8
BRANCH   1  10
ATOM     10  C   UNL     1      -7.005  -0.046 127.678  0.00  0.00    +0.000 C 
BRANCH  10  12
ATOM     11  C   UNL     1      -8.211   1.898 126.733  0.00  0.00    +0.000 C 
ATOM     12  C   UNL     1      -8.234   0.620 127.134  0.00  0.00    +0.000 C 
BRANCH  11  13
ATOM     13  C   UNL     1      -6.956   2.722 126.802  0.00  0.00    +0.000 C 
BRANCH  13  14
ATOM     14  C   UNL     1      -7.202   4.148 126.363  0.00  0.00    +0.000 C 
BRANCH  14  15
ATOM     15  C   UNL     1      -6.055   4.687 125.501  0.00  0.00    +0.000 C 
BRANCH  15  16
ATOM     16  C   UNL     1      -4.836   4.855 126.371  0.00  0.00    +0.000 C 
ATOM     17  O   UNL     1      -4.765   5.684 127.278  0.00  0.00    +0.000 OA
BRANCH  16  18
ATOM     18  O   UNL     1      -3.839   3.986 126.039  0.00  0.00    +0.000 OA
BRANCH  18  20
ATOM     19  C   UNL     1      -3.563   2.722 128.094  0.00  0.00    +0.000 C 
ATOM     20  C   UNL     1      -2.907   3.689 127.106  0.00  0.00    +0.000 C 
ATOM     21  C   UNL     1      -1.637   3.033 126.560  0.00  0.00    +0.000 C 
ENDBRANCH  18  20
ENDBRANCH  16  18
ENDBRANCH  15  16
ENDBRANCH  14  15
ENDBRANCH  13  14
ENDBRANCH  11  13
ENDBRANCH  10  12
ENDBRANCH   1  10
BRANCH   5  22
ATOM     22  C   UNL     1      -8.345  -3.540 126.758  0.00  0.00    +0.000 C 
BRANCH  22  23
ATOM     23  C   UNL     1      -7.774  -3.283 125.366  0.00  0.00    +0.000 C 
BRANCH  23  24
ATOM     24  C   UNL     1      -8.855  -3.399 124.307  0.00  0.00    +0.000 C 
BRANCH  24  25
ATOM     25  O   UNL     1     -10.117  -3.059 124.867  0.00  0.00    +0.000 OA
ATOM     26  H   UNL     1     -10.313  -2.140 124.616  0.00  0.00    +0.000 HD
ENDBRANCH  24  25
BRANCH  24  27
ATOM     27  C   UNL     1      -8.523  -2.469 123.153  0.00  0.00    +0.000 C 
BRANCH  27  28
ATOM     28  C   UNL     1      -7.431  -1.495 123.565  0.00  0.00    +0.000 C 
BRANCH  28  29
ATOM     29  C   UNL     1      -7.905  -0.074 123.492  0.00  0.00    +0.000 A 
ATOM     30  C   UNL     1      -9.269   0.224 123.549  0.00  0.00    +0.000 A 
ATOM     31  C   UNL     1      -9.702   1.524 123.297  0.00  0.00    +0.000 A 
ATOM     32  C   UNL     1      -8.773   2.543 123.087  0.00  0.00    +0.000 A 
ATOM     33  C   UNL     1      -7.410   2.262 123.094  0.00  0.00    +0.000 A 
ATOM     34  C   UNL     1      -6.978   0.955 123.284  0.00  0.00    +0.000 A 
ENDBRANCH  28  29
ENDBRANCH  27  28
ENDBRANCH  24  27
ENDBRANCH  23  24
ENDBRANCH  22  23
ENDBRANCH   5  22
TORSDOF 17
ENDMDL
MODEL 5
REMARK VINA RESULT:      -7.2      2.759      5.939
REMARK  Name = Latanoprost
REMARK  19 active torsions:
REMARK  status: ('A' for Active; 'I' for Inactive)
REMARK    1  A    between atoms: C_1  and  C_2
REMARK    2  A    between atoms: C_2  and  C_3
REMARK    3  A    between atoms: C_2  and  O_4
REMARK    4  A    between atoms: O_4  and  C_5
REMARK    5  A    between atoms: C_5  and  C_7
REMARK    6  A    between atoms: C_7  and  C_8
REMARK    7  A    between atoms: C_8  and  C_9
REMARK    8  A    between atoms: C_9  and  C_10
REMARK    9  A    between atoms: C_11  and  C_12
REMARK   10  A    between atoms: C_12  and  C_13
REMARK   11  A    between atoms: C_14  and  O_15
REMARK   12  A    between atoms: C_17  and  O_18
REMARK   13  A    between atoms: C_19  and  C_20
REMARK   14  A    between atoms: C_20  and  C_21
REMARK   15  A    between atoms: C_21  and  C_22
REMARK   16  A    between atoms: C_22  and  O_23
REMARK   17  A    between atoms: C_22  and  C_24
REMARK   18  A    between atoms: C_24  and  C_25
REMARK   19  A    between atoms: C_25  and  C_26
REMARK                            x       y       z     vdW  Elec       q    Type
REMARK                         _______ _______ _______ _____ _____    ______ ____
ROOT
ATOM      1  C   UNL     1      -6.901  -1.414 127.189  0.00  0.00    +0.000 C 
ATOM      2  C   UNL     1      -5.784  -2.245 127.843  0.00  0.00    +0.000 C 
ATOM      3  C   UNL     1      -6.390  -2.895 129.095  0.00  0.00    +0.000 C 
ATOM      4  C   UNL     1      -7.866  -2.498 129.123  0.00  0.00    +0.000 C 
ATOM      5  C   UNL     1      -8.198  -2.088 127.687  0.00  0.00    +0.000 C 
ENDROOT
BRANCH   2   6
ATOM      6  O   UNL     1      -4.618  -1.506 128.159  0.00  0.00    +0.000 OA
ATOM      7  H   UNL     1      -4.220  -1.864 128.969  0.00  0.00    +0.000 HD
ENDBRANCH   2   6
BRANCH   4   8
ATOM      8  O   UNL     1      -8.092  -1.423 130.028  0.00  0.00    +0.000 OA
ATOM      9  H   UNL     1      -8.158  -0.587 129.546  0.00  0.00    +0.000 HD
ENDBRANCH   4   8
BRANCH   1  10
ATOM     10  C   UNL     1      -6.855   0.074 127.521  0.00  0.00    +0.000 C 
BRANCH  10  12
ATOM     11  C   UNL     1      -8.695   1.688 127.890  0.00  0.00    +0.000 C 
ATOM     12  C   UNL     1      -8.095   0.800 127.087  0.00  0.00    +0.000 C 
BRANCH  11  13
ATOM     13  C   UNL     1      -8.154   2.007 129.255  0.00  0.00    +0.000 C 
BRANCH  13  14
ATOM     14  C   UNL     1      -7.820   3.476 129.393  0.00  0.00    +0.000 C 
BRANCH  14  15
ATOM     15  C   UNL     1      -6.310   3.710 129.517  0.00  0.00    +0.000 C 
BRANCH  15  16
ATOM     16  C   UNL     1      -5.715   3.765 128.134  0.00  0.00    +0.000 C 
ATOM     17  O   UNL     1      -4.838   2.993 127.747  0.00  0.00    +0.000 OA
BRANCH  16  18
ATOM     18  O   UNL     1      -6.261   4.757 127.375  0.00  0.00    +0.000 OA
BRANCH  18  20
ATOM     19  C   UNL     1      -8.177   4.873 125.888  0.00  0.00    +0.000 C 
ATOM     20  C   UNL     1      -6.759   4.333 126.083  0.00  0.00    +0.000 C 
ATOM     21  C   UNL     1      -5.879   4.869 124.952  0.00  0.00    +0.000 C 
ENDBRANCH  18  20
ENDBRANCH  16  18
ENDBRANCH  15  16
ENDBRANCH  14  15
ENDBRANCH  13  14
ENDBRANCH  11  13
ENDBRANCH  10  12
ENDBRANCH   1  10
BRANCH   5  22
ATOM     22  C   UNL     1      -8.543  -3.325 126.848  0.00  0.00    +0.000 C 
BRANCH  22  23
ATOM     23  C   UNL     1      -9.516  -2.979 125.724  0.00  0.00    +0.000 C 
BRANCH  23  24
ATOM     24  C   UNL     1      -9.089  -3.627 124.419  0.00  0.00    +0.000 C 
BRANCH  24  25
ATOM     25  O   UNL     1     -10.127  -3.502 123.456  0.00  0.00    +0.000 OA
ATOM     26  H   UNL     1     -10.101  -4.291 122.889  0.00  0.00    +0.000 HD
ENDBRANCH  24  25
BRANCH  24  27
ATOM     27  C   UNL     1      -7.823  -2.951 123.919  0.00  0.00    +0.000 C 
BRANCH  27  28
ATOM     28  C   UNL     1      -8.140  -2.067 122.725  0.00  0.00    +0.000 C 
BRANCH  28  29
ATOM     29  C   UNL     1      -8.232  -0.622 123.119  0.00  0.00    +0.000 A 
ATOM     30  C   UNL     1      -9.463   0.038 123.121  0.00  0.00    +0.000 A 
ATOM     31  C   UNL     1      -9.507   1.417 123.310  0.00  0.00    +0.000 A 
ATOM     32  C   UNL     1      -8.337   2.122 123.594  0.00  0.00    +0.000 A 
ATOM     33  C   UNL     1      -7.115   1.457 123.658  0.00  0.00    +0.000 A 
ATOM     34  C   UNL     1      -7.061   0.091 123.409  0.00  0.00    +0.000 A 
ENDBRANCH  28  29
ENDBRANCH  27  28
ENDBRANCH  24  27
ENDBRANCH  23  24
ENDBRANCH  22  23
ENDBRANCH   5  22
TORSDOF 17
ENDMDL
MODEL 6
REMARK VINA RESULT:      -7.2      7.042     11.264
REMARK  Name = Latanoprost
REMARK  19 active torsions:
REMARK  status: ('A' for Active; 'I' for Inactive)
REMARK    1  A    between atoms: C_1  and  C_2
REMARK    2  A    between atoms: C_2  and  C_3
REMARK    3  A    between atoms: C_2  and  O_4
REMARK    4  A    between atoms: O_4  and  C_5
REMARK    5  A    between atoms: C_5  and  C_7
REMARK    6  A    between atoms: C_7  and  C_8
REMARK    7  A    between atoms: C_8  and  C_9
REMARK    8  A    between atoms: C_9  and  C_10
REMARK    9  A    between atoms: C_11  and  C_12
REMARK   10  A    between atoms: C_12  and  C_13
REMARK   11  A    between atoms: C_14  and  O_15
REMARK   12  A    between atoms: C_17  and  O_18
REMARK   13  A    between atoms: C_19  and  C_20
REMARK   14  A    between atoms: C_20  and  C_21
REMARK   15  A    between atoms: C_21  and  C_22
REMARK   16  A    between atoms: C_22  and  O_23
REMARK   17  A    between atoms: C_22  and  C_24
REMARK   18  A    between atoms: C_24  and  C_25
REMARK   19  A    between atoms: C_25  and  C_26
REMARK                            x       y       z     vdW  Elec       q    Type
REMARK                         _______ _______ _______ _____ _____    ______ ____
ROOT
ATOM      1  C   UNL     1      -4.591   6.130 129.775  0.00  0.00    +0.000 C 
ATOM      2  C   UNL     1      -3.636   6.762 128.749  0.00  0.00    +0.000 C 
ATOM      3  C   UNL     1      -2.209   6.484 129.240  0.00  0.00    +0.000 C 
ATOM      4  C   UNL     1      -2.339   5.635 130.505  0.00  0.00    +0.000 C 
ATOM      5  C   UNL     1      -3.739   5.022 130.433  0.00  0.00    +0.000 C 
ENDROOT
BRANCH   2   6
ATOM      6  O   UNL     1      -3.848   8.146 128.534  0.00  0.00    +0.000 OA
ATOM      7  H   UNL     1      -4.162   8.555 129.357  0.00  0.00    +0.000 HD
ENDBRANCH   2   6
BRANCH   4   8
ATOM      8  O   UNL     1      -2.187   6.430 131.676  0.00  0.00    +0.000 OA
ATOM      9  H   UNL     1      -1.794   7.284 131.452  0.00  0.00    +0.000 HD
ENDBRANCH   4   8
BRANCH   1  10
ATOM     10  C   UNL     1      -5.157   7.111 130.798  0.00  0.00    +0.000 C 
BRANCH  10  12
ATOM     11  C   UNL     1      -7.218   6.355 131.942  0.00  0.00    +0.000 C 
ATOM     12  C   UNL     1      -5.880   6.422 131.918  0.00  0.00    +0.000 C 
BRANCH  11  13
ATOM     13  C   UNL     1      -8.056   6.956 130.849  0.00  0.00    +0.000 C 
BRANCH  13  14
ATOM     14  C   UNL     1      -9.133   6.001 130.384  0.00  0.00    +0.000 C 
BRANCH  14  15
ATOM     15  C   UNL     1     -10.525   6.640 130.435  0.00  0.00    +0.000 C 
BRANCH  15  16
ATOM     16  C   UNL     1     -11.483   5.772 129.662  0.00  0.00    +0.000 C 
ATOM     17  O   UNL     1     -11.633   4.570 129.884  0.00  0.00    +0.000 OA
BRANCH  16  18
ATOM     18  O   UNL     1     -12.158   6.470 128.705  0.00  0.00    +0.000 OA
BRANCH  18  20
ATOM     19  C   UNL     1     -11.028   7.878 127.081  0.00  0.00    +0.000 C 
ATOM     20  C   UNL     1     -11.669   7.812 128.469  0.00  0.00    +0.000 C 
ATOM     21  C   UNL     1     -12.809   8.830 128.522  0.00  0.00    +0.000 C 
ENDBRANCH  18  20
ENDBRANCH  16  18
ENDBRANCH  15  16
ENDBRANCH  14  15
ENDBRANCH  13  14
ENDBRANCH  11  13
ENDBRANCH  10  12
ENDBRANCH   1  10
BRANCH   5  22
ATOM     22  C   UNL     1      -3.719   3.750 129.576  0.00  0.00    +0.000 C 
BRANCH  22  23
ATOM     23  C   UNL     1      -4.724   2.721 130.086  0.00  0.00    +0.000 C 
BRANCH  23  24
ATOM     24  C   UNL     1      -6.025   2.804 129.309  0.00  0.00    +0.000 C 
BRANCH  24  25
ATOM     25  O   UNL     1      -6.086   1.749 128.357  0.00  0.00    +0.000 OA
ATOM     26  H   UNL     1      -6.496   2.103 127.550  0.00  0.00    +0.000 HD
ENDBRANCH  24  25
BRANCH  24  27
ATOM     27  C   UNL     1      -7.191   2.707 130.279  0.00  0.00    +0.000 C 
BRANCH  27  28
ATOM     28  C   UNL     1      -6.734   2.074 131.582  0.00  0.00    +0.000 C 
BRANCH  28  29
ATOM     29  C   UNL     1      -7.292   2.799 132.771  0.00  0.00    +0.000 A 
ATOM     30  C   UNL     1      -8.664   3.038 132.878  0.00  0.00    +0.000 A 
ATOM     31  C   UNL     1      -9.143   3.868 133.889  0.00  0.00    +0.000 A 
ATOM     32  C   UNL     1      -8.268   4.377 134.850  0.00  0.00    +0.000 A 
ATOM     33  C   UNL     1      -6.909   4.087 134.785  0.00  0.00    +0.000 A 
ATOM     34  C   UNL     1      -6.420   3.310 133.742  0.00  0.00    +0.000 A 
ENDBRANCH  28  29
ENDBRANCH  27  28
ENDBRANCH  24  27
ENDBRANCH  23  24
ENDBRANCH  22  23
ENDBRANCH   5  22
TORSDOF 17
ENDMDL
MODEL 7
REMARK VINA RESULT:      -7.2      2.429      7.334
REMARK  Name = Latanoprost
REMARK  19 active torsions:
REMARK  status: ('A' for Active; 'I' for Inactive)
REMARK    1  A    between atoms: C_1  and  C_2
REMARK    2  A    between atoms: C_2  and  C_3
REMARK    3  A    between atoms: C_2  and  O_4
REMARK    4  A    between atoms: O_4  and  C_5
REMARK    5  A    between atoms: C_5  and  C_7
REMARK    6  A    between atoms: C_7  and  C_8
REMARK    7  A    between atoms: C_8  and  C_9
REMARK    8  A    between atoms: C_9  and  C_10
REMARK    9  A    between atoms: C_11  and  C_12
REMARK   10  A    between atoms: C_12  and  C_13
REMARK   11  A    between atoms: C_14  and  O_15
REMARK   12  A    between atoms: C_17  and  O_18
REMARK   13  A    between atoms: C_19  and  C_20
REMARK   14  A    between atoms: C_20  and  C_21
REMARK   15  A    between atoms: C_21  and  C_22
REMARK   16  A    between atoms: C_22  and  O_23
REMARK   17  A    between atoms: C_22  and  C_24
REMARK   18  A    between atoms: C_24  and  C_25
REMARK   19  A    between atoms: C_25  and  C_26
REMARK                            x       y       z     vdW  Elec       q    Type
REMARK                         _______ _______ _______ _____ _____    ______ ____
ROOT
ATOM      1  C   UNL     1      -9.148  -1.861 125.767  0.00  0.00    +0.000 C 
ATOM      2  C   UNL     1      -9.221  -3.190 124.996  0.00  0.00    +0.000 C 
ATOM      3  C   UNL     1      -7.775  -3.632 124.735  0.00  0.00    +0.000 C 
ATOM      4  C   UNL     1      -6.873  -2.600 125.413  0.00  0.00    +0.000 C 
ATOM      5  C   UNL     1      -7.762  -1.909 126.449  0.00  0.00    +0.000 C 
ENDROOT
BRANCH   2   6
ATOM      6  O   UNL     1      -9.966  -3.124 123.794  0.00  0.00    +0.000 OA
ATOM      7  H   UNL     1      -9.448  -3.519 123.073  0.00  0.00    +0.000 HD
ENDBRANCH   2   6
BRANCH   4   8
ATOM      8  O   UNL     1      -6.362  -1.665 124.470  0.00  0.00    +0.000 OA
ATOM      9  H   UNL     1      -6.004  -2.127 123.700  0.00  0.00    +0.000 HD
ENDBRANCH   4   8
BRANCH   1  10
ATOM     10  C   UNL     1      -9.325  -0.619 124.899  0.00  0.00    +0.000 C 
BRANCH  10  12
ATOM     11  C   UNL     1      -9.024   1.835 125.024  0.00  0.00    +0.000 C 
ATOM     12  C   UNL     1      -9.060   0.652 125.652  0.00  0.00    +0.000 C 
BRANCH  11  13
ATOM     13  C   UNL     1      -9.253   1.947 123.543  0.00  0.00    +0.000 C 
BRANCH  13  14
ATOM     14  C   UNL     1      -8.362   2.999 122.920  0.00  0.00    +0.000 C 
BRANCH  14  15
ATOM     15  C   UNL     1      -6.938   2.479 122.689  0.00  0.00    +0.000 C 
BRANCH  15  16
ATOM     16  C   UNL     1      -6.119   3.577 122.061  0.00  0.00    +0.000 C 
ATOM     17  O   UNL     1      -5.555   4.455 122.715  0.00  0.00    +0.000 OA
BRANCH  16  18
ATOM     18  O   UNL     1      -6.075   3.478 120.702  0.00  0.00    +0.000 OA
BRANCH  18  20
ATOM     19  C   UNL     1      -5.383   5.428 119.432  0.00  0.00    +0.000 C 
ATOM     20  C   UNL     1      -6.569   4.637 119.989  0.00  0.00    +0.000 C 
ATOM     21  C   UNL     1      -7.464   4.223 118.820  0.00  0.00    +0.000 C 
ENDBRANCH  18  20
ENDBRANCH  16  18
ENDBRANCH  15  16
ENDBRANCH  14  15
ENDBRANCH  13  14
ENDBRANCH  11  13
ENDBRANCH  10  12
ENDBRANCH   1  10
BRANCH   5  22
ATOM     22  C   UNL     1      -7.805  -2.729 127.744  0.00  0.00    +0.000 C 
BRANCH  22  23
ATOM     23  C   UNL     1      -6.922  -2.109 128.823  0.00  0.00    +0.000 C 
BRANCH  23  24
ATOM     24  C   UNL     1      -7.694  -1.080 129.629  0.00  0.00    +0.000 C 
BRANCH  24  25
ATOM     25  O   UNL     1      -8.004  -1.606 130.913  0.00  0.00    +0.000 OA
ATOM     26  H   UNL     1      -8.054  -2.574 130.831  0.00  0.00    +0.000 HD
ENDBRANCH  24  25
BRANCH  24  27
ATOM     27  C   UNL     1      -6.854   0.179 129.764  0.00  0.00    +0.000 C 
BRANCH  27  28
ATOM     28  C   UNL     1      -7.503   1.324 129.005  0.00  0.00    +0.000 C 
BRANCH  28  29
ATOM     29  C   UNL     1      -6.594   1.862 127.939  0.00  0.00    +0.000 A 
ATOM     30  C   UNL     1      -6.683   3.197 127.537  0.00  0.00    +0.000 A 
ATOM     31  C   UNL     1      -5.963   3.631 126.426  0.00  0.00    +0.000 A 
ATOM     32  C   UNL     1      -5.082   2.765 125.780  0.00  0.00    +0.000 A 
ATOM     33  C   UNL     1      -4.941   1.452 126.219  0.00  0.00    +0.000 A 
ATOM     34  C   UNL     1      -5.703   0.998 127.289  0.00  0.00    +0.000 A 
ENDBRANCH  28  29
ENDBRANCH  27  28
ENDBRANCH  24  27
ENDBRANCH  23  24
ENDBRANCH  22  23
ENDBRANCH   5  22
TORSDOF 17
ENDMDL
MODEL 8
REMARK VINA RESULT:      -7.2      1.625      2.109
REMARK  Name = Latanoprost
REMARK  19 active torsions:
REMARK  status: ('A' for Active; 'I' for Inactive)
REMARK    1  A    between atoms: C_1  and  C_2
REMARK    2  A    between atoms: C_2  and  C_3
REMARK    3  A    between atoms: C_2  and  O_4
REMARK    4  A    between atoms: O_4  and  C_5
REMARK    5  A    between atoms: C_5  and  C_7
REMARK    6  A    between atoms: C_7  and  C_8
REMARK    7  A    between atoms: C_8  and  C_9
REMARK    8  A    between atoms: C_9  and  C_10
REMARK    9  A    between atoms: C_11  and  C_12
REMARK   10  A    between atoms: C_12  and  C_13
REMARK   11  A    between atoms: C_14  and  O_15
REMARK   12  A    between atoms: C_17  and  O_18
REMARK   13  A    between atoms: C_19  and  C_20
REMARK   14  A    between atoms: C_20  and  C_21
REMARK   15  A    between atoms: C_21  and  C_22
REMARK   16  A    between atoms: C_22  and  O_23
REMARK   17  A    between atoms: C_22  and  C_24
REMARK   18  A    between atoms: C_24  and  C_25
REMARK   19  A    between atoms: C_25  and  C_26
REMARK                            x       y       z     vdW  Elec       q    Type
REMARK                         _______ _______ _______ _____ _____    ______ ____
ROOT
ATOM      1  C   UNL     1      -6.472  -2.915 125.003  0.00  0.00    +0.000 C 
ATOM      2  C   UNL     1      -5.273  -3.389 124.165  0.00  0.00    +0.000 C 
ATOM      3  C   UNL     1      -5.291  -2.575 122.864  0.00  0.00    +0.000 C 
ATOM      4  C   UNL     1      -6.453  -1.588 122.982  0.00  0.00    +0.000 C 
ATOM      5  C   UNL     1      -6.741  -1.486 124.481  0.00  0.00    +0.000 C 
ENDROOT
BRANCH   2   6
ATOM      6  O   UNL     1      -5.261  -4.781 123.903  0.00  0.00    +0.000 OA
ATOM      7  H   UNL     1      -5.764  -4.960 123.091  0.00  0.00    +0.000 HD
ENDBRANCH   2   6
BRANCH   4   8
ATOM      8  O   UNL     1      -7.595  -2.050 122.270  0.00  0.00    +0.000 OA
ATOM      9  H   UNL     1      -7.523  -2.999 122.101  0.00  0.00    +0.000 HD
ENDBRANCH   4   8
BRANCH   1  10
ATOM     10  C   UNL     1      -7.703  -3.811 124.904  0.00  0.00    +0.000 C 
BRANCH  10  12
ATOM     11  C   UNL     1      -9.504  -3.232 126.501  0.00  0.00    +0.000 C 
ATOM     12  C   UNL     1      -8.968  -3.096 125.281  0.00  0.00    +0.000 C 
BRANCH  11  13
ATOM     13  C   UNL     1      -8.863  -4.096 127.551  0.00  0.00    +0.000 C 
BRANCH  13  14
ATOM     14  C   UNL     1      -8.489  -3.295 128.779  0.00  0.00    +0.000 C 
BRANCH  14  15
ATOM     15  C   UNL     1      -7.620  -2.082 128.427  0.00  0.00    +0.000 C 
BRANCH  15  16
ATOM     16  C   UNL     1      -7.151  -1.438 129.706  0.00  0.00    +0.000 C 
ATOM     17  O   UNL     1      -7.427  -0.279 130.017  0.00  0.00    +0.000 OA
BRANCH  16  18
ATOM     18  O   UNL     1      -6.400  -2.283 130.467  0.00  0.00    +0.000 OA
BRANCH  18  20
ATOM     19  C   UNL     1      -4.066  -2.079 129.828  0.00  0.00    +0.000 C 
ATOM     20  C   UNL     1      -5.324  -2.948 129.762  0.00  0.00    +0.000 C 
ATOM     21  C   UNL     1      -5.007  -4.304 130.394  0.00  0.00    +0.000 C 
ENDBRANCH  18  20
ENDBRANCH  16  18
ENDBRANCH  15  16
ENDBRANCH  14  15
ENDBRANCH  13  14
ENDBRANCH  11  13
ENDBRANCH  10  12
ENDBRANCH   1  10
BRANCH   5  22
ATOM     22  C   UNL     1      -5.802  -0.466 125.136  0.00  0.00    +0.000 C 
BRANCH  22  23
ATOM     23  C   UNL     1      -6.519   0.853 125.408  0.00  0.00    +0.000 C 
BRANCH  23  24
ATOM     24  C   UNL     1      -5.677   1.755 126.291  0.00  0.00    +0.000 C 
BRANCH  24  25
ATOM     25  O   UNL     1      -4.515   1.059 126.724  0.00  0.00    +0.000 OA
ATOM     26  H   UNL     1      -4.807   0.305 127.264  0.00  0.00    +0.000 HD
ENDBRANCH  24  25
BRANCH  24  27
ATOM     27  C   UNL     1      -5.285   2.996 125.506  0.00  0.00    +0.000 C 
BRANCH  27  28
ATOM     28  C   UNL     1      -6.486   3.532 124.745  0.00  0.00    +0.000 C 
BRANCH  28  29
ATOM     29  C   UNL     1      -6.144   3.823 123.313  0.00  0.00    +0.000 A 
ATOM     30  C   UNL     1      -6.918   3.298 122.276  0.00  0.00    +0.000 A 
ATOM     31  C   UNL     1      -6.485   3.424 120.959  0.00  0.00    +0.000 A 
ATOM     32  C   UNL     1      -5.334   4.158 120.668  0.00  0.00    +0.000 A 
ATOM     33  C   UNL     1      -4.595   4.739 121.694  0.00  0.00    +0.000 A 
ATOM     34  C   UNL     1      -4.992   4.563 123.013  0.00  0.00    +0.000 A 
ENDBRANCH  28  29
ENDBRANCH  27  28
ENDBRANCH  24  27
ENDBRANCH  23  24
ENDBRANCH  22  23
ENDBRANCH   5  22
TORSDOF 17
ENDMDL
MODEL 9
REMARK VINA RESULT:      -7.2      2.308      4.048
REMARK  Name = Latanoprost
REMARK  19 active torsions:
REMARK  status: ('A' for Active; 'I' for Inactive)
REMARK    1  A    between atoms: C_1  and  C_2
REMARK    2  A    between atoms: C_2  and  C_3
REMARK    3  A    between atoms: C_2  and  O_4
REMARK    4  A    between atoms: O_4  and  C_5
REMARK    5  A    between atoms: C_5  and  C_7
REMARK    6  A    between atoms: C_7  and  C_8
REMARK    7  A    between atoms: C_8  and  C_9
REMARK    8  A    between atoms: C_9  and  C_10
REMARK    9  A    between atoms: C_11  and  C_12
REMARK   10  A    between atoms: C_12  and  C_13
REMARK   11  A    between atoms: C_14  and  O_15
REMARK   12  A    between atoms: C_17  and  O_18
REMARK   13  A    between atoms: C_19  and  C_20
REMARK   14  A    between atoms: C_20  and  C_21
REMARK   15  A    between atoms: C_21  and  C_22
REMARK   16  A    between atoms: C_22  and  O_23
REMARK   17  A    between atoms: C_22  and  C_24
REMARK   18  A    between atoms: C_24  and  C_25
REMARK   19  A    between atoms: C_25  and  C_26
REMARK                            x       y       z     vdW  Elec       q    Type
REMARK                         _______ _______ _______ _____ _____    ______ ____
ROOT
ATOM      1  C   UNL     1      -6.760  -1.596 125.579  0.00  0.00    +0.000 C 
ATOM      2  C   UNL     1      -6.464  -2.511 124.379  0.00  0.00    +0.000 C 
ATOM      3  C   UNL     1      -7.767  -3.254 124.054  0.00  0.00    +0.000 C 
ATOM      4  C   UNL     1      -8.827  -2.718 125.017  0.00  0.00    +0.000 C 
ATOM      5  C   UNL     1      -8.286  -1.370 125.499  0.00  0.00    +0.000 C 
ENDROOT
BRANCH   2   6
ATOM      6  O   UNL     1      -5.393  -3.415 124.587  0.00  0.00    +0.000 OA
ATOM      7  H   UNL     1      -4.701  -2.978 125.111  0.00  0.00    +0.000 HD
ENDBRANCH   2   6
BRANCH   4   8
ATOM      8  O   UNL     1      -9.029  -3.609 126.108  0.00  0.00    +0.000 OA
ATOM      9  H   UNL     1      -9.967  -3.652 126.337  0.00  0.00    +0.000 HD
ENDBRANCH   4   8
BRANCH   1  10
ATOM     10  C   UNL     1      -6.328  -2.165 126.927  0.00  0.00    +0.000 C 
BRANCH  10  12
ATOM     11  C   UNL     1      -6.040  -0.272 128.496  0.00  0.00    +0.000 C 
ATOM     12  C   UNL     1      -5.483  -1.205 127.713  0.00  0.00    +0.000 C 
BRANCH  11  13
ATOM     13  C   UNL     1      -7.531  -0.146 128.632  0.00  0.00    +0.000 C 
BRANCH  13  14
ATOM     14  C   UNL     1      -7.911   0.924 129.631  0.00  0.00    +0.000 C 
BRANCH  14  15
ATOM     15  C   UNL     1      -8.562   2.135 128.952  0.00  0.00    +0.000 C 
BRANCH  15  16
ATOM     16  C   UNL     1      -7.474   3.062 128.472  0.00  0.00    +0.000 C 
ATOM     17  O   UNL     1      -6.681   3.619 129.231  0.00  0.00    +0.000 OA
BRANCH  16  18
ATOM     18  O   UNL     1      -7.473   3.200 127.116  0.00  0.00    +0.000 OA
BRANCH  18  20
ATOM     19  C   UNL     1      -5.855   2.152 125.641  0.00  0.00    +0.000 C 
ATOM     20  C   UNL     1      -6.164   3.365 126.520  0.00  0.00    +0.000 C 
ATOM     21  C   UNL     1      -6.112   4.619 125.647  0.00  0.00    +0.000 C 
ENDBRANCH  18  20
ENDBRANCH  16  18
ENDBRANCH  15  16
ENDBRANCH  14  15
ENDBRANCH  13  14
ENDBRANCH  11  13
ENDBRANCH  10  12
ENDBRANCH   1  10
BRANCH   5  22
ATOM     22  C   UNL     1      -8.635  -0.267 124.492  0.00  0.00    +0.000 C 
BRANCH  22  23
ATOM     23  C   UNL     1      -9.404   0.870 125.160  0.00  0.00    +0.000 C 
BRANCH  23  24
ATOM     24  C   UNL     1      -9.546   2.053 124.220  0.00  0.00    +0.000 C 
BRANCH  24  25
ATOM     25  O   UNL     1      -9.339   3.265 124.935  0.00  0.00    +0.000 OA
ATOM     26  H   UNL     1      -8.410   3.285 125.219  0.00  0.00    +0.000 HD
ENDBRANCH  24  25
BRANCH  24  27
ATOM     27  C   UNL     1      -8.529   1.923 123.099  0.00  0.00    +0.000 C 
BRANCH  27  28
ATOM     28  C   UNL     1      -8.900   2.844 121.948  0.00  0.00    +0.000 C 
BRANCH  28  29
ATOM     29  C   UNL     1      -7.692   3.528 121.379  0.00  0.00    +0.000 A 
ATOM     30  C   UNL     1      -7.725   4.079 120.096  0.00  0.00    +0.000 A 
ATOM     31  C   UNL     1      -6.548   4.545 119.515  0.00  0.00    +0.000 A 
ATOM     32  C   UNL     1      -5.361   4.553 120.247  0.00  0.00    +0.000 A 
ATOM     33  C   UNL     1      -5.338   4.064 121.550  0.00  0.00    +0.000 A 
ATOM     34  C   UNL     1      -6.497   3.543 122.111  0.00  0.00    +0.000 A 
ENDBRANCH  28  29
ENDBRANCH  27  28
ENDBRANCH  24  27
ENDBRANCH  23  24
ENDBRANCH  22  23
ENDBRANCH   5  22
TORSDOF 17
ENDMDL
