MODEL 1
REMARK VINA RESULT:      -6.1      0.000      0.000
REMARK  Name = Laurocapram
REMARK  12 active torsions:
REMARK  status: ('A' for Active; 'I' for Inactive)
REMARK    1  A    between atoms: C_1  and  C_2
REMARK    2  A    between atoms: C_2  and  C_3
REMARK    3  A    between atoms: C_3  and  C_4
REMARK    4  A    between atoms: C_4  and  C_5
REMARK    5  A    between atoms: C_5  and  C_6
REMARK    6  A    between atoms: C_6  and  C_7
REMARK    7  A    between atoms: C_7  and  C_8
REMARK    8  A    between atoms: C_8  and  C_9
REMARK    9  A    between atoms: C_9  and  C_10
REMARK   10  A    between atoms: C_10  and  C_11
REMARK   11  A    between atoms: C_11  and  C_12
REMARK   12  A    between atoms: C_12  and  N_13
REMARK                            x       y       z     vdW  Elec       q    Type
REMARK                         _______ _______ _______ _____ _____    ______ ____
ROOT
ATOM      1  C   UNL     1      -8.641  -4.027 127.573  0.00  0.00    +0.000 C 
ENDROOT
BRANCH   1   2
ATOM      2  C   UNL     1      -8.779  -2.973 126.486  0.00  0.00    +0.000 C 
BRANCH   2   3
ATOM      3  C   UNL     1      -8.639  -3.640 125.139  0.00  0.00    +0.000 C 
BRANCH   3   4
ATOM      4  C   UNL     1      -9.403  -2.856 124.093  0.00  0.00    +0.000 C 
BRANCH   4   5
ATOM      5  C   UNL     1      -8.517  -2.649 122.881  0.00  0.00    +0.000 C 
BRANCH   5   6
ATOM      6  C   UNL     1      -7.458  -1.608 123.189  0.00  0.00    +0.000 C 
BRANCH   6   7
ATOM      7  C   UNL     1      -6.105  -2.087 122.695  0.00  0.00    +0.000 C 
BRANCH   7   8
ATOM      8  C   UNL     1      -5.234  -2.490 123.872  0.00  0.00    +0.000 C 
BRANCH   8  10
ATOM      9  C   UNL     1      -3.988  -4.624 123.541  0.00  0.00    +0.000 C 
ATOM     10  C   UNL     1      -5.265  -3.998 124.067  0.00  0.00    +0.000 C 
ENDBRANCH   8  10
ENDBRANCH   7   8
ENDBRANCH   6   7
ENDBRANCH   5   6
ENDBRANCH   4   5
ENDBRANCH   3   4
ENDBRANCH   2   3
ENDBRANCH   1   2
BRANCH   1  11
ATOM     11  C   UNL     1      -8.610  -3.311 128.892  0.00  0.00    +0.000 C 
BRANCH  11  12
ATOM     12  C   UNL     1      -7.527  -2.257 128.985  0.00  0.00    +0.000 C 
BRANCH  12  13
ATOM     13  N   UNL     1      -6.241  -2.794 129.433  0.00  0.00    +0.000 N 
ATOM     14  C   UNL     1      -6.097  -3.356 130.781  0.00  0.00    +0.000 C 
ATOM     15  C   UNL     1      -5.268  -2.475 131.697  0.00  0.00    +0.000 C 
ATOM     16  C   UNL     1      -3.780  -2.730 131.530  0.00  0.00    +0.000 C 
ATOM     17  C   UNL     1      -3.252  -2.399 130.138  0.00  0.00    +0.000 C 
ATOM     18  C   UNL     1      -3.853  -3.251 129.025  0.00  0.00    +0.000 C 
ATOM     19  C   UNL     1      -5.178  -2.701 128.546  0.00  0.00    +0.000 C 
ATOM     20  O   UNL     1      -5.283  -2.201 127.423  0.00  0.00    +0.000 OA
ENDBRANCH  12  13
ENDBRANCH  11  12
ENDBRANCH   1  11
TORSDOF 11
ENDMDL
MODEL 2
REMARK VINA RESULT:      -6.0      1.294      2.032
REMARK  Name = Laurocapram
REMARK  12 active torsions:
REMARK  status: ('A' for Active; 'I' for Inactive)
REMARK    1  A    between atoms: C_1  and  C_2
REMARK    2  A    between atoms: C_2  and  C_3
REMARK    3  A    between atoms: C_3  and  C_4
REMARK    4  A    between atoms: C_4  and  C_5
REMARK    5  A    between atoms: C_5  and  C_6
REMARK    6  A    between atoms: C_6  and  C_7
REMARK    7  A    between atoms: C_7  and  C_8
REMARK    8  A    between atoms: C_8  and  C_9
REMARK    9  A    between atoms: C_9  and  C_10
REMARK   10  A    between atoms: C_10  and  C_11
REMARK   11  A    between atoms: C_11  and  C_12
REMARK   12  A    between atoms: C_12  and  N_13
REMARK                            x       y       z     vdW  Elec       q    Type
REMARK                         _______ _______ _______ _____ _____    ______ ____
ROOT
ATOM      1  C   UNL     1      -8.936  -3.464 126.499  0.00  0.00    +0.000 C 
ENDROOT
BRANCH   1   2
ATOM      2  C   UNL     1      -8.420  -3.807 125.110  0.00  0.00    +0.000 C 
BRANCH   2   3
ATOM      3  C   UNL     1      -9.412  -3.315 124.085  0.00  0.00    +0.000 C 
BRANCH   3   4
ATOM      4  C   UNL     1      -8.678  -2.732 122.895  0.00  0.00    +0.000 C 
BRANCH   4   5
ATOM      5  C   UNL     1      -8.200  -1.336 123.241  0.00  0.00    +0.000 C 
BRANCH   5   6
ATOM      6  C   UNL     1      -6.697  -1.249 123.069  0.00  0.00    +0.000 C 
BRANCH   6   7
ATOM      7  C   UNL     1      -6.028  -1.132 124.427  0.00  0.00    +0.000 C 
BRANCH   7   8
ATOM      8  C   UNL     1      -5.107  -2.317 124.659  0.00  0.00    +0.000 C 
BRANCH   8  10
ATOM      9  C   UNL     1      -4.498  -4.542 123.711  0.00  0.00    +0.000 C 
ATOM     10  C   UNL     1      -4.963  -3.136 123.385  0.00  0.00    +0.000 C 
ENDBRANCH   8  10
ENDBRANCH   7   8
ENDBRANCH   6   7
ENDBRANCH   5   6
ENDBRANCH   4   5
ENDBRANCH   3   4
ENDBRANCH   2   3
ENDBRANCH   1   2
BRANCH   1  11
ATOM     11  C   UNL     1      -7.848  -2.715 127.211  0.00  0.00    +0.000 C 
BRANCH  11  12
ATOM     12  C   UNL     1      -7.889  -2.870 128.716  0.00  0.00    +0.000 C 
BRANCH  12  13
ATOM     13  N   UNL     1      -6.624  -2.518 129.364  0.00  0.00    +0.000 N 
ATOM     14  C   UNL     1      -5.486  -2.042 128.568  0.00  0.00    +0.000 C 
ATOM     15  C   UNL     1      -4.365  -3.061 128.483  0.00  0.00    +0.000 C 
ATOM     16  C   UNL     1      -3.440  -2.983 129.685  0.00  0.00    +0.000 C 
ATOM     17  C   UNL     1      -4.124  -3.310 131.009  0.00  0.00    +0.000 C 
ATOM     18  C   UNL     1      -5.235  -2.338 131.393  0.00  0.00    +0.000 C 
ATOM     19  C   UNL     1      -6.550  -2.698 130.738  0.00  0.00    +0.000 C 
ATOM     20  O   UNL     1      -7.491  -3.127 131.410  0.00  0.00    +0.000 OA
ENDBRANCH  12  13
ENDBRANCH  11  12
ENDBRANCH   1  11
TORSDOF 11
ENDMDL
MODEL 3
REMARK VINA RESULT:      -5.9      8.811     11.407
REMARK  Name = Laurocapram
REMARK  12 active torsions:
REMARK  status: ('A' for Active; 'I' for Inactive)
REMARK    1  A    between atoms: C_1  and  C_2
REMARK    2  A    between atoms: C_2  and  C_3
REMARK    3  A    between atoms: C_3  and  C_4
REMARK    4  A    between atoms: C_4  and  C_5
REMARK    5  A    between atoms: C_5  and  C_6
REMARK    6  A    between atoms: C_6  and  C_7
REMARK    7  A    between atoms: C_7  and  C_8
REMARK    8  A    between atoms: C_8  and  C_9
REMARK    9  A    between atoms: C_9  and  C_10
REMARK   10  A    between atoms: C_10  and  C_11
REMARK   11  A    between atoms: C_11  and  C_12
REMARK   12  A    between atoms: C_12  and  N_13
REMARK                            x       y       z     vdW  Elec       q    Type
REMARK                         _______ _______ _______ _____ _____    ______ ____
ROOT
ATOM      1  C   UNL     1      -8.021   6.284 131.098  0.00  0.00    +0.000 C 
ENDROOT
BRANCH   1   2
ATOM      2  C   UNL     1      -7.385   5.953 132.439  0.00  0.00    +0.000 C 
BRANCH   2   3
ATOM      3  C   UNL     1      -8.470   5.850 133.482  0.00  0.00    +0.000 C 
BRANCH   3   4
ATOM      4  C   UNL     1      -8.314   4.563 134.265  0.00  0.00    +0.000 C 
BRANCH   4   5
ATOM      5  C   UNL     1      -9.415   3.602 133.866  0.00  0.00    +0.000 C 
BRANCH   5   6
ATOM      6  C   UNL     1      -8.852   2.518 132.968  0.00  0.00    +0.000 C 
BRANCH   6   7
ATOM      7  C   UNL     1      -9.790   2.278 131.798  0.00  0.00    +0.000 C 
BRANCH   7   8
ATOM      8  C   UNL     1      -9.013   2.307 130.493  0.00  0.00    +0.000 C 
BRANCH   8  10
ATOM      9  C   UNL     1      -6.671   1.510 130.181  0.00  0.00    +0.000 C 
ATOM     10  C   UNL     1      -7.544   2.608 130.754  0.00  0.00    +0.000 C 
ENDBRANCH   8  10
ENDBRANCH   7   8
ENDBRANCH   6   7
ENDBRANCH   5   6
ENDBRANCH   4   5
ENDBRANCH   3   4
ENDBRANCH   2   3
ENDBRANCH   1   2
BRANCH   1  11
ATOM     11  C   UNL     1      -9.494   6.462 131.330  0.00  0.00    +0.000 C 
BRANCH  11  12
ATOM     12  C   UNL     1     -10.359   5.764 130.302  0.00  0.00    +0.000 C 
BRANCH  12  13
ATOM     13  N   UNL     1     -10.979   6.688 129.352  0.00  0.00    +0.000 N 
ATOM     14  C   UNL     1     -12.176   7.450 129.725  0.00  0.00    +0.000 C 
ATOM     15  C   UNL     1     -13.424   6.964 129.011  0.00  0.00    +0.000 C 
ATOM     16  C   UNL     1     -13.567   7.592 127.636  0.00  0.00    +0.000 C 
ATOM     17  C   UNL     1     -12.439   7.227 126.675  0.00  0.00    +0.000 C 
ATOM     18  C   UNL     1     -11.064   7.721 127.114  0.00  0.00    +0.000 C 
ATOM     19  C   UNL     1     -10.409   6.768 128.089  0.00  0.00    +0.000 C 
ATOM     20  O   UNL     1      -9.421   6.108 127.756  0.00  0.00    +0.000 OA
ENDBRANCH  12  13
ENDBRANCH  11  12
ENDBRANCH   1  11
TORSDOF 11
ENDMDL
MODEL 4
REMARK VINA RESULT:      -5.8      9.760     11.759
REMARK  Name = Laurocapram
REMARK  12 active torsions:
REMARK  status: ('A' for Active; 'I' for Inactive)
REMARK    1  A    between atoms: C_1  and  C_2
REMARK    2  A    between atoms: C_2  and  C_3
REMARK    3  A    between atoms: C_3  and  C_4
REMARK    4  A    between atoms: C_4  and  C_5
REMARK    5  A    between atoms: C_5  and  C_6
REMARK    6  A    between atoms: C_6  and  C_7
REMARK    7  A    between atoms: C_7  and  C_8
REMARK    8  A    between atoms: C_8  and  C_9
REMARK    9  A    between atoms: C_9  and  C_10
REMARK   10  A    between atoms: C_10  and  C_11
REMARK   11  A    between atoms: C_11  and  C_12
REMARK   12  A    between atoms: C_12  and  N_13
REMARK                            x       y       z     vdW  Elec       q    Type
REMARK                         _______ _______ _______ _____ _____    ______ ____
ROOT
ATOM      1  C   UNL     1      -7.105   6.440 131.778  0.00  0.00    +0.000 C 
ENDROOT
BRANCH   1   2
ATOM      2  C   UNL     1      -5.832   6.432 130.946  0.00  0.00    +0.000 C 
BRANCH   2   3
ATOM      3  C   UNL     1      -4.673   6.838 131.823  0.00  0.00    +0.000 C 
BRANCH   3   4
ATOM      4  C   UNL     1      -3.503   7.268 130.965  0.00  0.00    +0.000 C 
BRANCH   4   5
ATOM      5  C   UNL     1      -4.018   8.055 129.778  0.00  0.00    +0.000 C 
BRANCH   5   6
ATOM      6  C   UNL     1      -3.407   7.519 128.498  0.00  0.00    +0.000 C 
BRANCH   6   7
ATOM      7  C   UNL     1      -2.295   6.539 128.829  0.00  0.00    +0.000 C 
BRANCH   7   8
ATOM      8  C   UNL     1      -2.555   5.207 128.146  0.00  0.00    +0.000 C 
BRANCH   8  10
ATOM      9  C   UNL     1      -4.508   3.771 128.728  0.00  0.00    +0.000 C 
ATOM     10  C   UNL     1      -3.114   4.199 129.140  0.00  0.00    +0.000 C 
ENDBRANCH   8  10
ENDBRANCH   7   8
ENDBRANCH   6   7
ENDBRANCH   5   6
ENDBRANCH   4   5
ENDBRANCH   3   4
ENDBRANCH   2   3
ENDBRANCH   1   2
BRANCH   1  11
ATOM     11  C   UNL     1      -8.216   6.934 130.897  0.00  0.00    +0.000 C 
BRANCH  11  12
ATOM     12  C   UNL     1      -9.247   5.875 130.569  0.00  0.00    +0.000 C 
BRANCH  12  13
ATOM     13  N   UNL     1     -10.490   6.432 130.033  0.00  0.00    +0.000 N 
ATOM     14  C   UNL     1     -10.590   6.809 128.619  0.00  0.00    +0.000 C 
ATOM     15  C   UNL     1     -10.636   8.312 128.416  0.00  0.00    +0.000 C 
ATOM     16  C   UNL     1     -12.045   8.858 128.565  0.00  0.00    +0.000 C 
ATOM     17  C   UNL     1     -12.634   8.665 129.959  0.00  0.00    +0.000 C 
ATOM     18  C   UNL     1     -12.808   7.205 130.365  0.00  0.00    +0.000 C 
ATOM     19  C   UNL     1     -11.533   6.621 130.930  0.00  0.00    +0.000 C 
ATOM     20  O   UNL     1     -11.447   6.336 132.128  0.00  0.00    +0.000 OA
ENDBRANCH  12  13
ENDBRANCH  11  12
ENDBRANCH   1  11
TORSDOF 11
ENDMDL
MODEL 5
REMARK VINA RESULT:      -5.8      1.663      2.104
REMARK  Name = Laurocapram
REMARK  12 active torsions:
REMARK  status: ('A' for Active; 'I' for Inactive)
REMARK    1  A    between atoms: C_1  and  C_2
REMARK    2  A    between atoms: C_2  and  C_3
REMARK    3  A    between atoms: C_3  and  C_4
REMARK    4  A    between atoms: C_4  and  C_5
REMARK    5  A    between atoms: C_5  and  C_6
REMARK    6  A    between atoms: C_6  and  C_7
REMARK    7  A    between atoms: C_7  and  C_8
REMARK    8  A    between atoms: C_8  and  C_9
REMARK    9  A    between atoms: C_9  and  C_10
REMARK   10  A    between atoms: C_10  and  C_11
REMARK   11  A    between atoms: C_11  and  C_12
REMARK   12  A    between atoms: C_12  and  N_13
REMARK                            x       y       z     vdW  Elec       q    Type
REMARK                         _______ _______ _______ _____ _____    ______ ____
ROOT
ATOM      1  C   UNL     1      -8.763  -3.777 128.146  0.00  0.00    +0.000 C 
ENDROOT
BRANCH   1   2
ATOM      2  C   UNL     1      -8.230  -3.000 126.952  0.00  0.00    +0.000 C 
BRANCH   2   3
ATOM      3  C   UNL     1      -9.268  -3.016 125.857  0.00  0.00    +0.000 C 
BRANCH   3   4
ATOM      4  C   UNL     1      -8.725  -3.739 124.642  0.00  0.00    +0.000 C 
BRANCH   4   5
ATOM      5  C   UNL     1      -9.378  -3.176 123.396  0.00  0.00    +0.000 C 
BRANCH   5   6
ATOM      6  C   UNL     1      -8.787  -1.818 123.072  0.00  0.00    +0.000 C 
BRANCH   6   7
ATOM      7  C   UNL     1      -7.310  -1.961 122.748  0.00  0.00    +0.000 C 
BRANCH   7   8
ATOM      8  C   UNL     1      -6.485  -1.100 123.688  0.00  0.00    +0.000 C 
BRANCH   8  10
ATOM      9  C   UNL     1      -5.129  -3.192 123.625  0.00  0.00    +0.000 C 
ATOM     10  C   UNL     1      -5.461  -1.949 124.428  0.00  0.00    +0.000 C 
ENDBRANCH   8  10
ENDBRANCH   7   8
ENDBRANCH   6   7
ENDBRANCH   5   6
ENDBRANCH   4   5
ENDBRANCH   3   4
ENDBRANCH   2   3
ENDBRANCH   1   2
BRANCH   1  11
ATOM     11  C   UNL     1      -8.122  -3.206 129.377  0.00  0.00    +0.000 C 
BRANCH  11  12
ATOM     12  C   UNL     1      -6.617  -3.368 129.409  0.00  0.00    +0.000 C 
BRANCH  12  13
ATOM     13  N   UNL     1      -6.067  -3.364 130.765  0.00  0.00    +0.000 N 
ATOM     14  C   UNL     1      -5.956  -2.111 131.521  0.00  0.00    +0.000 C 
ATOM     15  C   UNL     1      -4.519  -1.649 131.677  0.00  0.00    +0.000 C 
ATOM     16  C   UNL     1      -3.838  -2.316 132.860  0.00  0.00    +0.000 C 
ATOM     17  C   UNL     1      -3.715  -3.831 132.724  0.00  0.00    +0.000 C 
ATOM     18  C   UNL     1      -5.053  -4.561 132.668  0.00  0.00    +0.000 C 
ATOM     19  C   UNL     1      -5.626  -4.580 131.268  0.00  0.00    +0.000 C 
ATOM     20  O   UNL     1      -5.688  -5.633 130.628  0.00  0.00    +0.000 OA
ENDBRANCH  12  13
ENDBRANCH  11  12
ENDBRANCH   1  11
TORSDOF 11
ENDMDL
MODEL 6
REMARK VINA RESULT:      -5.8      2.861      6.066
REMARK  Name = Laurocapram
REMARK  12 active torsions:
REMARK  status: ('A' for Active; 'I' for Inactive)
REMARK    1  A    between atoms: C_1  and  C_2
REMARK    2  A    between atoms: C_2  and  C_3
REMARK    3  A    between atoms: C_3  and  C_4
REMARK    4  A    between atoms: C_4  and  C_5
REMARK    5  A    between atoms: C_5  and  C_6
REMARK    6  A    between atoms: C_6  and  C_7
REMARK    7  A    between atoms: C_7  and  C_8
REMARK    8  A    between atoms: C_8  and  C_9
REMARK    9  A    between atoms: C_9  and  C_10
REMARK   10  A    between atoms: C_10  and  C_11
REMARK   11  A    between atoms: C_11  and  C_12
REMARK   12  A    between atoms: C_12  and  N_13
REMARK                            x       y       z     vdW  Elec       q    Type
REMARK                         _______ _______ _______ _____ _____    ______ ____
ROOT
ATOM      1  C   UNL     1      -8.427  -3.395 124.049  0.00  0.00    +0.000 C 
ENDROOT
BRANCH   1   2
ATOM      2  C   UNL     1      -8.188  -3.922 125.455  0.00  0.00    +0.000 C 
BRANCH   2   3
ATOM      3  C   UNL     1      -8.958  -3.071 126.434  0.00  0.00    +0.000 C 
BRANCH   3   4
ATOM      4  C   UNL     1      -9.205  -3.847 127.711  0.00  0.00    +0.000 C 
BRANCH   4   5
ATOM      5  C   UNL     1      -8.046  -3.622 128.661  0.00  0.00    +0.000 C 
BRANCH   5   6
ATOM      6  C   UNL     1      -7.895  -2.141 128.949  0.00  0.00    +0.000 C 
BRANCH   6   7
ATOM      7  C   UNL     1      -6.444  -1.820 129.255  0.00  0.00    +0.000 C 
BRANCH   7   8
ATOM      8  C   UNL     1      -5.538  -2.463 128.220  0.00  0.00    +0.000 C 
BRANCH   8  10
ATOM      9  C   UNL     1      -4.646  -3.920 130.036  0.00  0.00    +0.000 C 
ATOM     10  C   UNL     1      -4.281  -3.012 128.879  0.00  0.00    +0.000 C 
ENDBRANCH   8  10
ENDBRANCH   7   8
ENDBRANCH   6   7
ENDBRANCH   5   6
ENDBRANCH   4   5
ENDBRANCH   3   4
ENDBRANCH   2   3
ENDBRANCH   1   2
BRANCH   1  11
ATOM     11  C   UNL     1      -7.158  -2.735 123.593  0.00  0.00    +0.000 C 
BRANCH  11  12
ATOM     12  C   UNL     1      -7.384  -1.467 122.798  0.00  0.00    +0.000 C 
BRANCH  12  13
ATOM     13  N   UNL     1      -7.858  -0.352 123.620  0.00  0.00    +0.000 N 
ATOM     14  C   UNL     1      -6.943   0.344 124.532  0.00  0.00    +0.000 C 
ATOM     15  C   UNL     1      -7.233   0.046 125.991  0.00  0.00    +0.000 C 
ATOM     16  C   UNL     1      -8.323   0.946 126.545  0.00  0.00    +0.000 C 
ATOM     17  C   UNL     1      -9.677   0.761 125.865  0.00  0.00    +0.000 C 
ATOM     18  C   UNL     1      -9.683   1.120 124.383  0.00  0.00    +0.000 C 
ATOM     19  C   UNL     1      -9.204  -0.028 123.523  0.00  0.00    +0.000 C 
ATOM     20  O   UNL     1      -9.987  -0.629 122.782  0.00  0.00    +0.000 OA
ENDBRANCH  12  13
ENDBRANCH  11  12
ENDBRANCH   1  11
TORSDOF 11
ENDMDL
MODEL 7
REMARK VINA RESULT:      -5.7      9.425     11.369
REMARK  Name = Laurocapram
REMARK  12 active torsions:
REMARK  status: ('A' for Active; 'I' for Inactive)
REMARK    1  A    between atoms: C_1  and  C_2
REMARK    2  A    between atoms: C_2  and  C_3
REMARK    3  A    between atoms: C_3  and  C_4
REMARK    4  A    between atoms: C_4  and  C_5
REMARK    5  A    between atoms: C_5  and  C_6
REMARK    6  A    between atoms: C_6  and  C_7
REMARK    7  A    between atoms: C_7  and  C_8
REMARK    8  A    between atoms: C_8  and  C_9
REMARK    9  A    between atoms: C_9  and  C_10
REMARK   10  A    between atoms: C_10  and  C_11
REMARK   11  A    between atoms: C_11  and  C_12
REMARK   12  A    between atoms: C_12  and  N_13
REMARK                            x       y       z     vdW  Elec       q    Type
REMARK                         _______ _______ _______ _____ _____    ______ ____
ROOT
ATOM      1  C   UNL     1      -7.530   7.128 130.749  0.00  0.00    +0.000 C 
ENDROOT
BRANCH   1   2
ATOM      2  C   UNL     1      -6.592   6.344 131.652  0.00  0.00    +0.000 C 
BRANCH   2   3
ATOM      3  C   UNL     1      -5.285   6.128 130.930  0.00  0.00    +0.000 C 
BRANCH   3   4
ATOM      4  C   UNL     1      -4.436   7.379 131.013  0.00  0.00    +0.000 C 
BRANCH   4   5
ATOM      5  C   UNL     1      -3.543   7.457 129.791  0.00  0.00    +0.000 C 
BRANCH   5   6
ATOM      6  C   UNL     1      -2.602   6.269 129.763  0.00  0.00    +0.000 C 
BRANCH   6   7
ATOM      7  C   UNL     1      -2.518   5.710 128.354  0.00  0.00    +0.000 C 
BRANCH   7   8
ATOM      8  C   UNL     1      -2.755   4.210 128.373  0.00  0.00    +0.000 C 
BRANCH   8  10
ATOM      9  C   UNL     1      -3.276   2.798 126.385  0.00  0.00    +0.000 C 
ATOM     10  C   UNL     1      -2.192   3.565 127.115  0.00  0.00    +0.000 C 
ENDBRANCH   8  10
ENDBRANCH   7   8
ENDBRANCH   6   7
ENDBRANCH   5   6
ENDBRANCH   4   5
ENDBRANCH   3   4
ENDBRANCH   2   3
ENDBRANCH   1   2
BRANCH   1  11
ATOM     11  C   UNL     1      -8.935   6.754 131.124  0.00  0.00    +0.000 C 
BRANCH  11  12
ATOM     12  C   UNL     1      -9.674   6.005 130.036  0.00  0.00    +0.000 C 
BRANCH  12  13
ATOM     13  N   UNL     1     -10.553   6.865 129.243  0.00  0.00    +0.000 N 
ATOM     14  C   UNL     1     -11.611   7.650 129.891  0.00  0.00    +0.000 C 
ATOM     15  C   UNL     1     -13.000   7.120 129.590  0.00  0.00    +0.000 C 
ATOM     16  C   UNL     1     -13.536   7.656 128.274  0.00  0.00    +0.000 C 
ATOM     17  C   UNL     1     -12.717   7.230 127.059  0.00  0.00    +0.000 C 
ATOM     18  C   UNL     1     -11.284   7.750 127.060  0.00  0.00    +0.000 C 
ATOM     19  C   UNL     1     -10.363   6.863 127.868  0.00  0.00    +0.000 C 
ATOM     20  O   UNL     1      -9.497   6.182 127.313  0.00  0.00    +0.000 OA
ENDBRANCH  12  13
ENDBRANCH  11  12
ENDBRANCH   1  11
TORSDOF 11
ENDMDL
MODEL 8
REMARK VINA RESULT:      -5.6      2.332      7.393
REMARK  Name = Laurocapram
REMARK  12 active torsions:
REMARK  status: ('A' for Active; 'I' for Inactive)
REMARK    1  A    between atoms: C_1  and  C_2
REMARK    2  A    between atoms: C_2  and  C_3
REMARK    3  A    between atoms: C_3  and  C_4
REMARK    4  A    between atoms: C_4  and  C_5
REMARK    5  A    between atoms: C_5  and  C_6
REMARK    6  A    between atoms: C_6  and  C_7
REMARK    7  A    between atoms: C_7  and  C_8
REMARK    8  A    between atoms: C_8  and  C_9
REMARK    9  A    between atoms: C_9  and  C_10
REMARK   10  A    between atoms: C_10  and  C_11
REMARK   11  A    between atoms: C_11  and  C_12
REMARK   12  A    between atoms: C_12  and  N_13
REMARK                            x       y       z     vdW  Elec       q    Type
REMARK                         _______ _______ _______ _____ _____    ______ ____
ROOT
ATOM      1  C   UNL     1      -8.706  -3.765 128.569  0.00  0.00    +0.000 C 
ENDROOT
BRANCH   1   2
ATOM      2  C   UNL     1      -7.870  -3.302 129.752  0.00  0.00    +0.000 C 
BRANCH   2   3
ATOM      3  C   UNL     1      -6.508  -2.885 129.255  0.00  0.00    +0.000 C 
BRANCH   3   4
ATOM      4  C   UNL     1      -5.451  -3.251 130.275  0.00  0.00    +0.000 C 
BRANCH   4   5
ATOM      5  C   UNL     1      -5.751  -4.628 130.831  0.00  0.00    +0.000 C 
BRANCH   5   6
ATOM      6  C   UNL     1      -4.981  -4.844 132.118  0.00  0.00    +0.000 C 
BRANCH   6   7
ATOM      7  C   UNL     1      -5.946  -5.104 133.261  0.00  0.00    +0.000 C 
BRANCH   7   8
ATOM      8  C   UNL     1      -6.237  -3.810 134.002  0.00  0.00    +0.000 C 
BRANCH   8  10
ATOM      9  C   UNL     1      -7.744  -2.010 133.161  0.00  0.00    +0.000 C 
ATOM     10  C   UNL     1      -7.684  -3.389 133.790  0.00  0.00    +0.000 C 
ENDBRANCH   8  10
ENDBRANCH   7   8
ENDBRANCH   6   7
ENDBRANCH   5   6
ENDBRANCH   4   5
ENDBRANCH   3   4
ENDBRANCH   2   3
ENDBRANCH   1   2
BRANCH   1  11
ATOM     11  C   UNL     1      -8.268  -2.973 127.371  0.00  0.00    +0.000 C 
BRANCH  11  12
ATOM     12  C   UNL     1      -9.211  -3.085 126.192  0.00  0.00    +0.000 C 
BRANCH  12  13
ATOM     13  N   UNL     1      -8.572  -2.766 124.914  0.00  0.00    +0.000 N 
ATOM     14  C   UNL     1      -7.685  -3.737 124.262  0.00  0.00    +0.000 C 
ATOM     15  C   UNL     1      -6.227  -3.320 124.310  0.00  0.00    +0.000 C 
ATOM     16  C   UNL     1      -5.873  -2.374 123.176  0.00  0.00    +0.000 C 
ATOM     17  C   UNL     1      -6.628  -1.048 123.225  0.00  0.00    +0.000 C 
ATOM     18  C   UNL     1      -8.139  -1.186 123.072  0.00  0.00    +0.000 C 
ATOM     19  C   UNL     1      -8.812  -1.505 124.388  0.00  0.00    +0.000 C 
ATOM     20  O   UNL     1      -9.531  -0.671 124.946  0.00  0.00    +0.000 OA
ENDBRANCH  12  13
ENDBRANCH  11  12
ENDBRANCH   1  11
TORSDOF 11
ENDMDL
MODEL 9
REMARK VINA RESULT:      -5.6      9.366     10.858
REMARK  Name = Laurocapram
REMARK  12 active torsions:
REMARK  status: ('A' for Active; 'I' for Inactive)
REMARK    1  A    between atoms: C_1  and  C_2
REMARK    2  A    between atoms: C_2  and  C_3
REMARK    3  A    between atoms: C_3  and  C_4
REMARK    4  A    between atoms: C_4  and  C_5
REMARK    5  A    between atoms: C_5  and  C_6
REMARK    6  A    between atoms: C_6  and  C_7
REMARK    7  A    between atoms: C_7  and  C_8
REMARK    8  A    between atoms: C_8  and  C_9
REMARK    9  A    between atoms: C_9  and  C_10
REMARK   10  A    between atoms: C_10  and  C_11
REMARK   11  A    between atoms: C_11  and  C_12
REMARK   12  A    between atoms: C_12  and  N_13
REMARK                            x       y       z     vdW  Elec       q    Type
REMARK                         _______ _______ _______ _____ _____    ______ ____
ROOT
ATOM      1  C   UNL     1      -7.973   6.383 131.791  0.00  0.00    +0.000 C 
ENDROOT
BRANCH   1   2
ATOM      2  C   UNL     1      -8.916   6.938 130.735  0.00  0.00    +0.000 C 
BRANCH   2   3
ATOM      3  C   UNL     1     -10.004   5.926 130.472  0.00  0.00    +0.000 C 
BRANCH   3   4
ATOM      4  C   UNL     1     -11.173   6.171 131.402  0.00  0.00    +0.000 C 
BRANCH   4   5
ATOM      5  C   UNL     1     -11.935   7.394 130.933  0.00  0.00    +0.000 C 
BRANCH   5   6
ATOM      6  C   UNL     1     -13.069   6.976 130.018  0.00  0.00    +0.000 C 
BRANCH   6   7
ATOM      7  C   UNL     1     -12.809   7.481 128.610  0.00  0.00    +0.000 C 
BRANCH   7   8
ATOM      8  C   UNL     1     -11.858   8.665 128.648  0.00  0.00    +0.000 C 
BRANCH   8  10
ATOM      9  C   UNL     1     -11.009   7.478 126.626  0.00  0.00    +0.000 C 
ATOM     10  C   UNL     1     -10.643   8.401 127.772  0.00  0.00    +0.000 C 
ENDBRANCH   8  10
ENDBRANCH   7   8
ENDBRANCH   6   7
ENDBRANCH   5   6
ENDBRANCH   4   5
ENDBRANCH   3   4
ENDBRANCH   2   3
ENDBRANCH   1   2
BRANCH   1  11
ATOM     11  C   UNL     1      -6.578   6.475 131.244  0.00  0.00    +0.000 C 
BRANCH  11  12
ATOM     12  C   UNL     1      -6.208   5.326 130.330  0.00  0.00    +0.000 C 
BRANCH  12  13
ATOM     13  N   UNL     1      -4.771   5.241 130.069  0.00  0.00    +0.000 N 
ATOM     14  C   UNL     1      -3.812   5.186 131.179  0.00  0.00    +0.000 C 
ATOM     15  C   UNL     1      -3.013   6.467 131.326  0.00  0.00    +0.000 C 
ATOM     16  C   UNL     1      -1.805   6.486 130.406  0.00  0.00    +0.000 C 
ATOM     17  C   UNL     1      -2.162   6.453 128.922  0.00  0.00    +0.000 C 
ATOM     18  C   UNL     1      -2.882   5.182 128.484  0.00  0.00    +0.000 C 
ATOM     19  C   UNL     1      -4.371   5.261 128.740  0.00  0.00    +0.000 C 
ATOM     20  O   UNL     1      -5.168   5.339 127.801  0.00  0.00    +0.000 OA
ENDBRANCH  12  13
ENDBRANCH  11  12
ENDBRANCH   1  11
TORSDOF 11
ENDMDL
