MODEL 1
REMARK VINA RESULT:      -9.4      0.000      0.000
REMARK  Name = Lefamulin
REMARK  13 active torsions:
REMARK  status: ('A' for Active; 'I' for Inactive)
REMARK    1  A    between atoms: C_10  and  C_11
REMARK    2  A    between atoms: C_12  and  C_13
REMARK    3  A    between atoms: C_14  and  O_24
REMARK    4  A    between atoms: C_16  and  C_17
REMARK    5  A    between atoms: C_16  and  C_18
REMARK    6  A    between atoms: C_20  and  O_21
REMARK    7  A    between atoms: C_22  and  C_23
REMARK    8  A    between atoms: O_24  and  C_25
REMARK    9  A    between atoms: C_25  and  C_27
REMARK   10  A    between atoms: C_27  and  S_28
REMARK   11  A    between atoms: S_28  and  C_29
REMARK   12  A    between atoms: C_32  and  N_33
REMARK   13  A    between atoms: C_35  and  O_36
REMARK                            x       y       z     vdW  Elec       q    Type
REMARK                         _______ _______ _______ _____ _____    ______ ____
ROOT
ATOM      1  C   UNL     1      -7.243  -1.215 125.893  0.00  0.00    +0.000 C 
ATOM      2  C   UNL     1      -8.776  -2.553 125.514  0.00  0.00    +0.000 C 
ATOM      3  O   UNL     1      -9.996  -2.419 125.727  0.00  0.00    +0.000 OA
ATOM      4  C   UNL     1      -8.374  -3.295 123.846  0.00  0.00    +0.000 C 
ATOM      5  C   UNL     1      -6.819  -3.279 123.920  0.00  0.00    +0.000 C 
ATOM      6  C   UNL     1      -5.986  -1.773 125.098  0.00  0.00    +0.000 C 
ATOM      7  C   UNL     1      -5.681  -2.133 126.535  0.00  0.00    +0.000 C 
ATOM      8  C   UNL     1      -5.248  -1.572 127.746  0.00  0.00    +0.000 C 
ATOM      9  C   UNL     1      -6.000  -0.320 127.677  0.00  0.00    +0.000 C 
ATOM     10  C   UNL     1      -5.142   0.640 126.816  0.00  0.00    +0.000 C 
ATOM     11  C   UNL     1      -7.418  -0.552 127.173  0.00  0.00    +0.000 C 
ATOM     12  C   UNL     1      -8.240  -1.658 127.767  0.00  0.00    +0.000 C 
ATOM     13  C   UNL     1      -8.173   0.775 127.016  0.00  0.00    +0.000 C 
ATOM     14  C   UNL     1      -9.391   0.653 126.149  0.00  0.00    +0.000 C 
ATOM     15  C   UNL     1      -8.742   0.468 124.712  0.00  0.00    +0.000 C 
ATOM     16  C   UNL     1      -8.337   1.596 123.907  0.00  0.00    +0.000 C 
ATOM     17  C   UNL     1      -8.517  -1.002 124.569  0.00  0.00    +0.000 C 
ATOM     18  C   UNL     1      -6.990  -2.557 125.041  0.00  0.00    +0.000 C 
ATOM     19  C   UNL     1      -4.993  -3.319 124.698  0.00  0.00    +0.000 C 
ENDROOT
BRANCH  15  20
ATOM     20  C   UNL     1      -8.022  -0.573 123.638  0.00  0.00    +0.000 C 
ATOM     21  C   UNL     1      -7.102  -0.126 122.737  0.00  0.00    +0.000 C 
ENDBRANCH  15  20
BRANCH  17  22
ATOM     22  O   UNL     1      -9.866  -0.484 123.176  0.00  0.00    +0.000 OA
ATOM     23  H   UNL     1     -10.766  -0.725 123.558  0.00  0.00    +0.000 HD
ENDBRANCH  17  22
BRANCH  13  24
ATOM     24  O   UNL     1      -8.422   1.146 128.336  0.00  0.00    +0.000 OA
BRANCH  24  25
ATOM     25  C   UNL     1      -8.216   2.455 128.555  0.00  0.00    +0.000 C 
ATOM     26  O   UNL     1      -8.487   3.361 127.786  0.00  0.00    +0.000 OA
BRANCH  25  27
ATOM     27  C   UNL     1      -7.495   2.609 129.832  0.00  0.00    +0.000 C 
BRANCH  27  28
ATOM     28  S   UNL     1      -7.493   4.428 130.263  0.00  0.00    +0.000 S 
BRANCH  28  29
ATOM     29  C   UNL     1      -8.587   4.611 131.741  0.00  0.00    +0.000 C 
ATOM     30  C   UNL     1      -9.898   3.819 131.539  0.00  0.00    +0.000 C 
ATOM     31  C   UNL     1     -10.765   4.451 130.449  0.00  0.00    +0.000 C 
ATOM     32  C   UNL     1     -11.076   5.919 130.769  0.00  0.00    +0.000 C 
ATOM     33  C   UNL     1      -9.801   6.660 131.027  0.00  0.00    +0.000 C 
ATOM     34  C   UNL     1      -8.881   6.074 132.070  0.00  0.00    +0.000 C 
BRANCH  32  35
ATOM     35  N   UNL     1     -11.921   6.076 131.930  0.00  0.00    +0.000 NA
ATOM     36  H   UNL     1     -12.646   5.385 131.942  0.00  0.00    +0.000 HD
ATOM     37  H   UNL     1     -12.487   6.904 131.820  0.00  0.00    +0.000 HD
ENDBRANCH  32  35
BRANCH  34  38
ATOM     38  O   UNL     1      -9.459   6.241 133.350  0.00  0.00    +0.000 OA
ATOM     39  H   UNL     1      -8.741   6.408 133.963  0.00  0.00    +0.000 HD
ENDBRANCH  34  38
ENDBRANCH  28  29
ENDBRANCH  27  28
ENDBRANCH  25  27
ENDBRANCH  24  25
ENDBRANCH  13  24
TORSDOF 9
ENDMDL
MODEL 2
REMARK VINA RESULT:      -9.0      3.478      5.028
REMARK  Name = Lefamulin
REMARK  13 active torsions:
REMARK  status: ('A' for Active; 'I' for Inactive)
REMARK    1  A    between atoms: C_10  and  C_11
REMARK    2  A    between atoms: C_12  and  C_13
REMARK    3  A    between atoms: C_14  and  O_24
REMARK    4  A    between atoms: C_16  and  C_17
REMARK    5  A    between atoms: C_16  and  C_18
REMARK    6  A    between atoms: C_20  and  O_21
REMARK    7  A    between atoms: C_22  and  C_23
REMARK    8  A    between atoms: O_24  and  C_25
REMARK    9  A    between atoms: C_25  and  C_27
REMARK   10  A    between atoms: C_27  and  S_28
REMARK   11  A    between atoms: S_28  and  C_29
REMARK   12  A    between atoms: C_32  and  N_33
REMARK   13  A    between atoms: C_35  and  O_36
REMARK                            x       y       z     vdW  Elec       q    Type
REMARK                         _______ _______ _______ _____ _____    ______ ____
ROOT
ATOM      1  C   UNL     1      -7.889  -1.032 124.443  0.00  0.00    +0.000 C 
ATOM      2  C   UNL     1      -6.190  -2.135 124.016  0.00  0.00    +0.000 C 
ATOM      3  O   UNL     1      -4.996  -1.808 124.155  0.00  0.00    +0.000 OA
ATOM      4  C   UNL     1      -6.576  -3.869 124.597  0.00  0.00    +0.000 C 
ATOM      5  C   UNL     1      -8.105  -3.907 124.310  0.00  0.00    +0.000 C 
ATOM      6  C   UNL     1      -9.090  -2.072 124.408  0.00  0.00    +0.000 C 
ATOM      7  C   UNL     1      -9.240  -1.317 123.106  0.00  0.00    +0.000 C 
ATOM      8  C   UNL     1      -9.678  -0.090 122.585  0.00  0.00    +0.000 C 
ATOM      9  C   UNL     1      -9.141   0.783 123.628  0.00  0.00    +0.000 C 
ATOM     10  C   UNL     1     -10.195   0.781 124.762  0.00  0.00    +0.000 C 
ATOM     11  C   UNL     1      -7.740   0.355 124.042  0.00  0.00    +0.000 C 
ATOM     12  C   UNL     1      -6.716   0.062 122.985  0.00  0.00    +0.000 C 
ATOM     13  C   UNL     1      -7.217   1.218 125.198  0.00  0.00    +0.000 C 
ATOM     14  C   UNL     1      -6.054   0.594 125.911  0.00  0.00    +0.000 C 
ATOM     15  C   UNL     1      -6.757  -0.602 126.681  0.00  0.00    +0.000 C 
ATOM     16  C   UNL     1      -7.387  -0.418 127.967  0.00  0.00    +0.000 C 
ATOM     17  C   UNL     1      -6.753  -1.745 125.718  0.00  0.00    +0.000 C 
ATOM     18  C   UNL     1      -7.980  -2.593 124.060  0.00  0.00    +0.000 C 
ATOM     19  C   UNL     1      -9.847  -3.501 123.449  0.00  0.00    +0.000 C 
ENDROOT
BRANCH  15  20
ATOM     20  C   UNL     1      -7.370  -2.142 126.589  0.00  0.00    +0.000 C 
ATOM     21  C   UNL     1      -8.157  -2.645 127.581  0.00  0.00    +0.000 C 
ENDBRANCH  15  20
BRANCH  17  22
ATOM     22  O   UNL     1      -5.597  -2.288 127.265  0.00  0.00    +0.000 OA
ATOM     23  H   UNL     1      -4.685  -2.472 126.880  0.00  0.00    +0.000 HD
ENDBRANCH  17  22
BRANCH  13  24
ATOM     24  O   UNL     1      -6.946   2.435 124.577  0.00  0.00    +0.000 OA
BRANCH  24  25
ATOM     25  C   UNL     1      -7.389   3.489 125.283  0.00  0.00    +0.000 C 
ATOM     26  O   UNL     1      -8.401   3.522 125.960  0.00  0.00    +0.000 OA
BRANCH  25  27
ATOM     27  C   UNL     1      -6.511   4.642 125.006  0.00  0.00    +0.000 C 
BRANCH  27  28
ATOM     28  S   UNL     1      -4.767   4.145 125.460  0.00  0.00    +0.000 S 
BRANCH  28  29
ATOM     29  C   UNL     1      -4.419   4.922 127.099  0.00  0.00    +0.000 C 
ATOM     30  C   UNL     1      -3.032   4.478 127.619  0.00  0.00    +0.000 C 
ATOM     31  C   UNL     1      -3.028   2.995 127.988  0.00  0.00    +0.000 C 
ATOM     32  C   UNL     1      -4.110   2.679 129.029  0.00  0.00    +0.000 C 
ATOM     33  C   UNL     1      -5.437   3.172 128.542  0.00  0.00    +0.000 C 
ATOM     34  C   UNL     1      -5.506   4.622 128.130  0.00  0.00    +0.000 C 
BRANCH  32  35
ATOM     35  N   UNL     1      -3.855   3.291 130.313  0.00  0.00    +0.000 NA
ATOM     36  H   UNL     1      -3.162   4.010 130.235  0.00  0.00    +0.000 HD
ATOM     37  H   UNL     1      -3.351   2.641 130.896  0.00  0.00    +0.000 HD
ENDBRANCH  32  35
BRANCH  34  38
ATOM     38  O   UNL     1      -5.411   5.439 129.280  0.00  0.00    +0.000 OA
ATOM     39  H   UNL     1      -5.603   4.881 130.037  0.00  0.00    +0.000 HD
ENDBRANCH  34  38
ENDBRANCH  28  29
ENDBRANCH  27  28
ENDBRANCH  25  27
ENDBRANCH  24  25
ENDBRANCH  13  24
TORSDOF 9
ENDMDL
MODEL 3
REMARK VINA RESULT:      -8.9      1.041      1.527
REMARK  Name = Lefamulin
REMARK  13 active torsions:
REMARK  status: ('A' for Active; 'I' for Inactive)
REMARK    1  A    between atoms: C_10  and  C_11
REMARK    2  A    between atoms: C_12  and  C_13
REMARK    3  A    between atoms: C_14  and  O_24
REMARK    4  A    between atoms: C_16  and  C_17
REMARK    5  A    between atoms: C_16  and  C_18
REMARK    6  A    between atoms: C_20  and  O_21
REMARK    7  A    between atoms: C_22  and  C_23
REMARK    8  A    between atoms: O_24  and  C_25
REMARK    9  A    between atoms: C_25  and  C_27
REMARK   10  A    between atoms: C_27  and  S_28
REMARK   11  A    between atoms: S_28  and  C_29
REMARK   12  A    between atoms: C_32  and  N_33
REMARK   13  A    between atoms: C_35  and  O_36
REMARK                            x       y       z     vdW  Elec       q    Type
REMARK                         _______ _______ _______ _____ _____    ______ ____
ROOT
ATOM      1  C   UNL     1      -7.219  -1.275 125.891  0.00  0.00    +0.000 C 
ATOM      2  C   UNL     1      -8.788  -2.497 125.319  0.00  0.00    +0.000 C 
ATOM      3  O   UNL     1     -10.001  -2.376 125.577  0.00  0.00    +0.000 OA
ATOM      4  C   UNL     1      -8.430  -2.953 123.542  0.00  0.00    +0.000 C 
ATOM      5  C   UNL     1      -6.875  -2.981 123.588  0.00  0.00    +0.000 C 
ATOM      6  C   UNL     1      -5.988  -1.715 124.988  0.00  0.00    +0.000 C 
ATOM      7  C   UNL     1      -5.669  -2.321 126.337  0.00  0.00    +0.000 C 
ATOM      8  C   UNL     1      -5.204  -1.984 127.617  0.00  0.00    +0.000 C 
ATOM      9  C   UNL     1      -5.926  -0.722 127.776  0.00  0.00    +0.000 C 
ATOM     10  C   UNL     1      -5.059   0.352 127.074  0.00  0.00    +0.000 C 
ATOM     11  C   UNL     1      -7.357  -0.836 127.268  0.00  0.00    +0.000 C 
ATOM     12  C   UNL     1      -8.196  -2.010 127.681  0.00  0.00    +0.000 C 
ATOM     13  C   UNL     1      -8.083   0.513 127.353  0.00  0.00    +0.000 C 
ATOM     14  C   UNL     1      -9.317   0.566 126.502  0.00  0.00    +0.000 C 
ATOM     15  C   UNL     1      -8.696   0.616 125.042  0.00  0.00    +0.000 C 
ATOM     16  C   UNL     1      -8.277   1.855 124.433  0.00  0.00    +0.000 C 
ATOM     17  C   UNL     1      -8.508  -0.813 124.647  0.00  0.00    +0.000 C 
ATOM     18  C   UNL     1      -7.010  -2.457 124.818  0.00  0.00    +0.000 C 
ATOM     19  C   UNL     1      -5.038  -3.191 124.312  0.00  0.00    +0.000 C 
ENDROOT
BRANCH  15  20
ATOM     20  C   UNL     1      -8.017  -0.242 123.793  0.00  0.00    +0.000 C 
ATOM     21  C   UNL     1      -7.146   0.350 122.928  0.00  0.00    +0.000 C 
ENDBRANCH  15  20
BRANCH  17  22
ATOM     22  O   UNL     1      -9.865  -0.038 123.389  0.00  0.00    +0.000 OA
ATOM     23  H   UNL     1      -9.341   0.438 122.673  0.00  0.00    +0.000 HD
ENDBRANCH  17  22
BRANCH  13  24
ATOM     24  O   UNL     1      -8.303   0.660 128.721  0.00  0.00    +0.000 OA
BRANCH  24  25
ATOM     25  C   UNL     1      -7.677   1.730 129.237  0.00  0.00    +0.000 C 
ATOM     26  O   UNL     1      -7.158   1.794 130.338  0.00  0.00    +0.000 OA
BRANCH  25  27
ATOM     27  C   UNL     1      -7.825   2.858 128.299  0.00  0.00    +0.000 C 
BRANCH  27  28
ATOM     28  S   UNL     1      -7.514   4.433 129.256  0.00  0.00    +0.000 S 
BRANCH  28  29
ATOM     29  C   UNL     1      -9.175   5.092 129.724  0.00  0.00    +0.000 C 
ATOM     30  C   UNL     1      -9.058   6.562 130.187  0.00  0.00    +0.000 C 
ATOM     31  C   UNL     1      -8.313   6.666 131.518  0.00  0.00    +0.000 C 
ATOM     32  C   UNL     1      -8.995   5.821 132.603  0.00  0.00    +0.000 C 
ATOM     33  C   UNL     1      -9.161   4.415 132.116  0.00  0.00    +0.000 C 
ATOM     34  C   UNL     1      -9.860   4.239 130.791  0.00  0.00    +0.000 C 
BRANCH  32  35
ATOM     35  N   UNL     1     -10.300   6.319 132.969  0.00  0.00    +0.000 NA
ATOM     36  H   UNL     1     -10.997   5.606 132.870  0.00  0.00    +0.000 HD
ATOM     37  H   UNL     1     -10.622   6.960 132.260  0.00  0.00    +0.000 HD
ENDBRANCH  32  35
BRANCH  34  38
ATOM     38  O   UNL     1     -11.232   4.550 130.943  0.00  0.00    +0.000 OA
ATOM     39  H   UNL     1     -11.640   3.807 131.391  0.00  0.00    +0.000 HD
ENDBRANCH  34  38
ENDBRANCH  28  29
ENDBRANCH  27  28
ENDBRANCH  25  27
ENDBRANCH  24  25
ENDBRANCH  13  24
TORSDOF 9
ENDMDL
MODEL 4
REMARK VINA RESULT:      -8.9      3.340      5.294
REMARK  Name = Lefamulin
REMARK  13 active torsions:
REMARK  status: ('A' for Active; 'I' for Inactive)
REMARK    1  A    between atoms: C_10  and  C_11
REMARK    2  A    between atoms: C_12  and  C_13
REMARK    3  A    between atoms: C_14  and  O_24
REMARK    4  A    between atoms: C_16  and  C_17
REMARK    5  A    between atoms: C_16  and  C_18
REMARK    6  A    between atoms: C_20  and  O_21
REMARK    7  A    between atoms: C_22  and  C_23
REMARK    8  A    between atoms: O_24  and  C_25
REMARK    9  A    between atoms: C_25  and  C_27
REMARK   10  A    between atoms: C_27  and  S_28
REMARK   11  A    between atoms: S_28  and  C_29
REMARK   12  A    between atoms: C_32  and  N_33
REMARK   13  A    between atoms: C_35  and  O_36
REMARK                            x       y       z     vdW  Elec       q    Type
REMARK                         _______ _______ _______ _____ _____    ______ ____
ROOT
ATOM      1  C   UNL     1      -7.843  -0.786 125.253  0.00  0.00    +0.000 C 
ATOM      2  C   UNL     1      -5.940  -1.451 124.784  0.00  0.00    +0.000 C 
ATOM      3  O   UNL     1      -4.847  -1.057 125.234  0.00  0.00    +0.000 OA
ATOM      4  C   UNL     1      -6.088  -3.310 124.665  0.00  0.00    +0.000 C 
ATOM      5  C   UNL     1      -7.541  -3.422 124.118  0.00  0.00    +0.000 C 
ATOM      6  C   UNL     1      -8.832  -1.877 124.656  0.00  0.00    +0.000 C 
ATOM      7  C   UNL     1      -8.950  -0.726 123.682  0.00  0.00    +0.000 C 
ATOM      8  C   UNL     1      -9.525   0.546 123.538  0.00  0.00    +0.000 C 
ATOM      9  C   UNL     1      -9.281   1.040 124.893  0.00  0.00    +0.000 C 
ATOM     10  C   UNL     1     -10.450   0.503 125.754  0.00  0.00    +0.000 C 
ATOM     11  C   UNL     1      -7.889   0.660 125.378  0.00  0.00    +0.000 C 
ATOM     12  C   UNL     1      -6.707   0.892 124.482  0.00  0.00    +0.000 C 
ATOM     13  C   UNL     1      -7.670   1.102 126.831  0.00  0.00    +0.000 C 
ATOM     14  C   UNL     1      -6.513   0.405 127.484  0.00  0.00    +0.000 C 
ATOM     15  C   UNL     1      -7.087  -1.063 127.666  0.00  0.00    +0.000 C 
ATOM     16  C   UNL     1      -7.893  -1.431 128.806  0.00  0.00    +0.000 C 
ATOM     17  C   UNL     1      -6.767  -1.771 126.390  0.00  0.00    +0.000 C 
ATOM     18  C   UNL     1      -7.615  -2.102 124.353  0.00  0.00    +0.000 C 
ATOM     19  C   UNL     1      -9.208  -2.941 123.152  0.00  0.00    +0.000 C 
ENDROOT
BRANCH  15  20
ATOM     20  C   UNL     1      -7.408  -2.527 126.951  0.00  0.00    +0.000 C 
ATOM     21  C   UNL     1      -8.324  -3.383 127.485  0.00  0.00    +0.000 C 
ENDBRANCH  15  20
BRANCH  17  22
ATOM     22  O   UNL     1      -5.734  -2.696 127.840  0.00  0.00    +0.000 OA
ATOM     23  H   UNL     1      -5.068  -2.022 128.181  0.00  0.00    +0.000 HD
ENDBRANCH  17  22
BRANCH  13  24
ATOM     24  O   UNL     1      -7.538   2.484 126.717  0.00  0.00    +0.000 OA
BRANCH  24  25
ATOM     25  C   UNL     1      -8.071   3.145 127.759  0.00  0.00    +0.000 C 
ATOM     26  O   UNL     1      -8.999   2.762 128.449  0.00  0.00    +0.000 OA
BRANCH  25  27
ATOM     27  C   UNL     1      -7.425   4.467 127.856  0.00  0.00    +0.000 C 
BRANCH  27  28
ATOM     28  S   UNL     1      -5.832   4.248 128.810  0.00  0.00    +0.000 S 
BRANCH  28  29
ATOM     29  C   UNL     1      -4.511   5.059 127.804  0.00  0.00    +0.000 C 
ATOM     30  C   UNL     1      -4.514   4.499 126.363  0.00  0.00    +0.000 C 
ATOM     31  C   UNL     1      -4.055   3.041 126.334  0.00  0.00    +0.000 C 
ATOM     32  C   UNL     1      -2.662   2.885 126.961  0.00  0.00    +0.000 C 
ATOM     33  C   UNL     1      -2.656   3.490 128.331  0.00  0.00    +0.000 C 
ATOM     34  C   UNL     1      -3.128   4.919 128.438  0.00  0.00    +0.000 C 
BRANCH  32  35
ATOM     35  N   UNL     1      -1.621   3.526 126.190  0.00  0.00    +0.000 NA
ATOM     36  H   UNL     1      -0.748   3.049 126.302  0.00  0.00    +0.000 HD
ATOM     37  H   UNL     1      -1.383   4.406 126.620  0.00  0.00    +0.000 HD
ENDBRANCH  32  35
BRANCH  34  38
ATOM     38  O   UNL     1      -2.167   5.773 127.850  0.00  0.00    +0.000 OA
ATOM     39  H   UNL     1      -1.992   5.434 126.969  0.00  0.00    +0.000 HD
ENDBRANCH  34  38
ENDBRANCH  28  29
ENDBRANCH  27  28
ENDBRANCH  25  27
ENDBRANCH  24  25
ENDBRANCH  13  24
TORSDOF 9
ENDMDL
MODEL 5
REMARK VINA RESULT:      -8.9      1.881      3.661
REMARK  Name = Lefamulin
REMARK  13 active torsions:
REMARK  status: ('A' for Active; 'I' for Inactive)
REMARK    1  A    between atoms: C_10  and  C_11
REMARK    2  A    between atoms: C_12  and  C_13
REMARK    3  A    between atoms: C_14  and  O_24
REMARK    4  A    between atoms: C_16  and  C_17
REMARK    5  A    between atoms: C_16  and  C_18
REMARK    6  A    between atoms: C_20  and  O_21
REMARK    7  A    between atoms: C_22  and  C_23
REMARK    8  A    between atoms: O_24  and  C_25
REMARK    9  A    between atoms: C_25  and  C_27
REMARK   10  A    between atoms: C_27  and  S_28
REMARK   11  A    between atoms: S_28  and  C_29
REMARK   12  A    between atoms: C_32  and  N_33
REMARK   13  A    between atoms: C_35  and  O_36
REMARK                            x       y       z     vdW  Elec       q    Type
REMARK                         _______ _______ _______ _____ _____    ______ ____
ROOT
ATOM      1  C   UNL     1      -7.783  -0.905 124.947  0.00  0.00    +0.000 C 
ATOM      2  C   UNL     1      -6.042  -1.893 124.420  0.00  0.00    +0.000 C 
ATOM      3  O   UNL     1      -4.863  -1.577 124.671  0.00  0.00    +0.000 OA
ATOM      4  C   UNL     1      -6.414  -3.706 124.675  0.00  0.00    +0.000 C 
ATOM      5  C   UNL     1      -7.927  -3.716 124.312  0.00  0.00    +0.000 C 
ATOM      6  C   UNL     1      -8.957  -1.940 124.676  0.00  0.00    +0.000 C 
ATOM      7  C   UNL     1      -9.065  -0.974 123.517  0.00  0.00    +0.000 C 
ATOM      8  C   UNL     1      -9.506   0.318 123.193  0.00  0.00    +0.000 C 
ATOM      9  C   UNL     1      -9.037   1.006 124.395  0.00  0.00    +0.000 C 
ATOM     10  C   UNL     1     -10.141   0.793 125.460  0.00  0.00    +0.000 C 
ATOM     11  C   UNL     1      -7.647   0.533 124.798  0.00  0.00    +0.000 C 
ATOM     12  C   UNL     1      -6.569   0.442 123.757  0.00  0.00    +0.000 C 
ATOM     13  C   UNL     1      -7.197   1.192 126.109  0.00  0.00    +0.000 C 
ATOM     14  C   UNL     1      -6.054   0.471 126.760  0.00  0.00    +0.000 C 
ATOM     15  C   UNL     1      -6.763  -0.851 127.278  0.00  0.00    +0.000 C 
ATOM     16  C   UNL     1      -7.456  -0.900 128.544  0.00  0.00    +0.000 C 
ATOM     17  C   UNL     1      -6.690  -1.810 126.134  0.00  0.00    +0.000 C 
ATOM     18  C   UNL     1      -7.821  -2.377 124.297  0.00  0.00    +0.000 C 
ATOM     19  C   UNL     1      -9.638  -3.192 123.450  0.00  0.00    +0.000 C 
ENDROOT
BRANCH  15  20
ATOM     20  C   UNL     1      -7.337  -2.361 126.893  0.00  0.00    +0.000 C 
ATOM     21  C   UNL     1      -8.192  -3.019 127.724  0.00  0.00    +0.000 C 
ENDBRANCH  15  20
BRANCH  17  22
ATOM     22  O   UNL     1      -5.594  -2.595 127.620  0.00  0.00    +0.000 OA
ATOM     23  H   UNL     1      -4.975  -1.862 127.926  0.00  0.00    +0.000 HD
ENDBRANCH  17  22
BRANCH  13  24
ATOM     24  O   UNL     1      -6.925   2.501 125.720  0.00  0.00    +0.000 OA
BRANCH  24  25
ATOM     25  C   UNL     1      -6.765   3.331 126.764  0.00  0.00    +0.000 C 
ATOM     26  O   UNL     1      -5.728   3.885 127.084  0.00  0.00    +0.000 OA
BRANCH  25  27
ATOM     27  C   UNL     1      -8.023   3.368 127.532  0.00  0.00    +0.000 C 
BRANCH  27  28
ATOM     28  S   UNL     1      -7.671   4.230 129.152  0.00  0.00    +0.000 S 
BRANCH  28  29
ATOM     29  C   UNL     1      -9.267   4.987 129.694  0.00  0.00    +0.000 C 
ATOM     30  C   UNL     1      -9.044   6.453 130.130  0.00  0.00    +0.000 C 
ATOM     31  C   UNL     1      -8.228   6.529 131.420  0.00  0.00    +0.000 C 
ATOM     32  C   UNL     1      -8.899   5.736 132.549  0.00  0.00    +0.000 C 
ATOM     33  C   UNL     1      -9.168   4.337 132.091  0.00  0.00    +0.000 C 
ATOM     34  C   UNL     1      -9.944   4.186 130.805  0.00  0.00    +0.000 C 
BRANCH  32  35
ATOM     35  N   UNL     1     -10.155   6.311 132.974  0.00  0.00    +0.000 NA
ATOM     36  H   UNL     1     -10.006   7.050 133.633  0.00  0.00    +0.000 HD
ATOM     37  H   UNL     1     -10.636   5.656 133.570  0.00  0.00    +0.000 HD
ENDBRANCH  32  35
BRANCH  34  38
ATOM     38  O   UNL     1     -11.286   4.576 131.022  0.00  0.00    +0.000 OA
ATOM     39  H   UNL     1     -11.832   4.026 130.456  0.00  0.00    +0.000 HD
ENDBRANCH  34  38
ENDBRANCH  28  29
ENDBRANCH  27  28
ENDBRANCH  25  27
ENDBRANCH  24  25
ENDBRANCH  13  24
TORSDOF 9
ENDMDL
MODEL 6
REMARK VINA RESULT:      -8.9      3.141      8.503
REMARK  Name = Lefamulin
REMARK  13 active torsions:
REMARK  status: ('A' for Active; 'I' for Inactive)
REMARK    1  A    between atoms: C_10  and  C_11
REMARK    2  A    between atoms: C_12  and  C_13
REMARK    3  A    between atoms: C_14  and  O_24
REMARK    4  A    between atoms: C_16  and  C_17
REMARK    5  A    between atoms: C_16  and  C_18
REMARK    6  A    between atoms: C_20  and  O_21
REMARK    7  A    between atoms: C_22  and  C_23
REMARK    8  A    between atoms: O_24  and  C_25
REMARK    9  A    between atoms: C_25  and  C_27
REMARK   10  A    between atoms: C_27  and  S_28
REMARK   11  A    between atoms: S_28  and  C_29
REMARK   12  A    between atoms: C_32  and  N_33
REMARK   13  A    between atoms: C_35  and  O_36
REMARK                            x       y       z     vdW  Elec       q    Type
REMARK                         _______ _______ _______ _____ _____    ______ ____
ROOT
ATOM      1  C   UNL     1      -7.063   3.843 130.611  0.00  0.00    +0.000 C 
ATOM      2  C   UNL     1      -8.439   5.205 129.881  0.00  0.00    +0.000 C 
ATOM      3  O   UNL     1      -9.275   5.053 128.969  0.00  0.00    +0.000 OA
ATOM      4  C   UNL     1      -9.113   6.075 131.392  0.00  0.00    +0.000 C 
ATOM      5  C   UNL     1      -7.844   6.054 132.293  0.00  0.00    +0.000 C 
ATOM      6  C   UNL     1      -6.535   4.462 131.975  0.00  0.00    +0.000 C 
ATOM      7  C   UNL     1      -5.395   4.709 131.013  0.00  0.00    +0.000 C 
ATOM      8  C   UNL     1      -4.336   4.056 130.364  0.00  0.00    +0.000 C 
ATOM      9  C   UNL     1      -5.030   2.812 130.033  0.00  0.00    +0.000 C 
ATOM     10  C   UNL     1      -4.928   1.924 131.297  0.00  0.00    +0.000 C 
ATOM     11  C   UNL     1      -6.445   3.081 129.540  0.00  0.00    +0.000 C 
ATOM     12  C   UNL     1      -6.675   4.137 128.498  0.00  0.00    +0.000 C 
ATOM     13  C   UNL     1      -7.198   1.770 129.279  0.00  0.00    +0.000 C 
ATOM     14  C   UNL     1      -8.685   1.958 129.202  0.00  0.00    +0.000 C 
ATOM     15  C   UNL     1      -9.048   2.255 130.718  0.00  0.00    +0.000 C 
ATOM     16  C   UNL     1      -9.278   1.194 131.670  0.00  0.00    +0.000 C 
ATOM     17  C   UNL     1      -8.890   3.732 130.878  0.00  0.00    +0.000 C 
ATOM     18  C   UNL     1      -7.324   5.247 131.353  0.00  0.00    +0.000 C 
ATOM     19  C   UNL     1      -5.926   6.036 132.805  0.00  0.00    +0.000 C 
ENDROOT
BRANCH  15  20
ATOM     20  C   UNL     1      -9.092   3.377 131.941  0.00  0.00    +0.000 C 
ATOM     21  C   UNL     1      -9.210   2.992 133.242  0.00  0.00    +0.000 C 
ENDBRANCH  15  20
BRANCH  17  22
ATOM     22  O   UNL     1     -10.832   3.323 131.172  0.00  0.00    +0.000 OA
ATOM     23  H   UNL     1     -11.322   4.195 131.050  0.00  0.00    +0.000 HD
ENDBRANCH  17  22
BRANCH  13  24
ATOM     24  O   UNL     1      -6.601   1.297 128.113  0.00  0.00    +0.000 OA
BRANCH  24  25
ATOM     25  C   UNL     1      -6.226   0.011 128.206  0.00  0.00    +0.000 C 
ATOM     26  O   UNL     1      -6.306  -0.688 129.202  0.00  0.00    +0.000 OA
BRANCH  25  27
ATOM     27  C   UNL     1      -5.587  -0.385 126.938  0.00  0.00    +0.000 C 
BRANCH  27  28
ATOM     28  S   UNL     1      -6.143  -2.126 126.546  0.00  0.00    +0.000 S 
BRANCH  28  29
ATOM     29  C   UNL     1      -7.979  -2.053 126.355  0.00  0.00    +0.000 C 
ATOM     30  C   UNL     1      -8.552  -3.472 126.136  0.00  0.00    +0.000 C 
ATOM     31  C   UNL     1      -8.136  -4.035 124.777  0.00  0.00    +0.000 C 
ATOM     32  C   UNL     1      -8.571  -3.105 123.636  0.00  0.00    +0.000 C 
ATOM     33  C   UNL     1      -8.064  -1.720 123.893  0.00  0.00    +0.000 C 
ATOM     34  C   UNL     1      -8.411  -1.114 125.231  0.00  0.00    +0.000 C 
BRANCH  32  35
ATOM     35  N   UNL     1     -10.005  -3.030 123.484  0.00  0.00    +0.000 NA
ATOM     36  H   UNL     1     -10.262  -2.281 122.871  0.00  0.00    +0.000 HD
ATOM     37  H   UNL     1     -10.412  -2.687 124.340  0.00  0.00    +0.000 HD
ENDBRANCH  32  35
BRANCH  34  38
ATOM     38  O   UNL     1      -9.794  -0.819 125.264  0.00  0.00    +0.000 OA
ATOM     39  H   UNL     1      -9.888   0.036 125.690  0.00  0.00    +0.000 HD
ENDBRANCH  34  38
ENDBRANCH  28  29
ENDBRANCH  27  28
ENDBRANCH  25  27
ENDBRANCH  24  25
ENDBRANCH  13  24
TORSDOF 9
ENDMDL
MODEL 7
REMARK VINA RESULT:      -8.8      2.659      3.502
REMARK  Name = Lefamulin
REMARK  13 active torsions:
REMARK  status: ('A' for Active; 'I' for Inactive)
REMARK    1  A    between atoms: C_10  and  C_11
REMARK    2  A    between atoms: C_12  and  C_13
REMARK    3  A    between atoms: C_14  and  O_24
REMARK    4  A    between atoms: C_16  and  C_17
REMARK    5  A    between atoms: C_16  and  C_18
REMARK    6  A    between atoms: C_20  and  O_21
REMARK    7  A    between atoms: C_22  and  C_23
REMARK    8  A    between atoms: O_24  and  C_25
REMARK    9  A    between atoms: C_25  and  C_27
REMARK   10  A    between atoms: C_27  and  S_28
REMARK   11  A    between atoms: S_28  and  C_29
REMARK   12  A    between atoms: C_32  and  N_33
REMARK   13  A    between atoms: C_35  and  O_36
REMARK                            x       y       z     vdW  Elec       q    Type
REMARK                         _______ _______ _______ _____ _____    ______ ____
ROOT
ATOM      1  C   UNL     1      -7.283  -1.249 125.801  0.00  0.00    +0.000 C 
ATOM      2  C   UNL     1      -8.848  -2.560 125.463  0.00  0.00    +0.000 C 
ATOM      3  O   UNL     1     -10.066  -2.382 125.656  0.00  0.00    +0.000 OA
ATOM      4  C   UNL     1      -8.449  -3.389 123.836  0.00  0.00    +0.000 C 
ATOM      5  C   UNL     1      -6.895  -3.411 123.929  0.00  0.00    +0.000 C 
ATOM      6  C   UNL     1      -6.033  -1.877 125.047  0.00  0.00    +0.000 C 
ATOM      7  C   UNL     1      -5.754  -2.179 126.503  0.00  0.00    +0.000 C 
ATOM      8  C   UNL     1      -5.319  -1.575 127.693  0.00  0.00    +0.000 C 
ATOM      9  C   UNL     1      -6.034  -0.307 127.557  0.00  0.00    +0.000 C 
ATOM     10  C   UNL     1      -5.140   0.587 126.664  0.00  0.00    +0.000 C 
ATOM     11  C   UNL     1      -7.452  -0.523 127.047  0.00  0.00    +0.000 C 
ATOM     12  C   UNL     1      -8.312  -1.577 127.680  0.00  0.00    +0.000 C 
ATOM     13  C   UNL     1      -8.168   0.816 126.820  0.00  0.00    +0.000 C 
ATOM     14  C   UNL     1      -9.379   0.688 125.944  0.00  0.00    +0.000 C 
ATOM     15  C   UNL     1      -8.720   0.420 124.526  0.00  0.00    +0.000 C 
ATOM     16  C   UNL     1      -8.274   1.497 123.675  0.00  0.00    +0.000 C 
ATOM     17  C   UNL     1      -8.535  -1.061 124.452  0.00  0.00    +0.000 C 
ATOM     18  C   UNL     1      -7.057  -2.635 125.013  0.00  0.00    +0.000 C 
ATOM     19  C   UNL     1      -5.079  -3.467 124.731  0.00  0.00    +0.000 C 
ENDROOT
BRANCH  15  20
ATOM     20  C   UNL     1      -8.017  -0.689 123.509  0.00  0.00    +0.000 C 
ATOM     21  C   UNL     1      -7.052  -0.315 122.623  0.00  0.00    +0.000 C 
ENDBRANCH  15  20
BRANCH  17  22
ATOM     22  O   UNL     1      -9.853  -0.571 123.021  0.00  0.00    +0.000 OA
ATOM     23  H   UNL     1      -9.871  -1.348 122.381  0.00  0.00    +0.000 HD
ENDBRANCH  17  22
BRANCH  13  24
ATOM     24  O   UNL     1      -8.421   1.254 128.118  0.00  0.00    +0.000 OA
BRANCH  24  25
ATOM     25  C   UNL     1      -8.227   2.575 128.268  0.00  0.00    +0.000 C 
ATOM     26  O   UNL     1      -8.324   3.416 127.392  0.00  0.00    +0.000 OA
BRANCH  25  27
ATOM     27  C   UNL     1      -7.758   2.827 129.643  0.00  0.00    +0.000 C 
BRANCH  27  28
ATOM     28  S   UNL     1      -5.894   2.945 129.591  0.00  0.00    +0.000 S 
BRANCH  28  29
ATOM     29  C   UNL     1      -5.501   4.573 128.810  0.00  0.00    +0.000 C 
ATOM     30  C   UNL     1      -4.769   4.360 127.465  0.00  0.00    +0.000 C 
ATOM     31  C   UNL     1      -3.367   3.789 127.681  0.00  0.00    +0.000 C 
ATOM     32  C   UNL     1      -2.535   4.695 128.599  0.00  0.00    +0.000 C 
ATOM     33  C   UNL     1      -3.284   4.946 129.871  0.00  0.00    +0.000 C 
ATOM     34  C   UNL     1      -4.688   5.481 129.732  0.00  0.00    +0.000 C 
BRANCH  32  35
ATOM     35  N   UNL     1      -2.231   5.976 128.005  0.00  0.00    +0.000 NA
ATOM     36  H   UNL     1      -2.934   6.653 128.233  0.00  0.00    +0.000 HD
ATOM     37  H   UNL     1      -2.375   5.922 127.008  0.00  0.00    +0.000 HD
ENDBRANCH  32  35
BRANCH  34  38
ATOM     38  O   UNL     1      -4.635   6.818 129.276  0.00  0.00    +0.000 OA
ATOM     39  H   UNL     1      -3.891   7.235 129.716  0.00  0.00    +0.000 HD
ENDBRANCH  34  38
ENDBRANCH  28  29
ENDBRANCH  27  28
ENDBRANCH  25  27
ENDBRANCH  24  25
ENDBRANCH  13  24
TORSDOF 9
ENDMDL
MODEL 8
REMARK VINA RESULT:      -8.7      4.250      8.690
REMARK  Name = Lefamulin
REMARK  13 active torsions:
REMARK  status: ('A' for Active; 'I' for Inactive)
REMARK    1  A    between atoms: C_10  and  C_11
REMARK    2  A    between atoms: C_12  and  C_13
REMARK    3  A    between atoms: C_14  and  O_24
REMARK    4  A    between atoms: C_16  and  C_17
REMARK    5  A    between atoms: C_16  and  C_18
REMARK    6  A    between atoms: C_20  and  O_21
REMARK    7  A    between atoms: C_22  and  C_23
REMARK    8  A    between atoms: O_24  and  C_25
REMARK    9  A    between atoms: C_25  and  C_27
REMARK   10  A    between atoms: C_27  and  S_28
REMARK   11  A    between atoms: S_28  and  C_29
REMARK   12  A    between atoms: C_32  and  N_33
REMARK   13  A    between atoms: C_35  and  O_36
REMARK                            x       y       z     vdW  Elec       q    Type
REMARK                         _______ _______ _______ _____ _____    ______ ____
ROOT
ATOM      1  C   UNL     1      -6.987   5.069 132.001  0.00  0.00    +0.000 C 
ATOM      2  C   UNL     1      -8.382   6.461 131.369  0.00  0.00    +0.000 C 
ATOM      3  O   UNL     1      -8.644   6.826 130.206  0.00  0.00    +0.000 OA
ATOM      4  C   UNL     1      -9.891   6.155 132.428  0.00  0.00    +0.000 C 
ATOM      5  C   UNL     1      -9.198   5.701 133.745  0.00  0.00    +0.000 C 
ATOM      6  C   UNL     1      -7.348   4.766 133.518  0.00  0.00    +0.000 C 
ATOM      7  C   UNL     1      -6.128   5.653 133.619  0.00  0.00    +0.000 C 
ATOM      8  C   UNL     1      -4.733   5.635 133.465  0.00  0.00    +0.000 C 
ATOM      9  C   UNL     1      -4.666   4.800 132.267  0.00  0.00    +0.000 C 
ATOM     10  C   UNL     1      -4.725   3.337 132.769  0.00  0.00    +0.000 C 
ATOM     11  C   UNL     1      -5.742   5.185 131.262  0.00  0.00    +0.000 C 
ATOM     12  C   UNL     1      -5.946   6.632 130.917  0.00  0.00    +0.000 C 
ATOM     13  C   UNL     1      -5.725   4.249 130.046  0.00  0.00    +0.000 C 
ATOM     14  C   UNL     1      -6.994   4.310 129.246  0.00  0.00    +0.000 C 
ATOM     15  C   UNL     1      -8.017   3.578 130.215  0.00  0.00    +0.000 C 
ATOM     16  C   UNL     1      -8.153   2.142 130.237  0.00  0.00    +0.000 C 
ATOM     17  C   UNL     1      -8.550   4.653 131.105  0.00  0.00    +0.000 C 
ATOM     18  C   UNL     1      -8.068   5.692 133.019  0.00  0.00    +0.000 C 
ATOM     19  C   UNL     1      -7.818   5.545 135.164  0.00  0.00    +0.000 C 
ENDROOT
BRANCH  15  20
ATOM     20  C   UNL     1      -8.996   3.704 131.550  0.00  0.00    +0.000 C 
ATOM     21  C   UNL     1      -9.485   2.593 132.167  0.00  0.00    +0.000 C 
ENDBRANCH  15  20
BRANCH  17  22
ATOM     22  O   UNL     1     -10.098   3.976 130.022  0.00  0.00    +0.000 OA
ATOM     23  H   UNL     1      -9.908   3.003 129.843  0.00  0.00    +0.000 HD
ENDBRANCH  17  22
BRANCH  13  24
ATOM     24  O   UNL     1      -4.578   4.648 129.365  0.00  0.00    +0.000 OA
BRANCH  24  25
ATOM     25  C   UNL     1      -3.912   3.616 128.821  0.00  0.00    +0.000 C 
ATOM     26  O   UNL     1      -3.860   2.483 129.266  0.00  0.00    +0.000 OA
BRANCH  25  27
ATOM     27  C   UNL     1      -3.152   4.110 127.657  0.00  0.00    +0.000 C 
BRANCH  27  28
ATOM     28  S   UNL     1      -3.915   3.359 126.125  0.00  0.00    +0.000 S 
BRANCH  28  29
ATOM     29  C   UNL     1      -5.639   4.018 126.029  0.00  0.00    +0.000 C 
ATOM     30  C   UNL     1      -6.651   2.858 125.897  0.00  0.00    +0.000 C 
ATOM     31  C   UNL     1      -6.524   2.164 124.540  0.00  0.00    +0.000 C 
ATOM     32  C   UNL     1      -6.707   3.161 123.388  0.00  0.00    +0.000 C 
ATOM     33  C   UNL     1      -5.766   4.312 123.564  0.00  0.00    +0.000 C 
ATOM     34  C   UNL     1      -5.815   5.025 124.894  0.00  0.00    +0.000 C 
BRANCH  32  35
ATOM     35  N   UNL     1      -8.048   3.693 123.310  0.00  0.00    +0.000 NA
ATOM     36  H   UNL     1      -8.248   4.026 122.386  0.00  0.00    +0.000 HD
ATOM     37  H   UNL     1      -8.087   4.568 123.810  0.00  0.00    +0.000 HD
ENDBRANCH  32  35
BRANCH  34  38
ATOM     38  O   UNL     1      -7.024   5.752 124.989  0.00  0.00    +0.000 OA
ATOM     39  H   UNL     1      -7.164   6.176 124.139  0.00  0.00    +0.000 HD
ENDBRANCH  34  38
ENDBRANCH  28  29
ENDBRANCH  27  28
ENDBRANCH  25  27
ENDBRANCH  24  25
ENDBRANCH  13  24
TORSDOF 9
ENDMDL
MODEL 9
REMARK VINA RESULT:      -8.6      2.790      3.983
REMARK  Name = Lefamulin
REMARK  13 active torsions:
REMARK  status: ('A' for Active; 'I' for Inactive)
REMARK    1  A    between atoms: C_10  and  C_11
REMARK    2  A    between atoms: C_12  and  C_13
REMARK    3  A    between atoms: C_14  and  O_24
REMARK    4  A    between atoms: C_16  and  C_17
REMARK    5  A    between atoms: C_16  and  C_18
REMARK    6  A    between atoms: C_20  and  O_21
REMARK    7  A    between atoms: C_22  and  C_23
REMARK    8  A    between atoms: O_24  and  C_25
REMARK    9  A    between atoms: C_25  and  C_27
REMARK   10  A    between atoms: C_27  and  S_28
REMARK   11  A    between atoms: S_28  and  C_29
REMARK   12  A    between atoms: C_32  and  N_33
REMARK   13  A    between atoms: C_35  and  O_36
REMARK                            x       y       z     vdW  Elec       q    Type
REMARK                         _______ _______ _______ _____ _____    ______ ____
ROOT
ATOM      1  C   UNL     1      -7.249  -1.232 125.825  0.00  0.00    +0.000 C 
ATOM      2  C   UNL     1      -8.790  -2.478 125.227  0.00  0.00    +0.000 C 
ATOM      3  O   UNL     1     -10.008  -2.380 125.472  0.00  0.00    +0.000 OA
ATOM      4  C   UNL     1      -8.405  -2.912 123.451  0.00  0.00    +0.000 C 
ATOM      5  C   UNL     1      -6.850  -2.912 123.513  0.00  0.00    +0.000 C 
ATOM      6  C   UNL     1      -6.001  -1.642 124.932  0.00  0.00    +0.000 C 
ATOM      7  C   UNL     1      -5.685  -2.253 126.280  0.00  0.00    +0.000 C 
ATOM      8  C   UNL     1      -5.240  -1.917 127.567  0.00  0.00    +0.000 C 
ATOM      9  C   UNL     1      -5.987  -0.670 127.728  0.00  0.00    +0.000 C 
ATOM     10  C   UNL     1      -5.133   0.425 127.044  0.00  0.00    +0.000 C 
ATOM     11  C   UNL     1      -7.410  -0.806 127.204  0.00  0.00    +0.000 C 
ATOM     12  C   UNL     1      -8.232  -1.998 127.599  0.00  0.00    +0.000 C 
ATOM     13  C   UNL     1      -8.162   0.529 127.292  0.00  0.00    +0.000 C 
ATOM     14  C   UNL     1      -9.388   0.566 126.428  0.00  0.00    +0.000 C 
ATOM     15  C   UNL     1      -8.751   0.638 124.975  0.00  0.00    +0.000 C 
ATOM     16  C   UNL     1      -8.349   1.890 124.380  0.00  0.00    +0.000 C 
ATOM     17  C   UNL     1      -8.533  -0.784 124.571  0.00  0.00    +0.000 C 
ATOM     18  C   UNL     1      -7.008  -2.402 124.745  0.00  0.00    +0.000 C 
ATOM     19  C   UNL     1      -5.017  -3.095 124.255  0.00  0.00    +0.000 C 
ENDROOT
BRANCH  15  20
ATOM     20  C   UNL     1      -8.044  -0.197 123.727  0.00  0.00    +0.000 C 
ATOM     21  C   UNL     1      -7.212   0.428 122.847  0.00  0.00    +0.000 C 
ENDBRANCH  15  20
BRANCH  17  22
ATOM     22  O   UNL     1      -9.892  -0.023 123.305  0.00  0.00    +0.000 OA
ATOM     23  H   UNL     1     -10.777  -0.417 123.578  0.00  0.00    +0.000 HD
ENDBRANCH  17  22
BRANCH  13  24
ATOM     24  O   UNL     1      -8.399   0.660 128.659  0.00  0.00    +0.000 OA
BRANCH  24  25
ATOM     25  C   UNL     1      -8.465   1.942 129.054  0.00  0.00    +0.000 C 
ATOM     26  O   UNL     1      -8.619   2.908 128.327  0.00  0.00    +0.000 OA
BRANCH  25  27
ATOM     27  C   UNL     1      -8.200   2.001 130.503  0.00  0.00    +0.000 C 
BRANCH  27  28
ATOM     28  S   UNL     1      -6.445   1.418 130.780  0.00  0.00    +0.000 S 
BRANCH  28  29
ATOM     29  C   UNL     1      -6.503   0.273 132.228  0.00  0.00    +0.000 C 
ATOM     30  C   UNL     1      -5.147  -0.451 132.394  0.00  0.00    +0.000 C 
ATOM     31  C   UNL     1      -4.900  -1.434 131.249  0.00  0.00    +0.000 C 
ATOM     32  C   UNL     1      -6.038  -2.458 131.143  0.00  0.00    +0.000 C 
ATOM     33  C   UNL     1      -7.351  -1.745 131.048  0.00  0.00    +0.000 C 
ATOM     34  C   UNL     1      -7.648  -0.735 132.130  0.00  0.00    +0.000 C 
BRANCH  32  35
ATOM     35  N   UNL     1      -6.102  -3.353 132.275  0.00  0.00    +0.000 NA
ATOM     36  H   UNL     1      -5.250  -3.324 132.802  0.00  0.00    +0.000 HD
ATOM     37  H   UNL     1      -6.060  -4.306 131.949  0.00  0.00    +0.000 HD
ENDBRANCH  32  35
BRANCH  34  38
ATOM     38  O   UNL     1      -7.887  -1.412 133.348  0.00  0.00    +0.000 OA
ATOM     39  H   UNL     1      -8.156  -2.306 133.123  0.00  0.00    +0.000 HD
ENDBRANCH  34  38
ENDBRANCH  28  29
ENDBRANCH  27  28
ENDBRANCH  25  27
ENDBRANCH  24  25
ENDBRANCH  13  24
TORSDOF 9
ENDMDL
