MODEL 1
REMARK VINA RESULT:      -7.4      0.000      0.000
REMARK  Name = Leflunomide
REMARK  4 active torsions:
REMARK  status: ('A' for Active; 'I' for Inactive)
REMARK    1  A    between atoms: C_1  and  C_2
REMARK    2  A    between atoms: C_3  and  C_7
REMARK    3  A    between atoms: N_9  and  C_10
REMARK    4  A    between atoms: C_13  and  C_16
REMARK                            x       y       z     vdW  Elec       q    Type
REMARK                         _______ _______ _______ _____ _____    ______ ____
ROOT
ATOM      1  C   UNL     1      -7.115   2.539 122.323  0.00  0.00    +0.000 C 
ATOM      2  O   UNL     1      -8.345   2.646 122.259  0.00  0.00    +0.000 OA
ATOM      3  N   UNL     1      -6.481   1.447 122.894  0.00  0.00    +0.000 N 
ATOM      4  H   UNL     1      -5.504   1.482 123.114  0.00  0.00    +0.000 HD
ENDROOT
BRANCH   1   7
ATOM      5  C   UNL     1      -7.002   4.278 119.349  0.00  0.00    +0.000 C 
ATOM      6  C   UNL     1      -6.271   4.312 120.627  0.00  0.00    +0.000 A 
ATOM      7  C   UNL     1      -6.293   3.627 121.826  0.00  0.00    +0.000 A 
ATOM      8  C   UNL     1      -5.260   4.258 122.570  0.00  0.00    +0.000 A 
ATOM      9  N   UNL     1      -4.660   5.238 121.895  0.00  0.00    +0.000 NA
ATOM     10  O   UNL     1      -5.298   5.270 120.672  0.00  0.00    +0.000 OA
ENDBRANCH   1   7
BRANCH   3  11
ATOM     11  C   UNL     1      -7.153   0.289 123.328  0.00  0.00    +0.000 A 
ATOM     12  C   UNL     1      -8.187   0.390 124.264  0.00  0.00    +0.000 A 
ATOM     13  C   UNL     1      -8.822  -0.768 124.727  0.00  0.00    +0.000 A 
ATOM     14  C   UNL     1      -8.451  -2.028 124.229  0.00  0.00    +0.000 A 
ATOM     15  C   UNL     1      -7.382  -2.116 123.330  0.00  0.00    +0.000 A 
ATOM     16  C   UNL     1      -6.744  -0.965 122.881  0.00  0.00    +0.000 A 
BRANCH  14  17
ATOM     17  C   UNL     1      -9.234  -3.262 124.599  0.00  0.00    +0.000 C 
ATOM     18  F   UNL     1     -10.072  -3.673 123.610  0.00  0.00    +0.000 F 
ATOM     19  F   UNL     1      -8.418  -4.320 124.868  0.00  0.00    +0.000 F 
ATOM     20  F   UNL     1     -10.009  -3.101 125.708  0.00  0.00    +0.000 F 
ENDBRANCH  14  17
ENDBRANCH   3  11
TORSDOF 3
ENDMDL
MODEL 2
REMARK VINA RESULT:      -7.0     10.307     12.047
REMARK  Name = Leflunomide
REMARK  4 active torsions:
REMARK  status: ('A' for Active; 'I' for Inactive)
REMARK    1  A    between atoms: C_1  and  C_2
REMARK    2  A    between atoms: C_3  and  C_7
REMARK    3  A    between atoms: N_9  and  C_10
REMARK    4  A    between atoms: C_13  and  C_16
REMARK                            x       y       z     vdW  Elec       q    Type
REMARK                         _______ _______ _______ _____ _____    ______ ____
ROOT
ATOM      1  C   UNL     1      -9.378   3.660 131.747  0.00  0.00    +0.000 C 
ATOM      2  O   UNL     1     -10.124   3.110 130.929  0.00  0.00    +0.000 OA
ATOM      3  N   UNL     1      -9.287   5.037 131.878  0.00  0.00    +0.000 N 
ATOM      4  H   UNL     1      -8.536   5.452 132.396  0.00  0.00    +0.000 HD
ENDROOT
BRANCH   1   7
ATOM      5  C   UNL     1      -7.593   4.226 134.639  0.00  0.00    +0.000 C 
ATOM      6  C   UNL     1      -7.816   3.085 133.737  0.00  0.00    +0.000 A 
ATOM      7  C   UNL     1      -8.519   2.835 132.574  0.00  0.00    +0.000 A 
ATOM      8  C   UNL     1      -8.226   1.468 132.316  0.00  0.00    +0.000 A 
ATOM      9  N   UNL     1      -7.421   0.929 133.231  0.00  0.00    +0.000 NA
ATOM     10  O   UNL     1      -7.164   1.948 134.124  0.00  0.00    +0.000 OA
ENDBRANCH   1   7
BRANCH   3  11
ATOM     11  C   UNL     1     -10.126   5.946 131.206  0.00  0.00    +0.000 A 
ATOM     12  C   UNL     1      -9.643   6.662 130.105  0.00  0.00    +0.000 A 
ATOM     13  C   UNL     1     -10.465   7.598 129.469  0.00  0.00    +0.000 A 
ATOM     14  C   UNL     1     -11.785   7.795 129.905  0.00  0.00    +0.000 A 
ATOM     15  C   UNL     1     -12.237   7.107 131.037  0.00  0.00    +0.000 A 
ATOM     16  C   UNL     1     -11.415   6.187 131.676  0.00  0.00    +0.000 A 
BRANCH  14  17
ATOM     17  C   UNL     1     -12.728   8.679 129.129  0.00  0.00    +0.000 C 
ATOM     18  F   UNL     1     -13.190   9.731 129.858  0.00  0.00    +0.000 F 
ATOM     19  F   UNL     1     -12.131   9.216 128.028  0.00  0.00    +0.000 F 
ATOM     20  F   UNL     1     -13.832   8.025 128.670  0.00  0.00    +0.000 F 
ENDBRANCH  14  17
ENDBRANCH   3  11
TORSDOF 3
ENDMDL
MODEL 3
REMARK VINA RESULT:      -6.8      9.661     11.342
REMARK  Name = Leflunomide
REMARK  4 active torsions:
REMARK  status: ('A' for Active; 'I' for Inactive)
REMARK    1  A    between atoms: C_1  and  C_2
REMARK    2  A    between atoms: C_3  and  C_7
REMARK    3  A    between atoms: N_9  and  C_10
REMARK    4  A    between atoms: C_13  and  C_16
REMARK                            x       y       z     vdW  Elec       q    Type
REMARK                         _______ _______ _______ _____ _____    ______ ____
ROOT
ATOM      1  C   UNL     1      -8.572   3.505 131.232  0.00  0.00    +0.000 C 
ATOM      2  O   UNL     1      -8.208   3.415 130.055  0.00  0.00    +0.000 OA
ATOM      3  N   UNL     1      -9.406   4.513 131.689  0.00  0.00    +0.000 N 
ATOM      4  H   UNL     1      -9.517   4.678 132.672  0.00  0.00    +0.000 HD
ENDROOT
BRANCH   1   7
ATOM      5  C   UNL     1      -8.955   0.105 131.642  0.00  0.00    +0.000 C 
ATOM      6  C   UNL     1      -8.229   1.182 132.335  0.00  0.00    +0.000 A 
ATOM      7  C   UNL     1      -8.064   2.546 132.195  0.00  0.00    +0.000 A 
ATOM      8  C   UNL     1      -7.201   2.873 133.277  0.00  0.00    +0.000 A 
ATOM      9  N   UNL     1      -6.867   1.812 134.010  0.00  0.00    +0.000 NA
ATOM     10  O   UNL     1      -7.514   0.749 133.417  0.00  0.00    +0.000 OA
ENDBRANCH   1   7
BRANCH   3  11
ATOM     11  C   UNL     1     -10.040   5.447 130.850  0.00  0.00    +0.000 A 
ATOM     12  C   UNL     1      -9.388   6.637 130.509  0.00  0.00    +0.000 A 
ATOM     13  C   UNL     1     -10.039   7.584 129.711  0.00  0.00    +0.000 A 
ATOM     14  C   UNL     1     -11.330   7.330 129.220  0.00  0.00    +0.000 A 
ATOM     15  C   UNL     1     -11.987   6.158 129.609  0.00  0.00    +0.000 A 
ATOM     16  C   UNL     1     -11.344   5.224 130.412  0.00  0.00    +0.000 A 
BRANCH  14  17
ATOM     17  C   UNL     1     -11.975   8.268 128.231  0.00  0.00    +0.000 C 
ATOM     18  F   UNL     1     -11.127   8.659 127.242  0.00  0.00    +0.000 F 
ATOM     19  F   UNL     1     -13.043   7.695 127.609  0.00  0.00    +0.000 F 
ATOM     20  F   UNL     1     -12.447   9.414 128.798  0.00  0.00    +0.000 F 
ENDBRANCH  14  17
ENDBRANCH   3  11
TORSDOF 3
ENDMDL
MODEL 4
REMARK VINA RESULT:      -6.8      5.350      7.143
REMARK  Name = Leflunomide
REMARK  4 active torsions:
REMARK  status: ('A' for Active; 'I' for Inactive)
REMARK    1  A    between atoms: C_1  and  C_2
REMARK    2  A    between atoms: C_3  and  C_7
REMARK    3  A    between atoms: N_9  and  C_10
REMARK    4  A    between atoms: C_13  and  C_16
REMARK                            x       y       z     vdW  Elec       q    Type
REMARK                         _______ _______ _______ _____ _____    ______ ____
ROOT
ATOM      1  C   UNL     1      -8.183   1.488 124.772  0.00  0.00    +0.000 C 
ATOM      2  O   UNL     1      -8.637   2.048 125.776  0.00  0.00    +0.000 OA
ATOM      3  N   UNL     1      -6.848   1.562 124.407  0.00  0.00    +0.000 N 
ATOM      4  H   UNL     1      -6.552   1.276 123.493  0.00  0.00    +0.000 HD
ENDROOT
BRANCH   1   7
ATOM      5  C   UNL     1      -8.139  -1.660 123.370  0.00  0.00    +0.000 C 
ATOM      6  C   UNL     1      -9.054  -0.506 123.359  0.00  0.00    +0.000 A 
ATOM      7  C   UNL     1      -9.092   0.762 123.905  0.00  0.00    +0.000 A 
ATOM      8  C   UNL     1     -10.325   1.278 123.421  0.00  0.00    +0.000 A 
ATOM      9  N   UNL     1     -10.982   0.411 122.652  0.00  0.00    +0.000 NA
ATOM     10  O   UNL     1     -10.181  -0.711 122.614  0.00  0.00    +0.000 OA
ENDBRANCH   1   7
BRANCH   3  11
ATOM     11  C   UNL     1      -5.849   2.152 125.203  0.00  0.00    +0.000 A 
ATOM     12  C   UNL     1      -5.258   1.422 126.240  0.00  0.00    +0.000 A 
ATOM     13  C   UNL     1      -4.298   2.028 127.057  0.00  0.00    +0.000 A 
ATOM     14  C   UNL     1      -3.896   3.352 126.819  0.00  0.00    +0.000 A 
ATOM     15  C   UNL     1      -4.531   4.084 125.810  0.00  0.00    +0.000 A 
ATOM     16  C   UNL     1      -5.494   3.485 125.006  0.00  0.00    +0.000 A 
BRANCH  14  17
ATOM     17  C   UNL     1      -2.751   3.959 127.589  0.00  0.00    +0.000 C 
ATOM     18  F   UNL     1      -1.543   3.441 127.236  0.00  0.00    +0.000 F 
ATOM     19  F   UNL     1      -2.658   5.303 127.388  0.00  0.00    +0.000 F 
ATOM     20  F   UNL     1      -2.853   3.791 128.937  0.00  0.00    +0.000 F 
ENDBRANCH  14  17
ENDBRANCH   3  11
TORSDOF 3
ENDMDL
MODEL 5
REMARK VINA RESULT:      -6.7     10.144     11.147
REMARK  Name = Leflunomide
REMARK  4 active torsions:
REMARK  status: ('A' for Active; 'I' for Inactive)
REMARK    1  A    between atoms: C_1  and  C_2
REMARK    2  A    between atoms: C_3  and  C_7
REMARK    3  A    between atoms: N_9  and  C_10
REMARK    4  A    between atoms: C_13  and  C_16
REMARK                            x       y       z     vdW  Elec       q    Type
REMARK                         _______ _______ _______ _____ _____    ______ ____
ROOT
ATOM      1  C   UNL     1      -9.363   6.468 130.286  0.00  0.00    +0.000 C 
ATOM      2  O   UNL     1      -9.049   6.038 129.171  0.00  0.00    +0.000 OA
ATOM      3  N   UNL     1      -8.483   6.503 131.357  0.00  0.00    +0.000 N 
ATOM      4  H   UNL     1      -8.818   6.662 132.288  0.00  0.00    +0.000 HD
ENDROOT
BRANCH   1   7
ATOM      5  C   UNL     1     -11.500   8.555 128.568  0.00  0.00    +0.000 C 
ATOM      6  C   UNL     1     -11.567   7.747 129.797  0.00  0.00    +0.000 A 
ATOM      7  C   UNL     1     -10.728   6.910 130.506  0.00  0.00    +0.000 A 
ATOM      8  C   UNL     1     -11.537   6.506 131.603  0.00  0.00    +0.000 A 
ATOM      9  N   UNL     1     -12.756   7.042 131.571  0.00  0.00    +0.000 NA
ATOM     10  O   UNL     1     -12.773   7.822 130.434  0.00  0.00    +0.000 OA
ENDBRANCH   1   7
BRANCH   3  11
ATOM     11  C   UNL     1      -7.114   6.193 131.257  0.00  0.00    +0.000 A 
ATOM     12  C   UNL     1      -6.666   4.902 131.560  0.00  0.00    +0.000 A 
ATOM     13  C   UNL     1      -5.299   4.610 131.504  0.00  0.00    +0.000 A 
ATOM     14  C   UNL     1      -4.378   5.595 131.108  0.00  0.00    +0.000 A 
ATOM     15  C   UNL     1      -4.837   6.892 130.856  0.00  0.00    +0.000 A 
ATOM     16  C   UNL     1      -6.195   7.184 130.925  0.00  0.00    +0.000 A 
BRANCH  14  17
ATOM     17  C   UNL     1      -2.928   5.248 130.889  0.00  0.00    +0.000 C 
ATOM     18  F   UNL     1      -2.118   6.340 130.877  0.00  0.00    +0.000 F 
ATOM     19  F   UNL     1      -2.446   4.431 131.867  0.00  0.00    +0.000 F 
ATOM     20  F   UNL     1      -2.698   4.595 129.715  0.00  0.00    +0.000 F 
ENDBRANCH  14  17
ENDBRANCH   3  11
TORSDOF 3
ENDMDL
MODEL 6
REMARK VINA RESULT:      -6.7      7.151      9.435
REMARK  Name = Leflunomide
REMARK  4 active torsions:
REMARK  status: ('A' for Active; 'I' for Inactive)
REMARK    1  A    between atoms: C_1  and  C_2
REMARK    2  A    between atoms: C_3  and  C_7
REMARK    3  A    between atoms: N_9  and  C_10
REMARK    4  A    between atoms: C_13  and  C_16
REMARK                            x       y       z     vdW  Elec       q    Type
REMARK                         _______ _______ _______ _____ _____    ______ ____
ROOT
ATOM      1  C   UNL     1      -7.153  -2.887 131.318  0.00  0.00    +0.000 C 
ATOM      2  O   UNL     1      -6.437  -3.838 130.989  0.00  0.00    +0.000 OA
ATOM      3  N   UNL     1      -7.888  -2.145 130.406  0.00  0.00    +0.000 N 
ATOM      4  H   UNL     1      -8.291  -1.266 130.669  0.00  0.00    +0.000 HD
ENDROOT
BRANCH   1   7
ATOM      5  C   UNL     1      -5.779  -0.269 133.090  0.00  0.00    +0.000 C 
ATOM      6  C   UNL     1      -6.633  -1.428 133.400  0.00  0.00    +0.000 A 
ATOM      7  C   UNL     1      -7.190  -2.489 132.713  0.00  0.00    +0.000 A 
ATOM      8  C   UNL     1      -7.895  -3.189 133.730  0.00  0.00    +0.000 A 
ATOM      9  N   UNL     1      -7.782  -2.614 134.926  0.00  0.00    +0.000 NA
ATOM     10  O   UNL     1      -6.988  -1.507 134.717  0.00  0.00    +0.000 OA
ENDBRANCH   1   7
BRANCH   3  11
ATOM     11  C   UNL     1      -8.014  -2.479 129.044  0.00  0.00    +0.000 A 
ATOM     12  C   UNL     1      -7.421  -1.670 128.069  0.00  0.00    +0.000 A 
ATOM     13  C   UNL     1      -7.586  -1.979 126.714  0.00  0.00    +0.000 A 
ATOM     14  C   UNL     1      -8.313  -3.118 126.330  0.00  0.00    +0.000 A 
ATOM     15  C   UNL     1      -8.941  -3.888 127.315  0.00  0.00    +0.000 A 
ATOM     16  C   UNL     1      -8.786  -3.572 128.660  0.00  0.00    +0.000 A 
BRANCH  14  17
ATOM     17  C   UNL     1      -8.361  -3.548 124.886  0.00  0.00    +0.000 C 
ATOM     18  F   UNL     1      -7.519  -2.834 124.092  0.00  0.00    +0.000 F 
ATOM     19  F   UNL     1      -8.006  -4.855 124.733  0.00  0.00    +0.000 F 
ATOM     20  F   UNL     1      -9.597  -3.432 124.326  0.00  0.00    +0.000 F 
ENDBRANCH  14  17
ENDBRANCH   3  11
TORSDOF 3
ENDMDL
MODEL 7
REMARK VINA RESULT:      -6.5     10.515     11.481
REMARK  Name = Leflunomide
REMARK  4 active torsions:
REMARK  status: ('A' for Active; 'I' for Inactive)
REMARK    1  A    between atoms: C_1  and  C_2
REMARK    2  A    between atoms: C_3  and  C_7
REMARK    3  A    between atoms: N_9  and  C_10
REMARK    4  A    between atoms: C_13  and  C_16
REMARK                            x       y       z     vdW  Elec       q    Type
REMARK                         _______ _______ _______ _____ _____    ______ ____
ROOT
ATOM      1  C   UNL     1     -10.666   7.640 129.515  0.00  0.00    +0.000 C 
ATOM      2  O   UNL     1      -9.671   8.276 129.153  0.00  0.00    +0.000 OA
ATOM      3  N   UNL     1     -10.626   6.680 130.514  0.00  0.00    +0.000 N 
ATOM      4  H   UNL     1     -11.390   6.045 130.643  0.00  0.00    +0.000 HD
ENDROOT
BRANCH   1   7
ATOM      5  C   UNL     1     -13.089  10.082 129.724  0.00  0.00    +0.000 C 
ATOM      6  C   UNL     1     -12.881   8.859 128.931  0.00  0.00    +0.000 A 
ATOM      7  C   UNL     1     -11.926   7.866 128.832  0.00  0.00    +0.000 A 
ATOM      8  C   UNL     1     -12.454   7.020 127.819  0.00  0.00    +0.000 A 
ATOM      9  N   UNL     1     -13.621   7.451 127.341  0.00  0.00    +0.000 NA
ATOM     10  O   UNL     1     -13.887   8.608 128.041  0.00  0.00    +0.000 OA
ENDBRANCH   1   7
BRANCH   3  11
ATOM     11  C   UNL     1      -9.496   6.430 131.315  0.00  0.00    +0.000 A 
ATOM     12  C   UNL     1      -9.656   5.951 132.620  0.00  0.00    +0.000 A 
ATOM     13  C   UNL     1      -8.533   5.746 133.429  0.00  0.00    +0.000 A 
ATOM     14  C   UNL     1      -7.243   5.983 132.925  0.00  0.00    +0.000 A 
ATOM     15  C   UNL     1      -7.103   6.508 131.636  0.00  0.00    +0.000 A 
ATOM     16  C   UNL     1      -8.221   6.722 130.838  0.00  0.00    +0.000 A 
BRANCH  14  17
ATOM     17  C   UNL     1      -6.024   5.614 133.730  0.00  0.00    +0.000 C 
ATOM     18  F   UNL     1      -5.956   6.268 134.920  0.00  0.00    +0.000 F 
ATOM     19  F   UNL     1      -5.995   4.284 134.028  0.00  0.00    +0.000 F 
ATOM     20  F   UNL     1      -4.850   5.875 133.088  0.00  0.00    +0.000 F 
ENDBRANCH  14  17
ENDBRANCH   3  11
TORSDOF 3
ENDMDL
MODEL 8
REMARK VINA RESULT:      -6.5      9.787     10.757
REMARK  Name = Leflunomide
REMARK  4 active torsions:
REMARK  status: ('A' for Active; 'I' for Inactive)
REMARK    1  A    between atoms: C_1  and  C_2
REMARK    2  A    between atoms: C_3  and  C_7
REMARK    3  A    between atoms: N_9  and  C_10
REMARK    4  A    between atoms: C_13  and  C_16
REMARK                            x       y       z     vdW  Elec       q    Type
REMARK                         _______ _______ _______ _____ _____    ______ ____
ROOT
ATOM      1  C   UNL     1     -10.684   7.032 129.371  0.00  0.00    +0.000 C 
ATOM      2  O   UNL     1     -11.113   7.777 130.258  0.00  0.00    +0.000 OA
ATOM      3  N   UNL     1      -9.658   6.124 129.579  0.00  0.00    +0.000 N 
ATOM      4  H   UNL     1      -9.199   5.686 128.803  0.00  0.00    +0.000 HD
ENDROOT
BRANCH   1   7
ATOM      5  C   UNL     1     -13.887   6.942 128.103  0.00  0.00    +0.000 C 
ATOM      6  C   UNL     1     -12.533   7.110 127.552  0.00  0.00    +0.000 A 
ATOM      7  C   UNL     1     -11.239   7.145 128.035  0.00  0.00    +0.000 A 
ATOM      8  C   UNL     1     -10.467   7.347 126.858  0.00  0.00    +0.000 A 
ATOM      9  N   UNL     1     -11.214   7.429 125.758  0.00  0.00    +0.000 NA
ATOM     10  O   UNL     1     -12.513   7.280 126.196  0.00  0.00    +0.000 OA
ENDBRANCH   1   7
BRANCH   3  11
ATOM     11  C   UNL     1      -9.098   5.849 130.840  0.00  0.00    +0.000 A 
ATOM     12  C   UNL     1      -7.898   6.460 131.220  0.00  0.00    +0.000 A 
ATOM     13  C   UNL     1      -7.320   6.149 132.457  0.00  0.00    +0.000 A 
ATOM     14  C   UNL     1      -7.958   5.256 133.334  0.00  0.00    +0.000 A 
ATOM     15  C   UNL     1      -9.132   4.618 132.918  0.00  0.00    +0.000 A 
ATOM     16  C   UNL     1      -9.697   4.918 131.685  0.00  0.00    +0.000 A 
BRANCH  14  17
ATOM     17  C   UNL     1      -7.430   5.040 134.728  0.00  0.00    +0.000 C 
ATOM     18  F   UNL     1      -8.388   5.175 135.685  0.00  0.00    +0.000 F 
ATOM     19  F   UNL     1      -6.911   3.790 134.888  0.00  0.00    +0.000 F 
ATOM     20  F   UNL     1      -6.432   5.902 135.071  0.00  0.00    +0.000 F 
ENDBRANCH  14  17
ENDBRANCH   3  11
TORSDOF 3
ENDMDL
MODEL 9
REMARK VINA RESULT:      -6.4      5.035      6.588
REMARK  Name = Leflunomide
REMARK  4 active torsions:
REMARK  status: ('A' for Active; 'I' for Inactive)
REMARK    1  A    between atoms: C_1  and  C_2
REMARK    2  A    between atoms: C_3  and  C_7
REMARK    3  A    between atoms: N_9  and  C_10
REMARK    4  A    between atoms: C_13  and  C_16
REMARK                            x       y       z     vdW  Elec       q    Type
REMARK                         _______ _______ _______ _____ _____    ______ ____
ROOT
ATOM      1  C   UNL     1      -8.383  -0.966 125.903  0.00  0.00    +0.000 C 
ATOM      2  O   UNL     1      -8.456  -0.092 126.773  0.00  0.00    +0.000 OA
ATOM      3  N   UNL     1      -7.739  -2.177 126.101  0.00  0.00    +0.000 N 
ATOM      4  H   UNL     1      -7.520  -2.772 125.325  0.00  0.00    +0.000 HD
ENDROOT
BRANCH   1   7
ATOM      5  C   UNL     1      -9.283  -2.958 123.238  0.00  0.00    +0.000 C 
ATOM      6  C   UNL     1      -9.308  -1.517 123.542  0.00  0.00    +0.000 A 
ATOM      7  C   UNL     1      -8.950  -0.697 124.594  0.00  0.00    +0.000 A 
ATOM      8  C   UNL     1      -9.288   0.598 124.115  0.00  0.00    +0.000 A 
ATOM      9  N   UNL     1      -9.804   0.576 122.887  0.00  0.00    +0.000 NA
ATOM     10  O   UNL     1      -9.816  -0.755 122.528  0.00  0.00    +0.000 OA
ENDBRANCH   1   7
BRANCH   3  11
ATOM     11  C   UNL     1      -7.230  -2.600 127.343  0.00  0.00    +0.000 A 
ATOM     12  C   UNL     1      -8.080  -3.198 128.280  0.00  0.00    +0.000 A 
ATOM     13  C   UNL     1      -7.580  -3.576 129.531  0.00  0.00    +0.000 A 
ATOM     14  C   UNL     1      -6.221  -3.392 129.837  0.00  0.00    +0.000 A 
ATOM     15  C   UNL     1      -5.396  -2.748 128.908  0.00  0.00    +0.000 A 
ATOM     16  C   UNL     1      -5.898  -2.362 127.671  0.00  0.00    +0.000 A 
BRANCH  14  17
ATOM     17  C   UNL     1      -5.640  -3.941 131.115  0.00  0.00    +0.000 C 
ATOM     18  F   UNL     1      -4.346  -3.568 131.311  0.00  0.00    +0.000 F 
ATOM     19  F   UNL     1      -6.327  -3.513 132.211  0.00  0.00    +0.000 F 
ATOM     20  F   UNL     1      -5.653  -5.302 131.177  0.00  0.00    +0.000 F 
ENDBRANCH  14  17
ENDBRANCH   3  11
TORSDOF 3
ENDMDL
