MODEL 1
REMARK VINA RESULT:      -9.2      0.000      0.000
REMARK  Name = Lemborexant
REMARK  7 active torsions:
REMARK  status: ('A' for Active; 'I' for Inactive)
REMARK    1  A    between atoms: C_1  and  C_2
REMARK    2  A    between atoms: C_5  and  O_6
REMARK    3  A    between atoms: O_6  and  C_7
REMARK    4  A    between atoms: C_7  and  C_8
REMARK    5  A    between atoms: C_8  and  C_21
REMARK    6  A    between atoms: C_10  and  C_11
REMARK    7  A    between atoms: C_28  and  C_29
REMARK                            x       y       z     vdW  Elec       q    Type
REMARK                         _______ _______ _______ _____ _____    ______ ____
ROOT
ATOM      1  C   UNL     1      -6.463   3.435 126.333  0.00  0.00    +0.000 C 
ATOM      2  C   UNL     1      -7.534   3.683 127.381  0.00  0.00    +0.000 C 
ATOM      3  C   UNL     1      -7.137   2.267 127.093  0.00  0.00    +0.000 C 
ENDROOT
BRANCH   3   4
ATOM      4  C   UNL     1      -7.916   1.176 126.407  0.00  0.00    +0.000 C 
ATOM      5  O   UNL     1      -9.059   1.466 126.042  0.00  0.00    +0.000 OA
ATOM      6  N   UNL     1      -7.305  -0.047 126.151  0.00  0.00    +0.000 N 
ATOM      7  C   UNL     1      -7.929  -1.007 125.310  0.00  0.00    +0.000 A 
ATOM      8  N   UNL     1      -8.365  -0.632 124.085  0.00  0.00    +0.000 NA
ATOM      9  C   UNL     1      -9.030  -1.552 123.333  0.00  0.00    +0.000 A 
ATOM     10  C   UNL     1      -9.385  -2.801 123.799  0.00  0.00    +0.000 A 
ATOM     11  F   UNL     1     -10.086  -3.654 123.040  0.00  0.00    +0.000 F 
ATOM     12  C   UNL     1      -8.957  -3.170 125.060  0.00  0.00    +0.000 A 
ATOM     13  C   UNL     1      -8.099  -2.314 125.767  0.00  0.00    +0.000 A 
ATOM     14  H   UNL     1      -6.553  -0.356 126.746  0.00  0.00    +0.000 HD
ENDBRANCH   3   4
BRANCH   1  15
ATOM     15  C   UNL     1      -4.955   3.713 126.495  0.00  0.00    +0.000 A 
ATOM     16  C   UNL     1      -3.944   2.737 126.406  0.00  0.00    +0.000 A 
ATOM     17  C   UNL     1      -2.605   3.041 126.709  0.00  0.00    +0.000 A 
ATOM     18  C   UNL     1      -2.290   4.227 127.367  0.00  0.00    +0.000 A 
ATOM     19  C   UNL     1      -3.302   5.131 127.631  0.00  0.00    +0.000 A 
ATOM     20  F   UNL     1      -3.058   6.199 128.402  0.00  0.00    +0.000 F 
ATOM     21  C   UNL     1      -4.584   4.921 127.133  0.00  0.00    +0.000 A 
ENDBRANCH   1  15
BRANCH   1  22
ATOM     22  C   UNL     1      -6.850   3.899 124.966  0.00  0.00    +0.000 C 
BRANCH  22  23
ATOM     23  O   UNL     1      -6.411   3.030 123.957  0.00  0.00    +0.000 OA
BRANCH  23  28
ATOM     24  C   UNL     1      -9.134   4.169 119.254  0.00  0.00    +0.000 C 
ATOM     25  C   UNL     1      -8.342   3.839 120.479  0.00  0.00    +0.000 A 
ATOM     26  N   UNL     1      -9.000   3.304 121.515  0.00  0.00    +0.000 NA
ATOM     27  C   UNL     1      -8.256   3.050 122.606  0.00  0.00    +0.000 A 
ATOM     28  C   UNL     1      -6.901   3.314 122.718  0.00  0.00    +0.000 A 
ATOM     29  C   UNL     1      -6.289   3.838 121.580  0.00  0.00    +0.000 A 
ATOM     30  C   UNL     1      -4.836   4.191 121.386  0.00  0.00    +0.000 C 
ATOM     31  N   UNL     1      -7.019   4.107 120.465  0.00  0.00    +0.000 NA
ENDBRANCH  23  28
ENDBRANCH  22  23
ENDBRANCH   1  22
TORSDOF 5
ENDMDL
MODEL 2
REMARK VINA RESULT:      -9.2      3.892      6.521
REMARK  Name = Lemborexant
REMARK  7 active torsions:
REMARK  status: ('A' for Active; 'I' for Inactive)
REMARK    1  A    between atoms: C_1  and  C_2
REMARK    2  A    between atoms: C_5  and  O_6
REMARK    3  A    between atoms: O_6  and  C_7
REMARK    4  A    between atoms: C_7  and  C_8
REMARK    5  A    between atoms: C_8  and  C_21
REMARK    6  A    between atoms: C_10  and  C_11
REMARK    7  A    between atoms: C_28  and  C_29
REMARK                            x       y       z     vdW  Elec       q    Type
REMARK                         _______ _______ _______ _____ _____    ______ ____
ROOT
ATOM      1  C   UNL     1      -8.330   2.118 123.347  0.00  0.00    +0.000 C 
ATOM      2  C   UNL     1      -9.763   1.857 123.779  0.00  0.00    +0.000 C 
ATOM      3  C   UNL     1      -8.905   2.724 124.649  0.00  0.00    +0.000 C 
ENDROOT
BRANCH   3   4
ATOM      4  C   UNL     1      -8.334   2.441 126.014  0.00  0.00    +0.000 C 
ATOM      5  O   UNL     1      -7.692   3.356 126.538  0.00  0.00    +0.000 OA
ATOM      6  N   UNL     1      -8.613   1.230 126.639  0.00  0.00    +0.000 N 
ATOM      7  C   UNL     1      -8.284   1.027 128.006  0.00  0.00    +0.000 A 
ATOM      8  N   UNL     1      -8.686   1.935 128.926  0.00  0.00    +0.000 NA
ATOM      9  C   UNL     1      -8.290   1.755 130.216  0.00  0.00    +0.000 A 
ATOM     10  C   UNL     1      -7.407   0.772 130.610  0.00  0.00    +0.000 A 
ATOM     11  F   UNL     1      -7.003   0.668 131.884  0.00  0.00    +0.000 F 
ATOM     12  C   UNL     1      -6.981  -0.138 129.661  0.00  0.00    +0.000 A 
ATOM     13  C   UNL     1      -7.538  -0.092 128.374  0.00  0.00    +0.000 A 
ATOM     14  H   UNL     1      -8.815   0.420 126.075  0.00  0.00    +0.000 HD
ENDBRANCH   3   4
BRANCH   1  15
ATOM     15  C   UNL     1      -7.886   3.028 122.184  0.00  0.00    +0.000 A 
ATOM     16  C   UNL     1      -8.703   3.402 121.100  0.00  0.00    +0.000 A 
ATOM     17  C   UNL     1      -8.184   4.116 120.005  0.00  0.00    +0.000 A 
ATOM     18  C   UNL     1      -6.807   4.226 119.833  0.00  0.00    +0.000 A 
ATOM     19  C   UNL     1      -5.971   3.703 120.802  0.00  0.00    +0.000 A 
ATOM     20  F   UNL     1      -4.650   3.649 120.585  0.00  0.00    +0.000 F 
ATOM     21  C   UNL     1      -6.494   3.194 121.987  0.00  0.00    +0.000 A 
ENDBRANCH   1  15
BRANCH   1  22
ATOM     22  C   UNL     1      -7.496   0.880 123.278  0.00  0.00    +0.000 C 
BRANCH  22  23
ATOM     23  O   UNL     1      -8.216  -0.275 123.620  0.00  0.00    +0.000 OA
BRANCH  23  28
ATOM     24  C   UNL     1      -4.559  -4.450 123.773  0.00  0.00    +0.000 C 
ATOM     25  C   UNL     1      -5.598  -3.374 123.753  0.00  0.00    +0.000 A 
ATOM     26  N   UNL     1      -5.515  -2.453 122.785  0.00  0.00    +0.000 NA
ATOM     27  C   UNL     1      -6.451  -1.488 122.820  0.00  0.00    +0.000 A 
ATOM     28  C   UNL     1      -7.450  -1.390 123.775  0.00  0.00    +0.000 A 
ATOM     29  C   UNL     1      -7.483  -2.410 124.725  0.00  0.00    +0.000 A 
ATOM     30  C   UNL     1      -8.463  -2.595 125.856  0.00  0.00    +0.000 C 
ATOM     31  N   UNL     1      -6.546  -3.396 124.713  0.00  0.00    +0.000 NA
ENDBRANCH  23  28
ENDBRANCH  22  23
ENDBRANCH   1  22
TORSDOF 5
ENDMDL
MODEL 3
REMARK VINA RESULT:      -9.2      2.734      7.134
REMARK  Name = Lemborexant
REMARK  7 active torsions:
REMARK  status: ('A' for Active; 'I' for Inactive)
REMARK    1  A    between atoms: C_1  and  C_2
REMARK    2  A    between atoms: C_5  and  O_6
REMARK    3  A    between atoms: O_6  and  C_7
REMARK    4  A    between atoms: C_7  and  C_8
REMARK    5  A    between atoms: C_8  and  C_21
REMARK    6  A    between atoms: C_10  and  C_11
REMARK    7  A    between atoms: C_28  and  C_29
REMARK                            x       y       z     vdW  Elec       q    Type
REMARK                         _______ _______ _______ _____ _____    ______ ____
ROOT
ATOM      1  C   UNL     1      -7.313   3.096 124.114  0.00  0.00    +0.000 C 
ATOM      2  C   UNL     1      -8.629   3.382 124.817  0.00  0.00    +0.000 C 
ATOM      3  C   UNL     1      -7.473   4.302 125.071  0.00  0.00    +0.000 C 
ENDROOT
BRANCH   3   4
ATOM      4  C   UNL     1      -6.649   4.480 126.319  0.00  0.00    +0.000 C 
ATOM      5  O   UNL     1      -7.247   4.362 127.391  0.00  0.00    +0.000 OA
ATOM      6  N   UNL     1      -5.277   4.685 126.212  0.00  0.00    +0.000 N 
ATOM      7  C   UNL     1      -4.445   4.629 127.362  0.00  0.00    +0.000 A 
ATOM      8  N   UNL     1      -4.521   3.556 128.184  0.00  0.00    +0.000 NA
ATOM      9  C   UNL     1      -3.770   3.565 129.319  0.00  0.00    +0.000 A 
ATOM     10  C   UNL     1      -3.032   4.654 129.733  0.00  0.00    +0.000 A 
ATOM     11  F   UNL     1      -2.350   4.636 130.886  0.00  0.00    +0.000 F 
ATOM     12  C   UNL     1      -2.976   5.757 128.901  0.00  0.00    +0.000 A 
ATOM     13  C   UNL     1      -3.578   5.686 127.635  0.00  0.00    +0.000 A 
ATOM     14  H   UNL     1      -4.906   5.114 125.380  0.00  0.00    +0.000 HD
ENDBRANCH   3   4
BRANCH   1  15
ATOM     15  C   UNL     1      -7.021   3.314 122.615  0.00  0.00    +0.000 A 
ATOM     16  C   UNL     1      -5.814   3.822 122.099  0.00  0.00    +0.000 A 
ATOM     17  C   UNL     1      -5.674   4.128 120.733  0.00  0.00    +0.000 A 
ATOM     18  C   UNL     1      -6.799   4.204 119.916  0.00  0.00    +0.000 A 
ATOM     19  C   UNL     1      -8.033   3.883 120.451  0.00  0.00    +0.000 A 
ATOM     20  F   UNL     1      -9.146   4.102 119.738  0.00  0.00    +0.000 F 
ATOM     21  C   UNL     1      -8.132   3.369 121.740  0.00  0.00    +0.000 A 
ENDBRANCH   1  15
BRANCH   1  22
ATOM     22  C   UNL     1      -6.711   1.782 124.491  0.00  0.00    +0.000 C 
BRANCH  22  23
ATOM     23  O   UNL     1      -6.588   0.912 123.398  0.00  0.00    +0.000 OA
BRANCH  23  28
ATOM     24  C   UNL     1      -9.811  -3.608 123.541  0.00  0.00    +0.000 C 
ATOM     25  C   UNL     1      -8.909  -2.415 123.566  0.00  0.00    +0.000 A 
ATOM     26  N   UNL     1      -9.431  -1.237 123.201  0.00  0.00    +0.000 NA
ATOM     27  C   UNL     1      -8.580  -0.197 123.210  0.00  0.00    +0.000 A 
ATOM     28  C   UNL     1      -7.238  -0.276 123.548  0.00  0.00    +0.000 A 
ATOM     29  C   UNL     1      -6.787  -1.533 123.947  0.00  0.00    +0.000 A 
ATOM     30  C   UNL     1      -5.403  -1.921 124.404  0.00  0.00    +0.000 C 
ATOM     31  N   UNL     1      -7.627  -2.602 123.945  0.00  0.00    +0.000 NA
ENDBRANCH  23  28
ENDBRANCH  22  23
ENDBRANCH   1  22
TORSDOF 5
ENDMDL
MODEL 4
REMARK VINA RESULT:      -9.0      3.055      6.887
REMARK  Name = Lemborexant
REMARK  7 active torsions:
REMARK  status: ('A' for Active; 'I' for Inactive)
REMARK    1  A    between atoms: C_1  and  C_2
REMARK    2  A    between atoms: C_5  and  O_6
REMARK    3  A    between atoms: O_6  and  C_7
REMARK    4  A    between atoms: C_7  and  C_8
REMARK    5  A    between atoms: C_8  and  C_21
REMARK    6  A    between atoms: C_10  and  C_11
REMARK    7  A    between atoms: C_28  and  C_29
REMARK                            x       y       z     vdW  Elec       q    Type
REMARK                         _______ _______ _______ _____ _____    ______ ____
ROOT
ATOM      1  C   UNL     1      -8.119   2.374 123.530  0.00  0.00    +0.000 C 
ATOM      2  C   UNL     1      -9.470   2.065 124.153  0.00  0.00    +0.000 C 
ATOM      3  C   UNL     1      -8.586   3.063 124.835  0.00  0.00    +0.000 C 
ENDROOT
BRANCH   3   4
ATOM      4  C   UNL     1      -7.843   2.948 126.140  0.00  0.00    +0.000 C 
ATOM      5  O   UNL     1      -8.409   2.320 127.039  0.00  0.00    +0.000 OA
ATOM      6  N   UNL     1      -6.557   3.469 126.247  0.00  0.00    +0.000 N 
ATOM      7  C   UNL     1      -5.750   3.178 127.380  0.00  0.00    +0.000 A 
ATOM      8  N   UNL     1      -5.579   1.890 127.760  0.00  0.00    +0.000 NA
ATOM      9  C   UNL     1      -4.866   1.647 128.893  0.00  0.00    +0.000 A 
ATOM     10  C   UNL     1      -4.412   2.642 129.734  0.00  0.00    +0.000 A 
ATOM     11  F   UNL     1      -3.760   2.352 130.868  0.00  0.00    +0.000 F 
ATOM     12  C   UNL     1      -4.610   3.956 129.352  0.00  0.00    +0.000 A 
ATOM     13  C   UNL     1      -5.161   4.224 128.091  0.00  0.00    +0.000 A 
ATOM     14  H   UNL     1      -6.289   4.241 125.660  0.00  0.00    +0.000 HD
ENDBRANCH   3   4
BRANCH   1  15
ATOM     15  C   UNL     1      -7.880   3.197 122.248  0.00  0.00    +0.000 A 
ATOM     16  C   UNL     1      -8.826   3.376 121.221  0.00  0.00    +0.000 A 
ATOM     17  C   UNL     1      -8.486   4.019 120.017  0.00  0.00    +0.000 A 
ATOM     18  C   UNL     1      -7.149   4.242 119.699  0.00  0.00    +0.000 A 
ATOM     19  C   UNL     1      -6.179   3.905 120.624  0.00  0.00    +0.000 A 
ATOM     20  F   UNL     1      -4.885   3.957 120.282  0.00  0.00    +0.000 F 
ATOM     21  C   UNL     1      -6.537   3.475 121.898  0.00  0.00    +0.000 A 
ENDBRANCH   1  15
BRANCH   1  22
ATOM     22  C   UNL     1      -7.209   1.191 123.469  0.00  0.00    +0.000 C 
BRANCH  22  23
ATOM     23  O   UNL     1      -7.907  -0.026 123.467  0.00  0.00    +0.000 OA
BRANCH  23  28
ATOM     24  C   UNL     1      -4.411  -4.319 123.897  0.00  0.00    +0.000 C 
ATOM     25  C   UNL     1      -5.398  -3.196 123.832  0.00  0.00    +0.000 A 
ATOM     26  N   UNL     1      -5.613  -2.632 122.637  0.00  0.00    +0.000 NA
ATOM     27  C   UNL     1      -6.485  -1.609 122.628  0.00  0.00    +0.000 A 
ATOM     28  C   UNL     1      -7.138  -1.115 123.746  0.00  0.00    +0.000 A 
ATOM     29  C   UNL     1      -6.881  -1.784 124.942  0.00  0.00    +0.000 A 
ATOM     30  C   UNL     1      -7.463  -1.506 126.305  0.00  0.00    +0.000 C 
ATOM     31  N   UNL     1      -6.001  -2.820 124.979  0.00  0.00    +0.000 NA
ENDBRANCH  23  28
ENDBRANCH  22  23
ENDBRANCH   1  22
TORSDOF 5
ENDMDL
MODEL 5
REMARK VINA RESULT:      -8.9      6.053      9.805
REMARK  Name = Lemborexant
REMARK  7 active torsions:
REMARK  status: ('A' for Active; 'I' for Inactive)
REMARK    1  A    between atoms: C_1  and  C_2
REMARK    2  A    between atoms: C_5  and  O_6
REMARK    3  A    between atoms: O_6  and  C_7
REMARK    4  A    between atoms: C_7  and  C_8
REMARK    5  A    between atoms: C_8  and  C_21
REMARK    6  A    between atoms: C_10  and  C_11
REMARK    7  A    between atoms: C_28  and  C_29
REMARK                            x       y       z     vdW  Elec       q    Type
REMARK                         _______ _______ _______ _____ _____    ______ ____
ROOT
ATOM      1  C   UNL     1      -9.195   6.230 130.595  0.00  0.00    +0.000 C 
ATOM      2  C   UNL     1      -9.036   5.798 132.043  0.00  0.00    +0.000 C 
ATOM      3  C   UNL     1      -8.130   6.869 131.518  0.00  0.00    +0.000 C 
ENDROOT
BRANCH   3   4
ATOM      4  C   UNL     1      -6.652   6.818 131.232  0.00  0.00    +0.000 C 
ATOM      5  O   UNL     1      -6.241   7.566 130.341  0.00  0.00    +0.000 OA
ATOM      6  N   UNL     1      -5.829   6.014 132.014  0.00  0.00    +0.000 N 
ATOM      7  C   UNL     1      -4.415   6.117 131.920  0.00  0.00    +0.000 A 
ATOM      8  N   UNL     1      -3.830   7.333 132.028  0.00  0.00    +0.000 NA
ATOM      9  C   UNL     1      -2.482   7.412 131.856  0.00  0.00    +0.000 A 
ATOM     10  C   UNL     1      -1.703   6.344 131.462  0.00  0.00    +0.000 A 
ATOM     11  F   UNL     1      -0.386   6.483 131.253  0.00  0.00    +0.000 F 
ATOM     12  C   UNL     1      -2.310   5.109 131.330  0.00  0.00    +0.000 A 
ATOM     13  C   UNL     1      -3.655   4.968 131.701  0.00  0.00    +0.000 A 
ATOM     14  H   UNL     1      -6.216   5.196 132.457  0.00  0.00    +0.000 HD
ENDBRANCH   3   4
BRANCH   1  15
ATOM     15  C   UNL     1     -10.352   7.076 130.025  0.00  0.00    +0.000 A 
ATOM     16  C   UNL     1     -11.672   7.064 130.514  0.00  0.00    +0.000 A 
ATOM     17  C   UNL     1     -12.704   7.753 129.851  0.00  0.00    +0.000 A 
ATOM     18  C   UNL     1     -12.508   8.226 128.557  0.00  0.00    +0.000 A 
ATOM     19  C   UNL     1     -11.260   8.087 127.979  0.00  0.00    +0.000 A 
ATOM     20  F   UNL     1     -11.088   8.383 126.684  0.00  0.00    +0.000 F 
ATOM     21  C   UNL     1     -10.187   7.604 128.722  0.00  0.00    +0.000 A 
ENDBRANCH   1  15
BRANCH   1  22
ATOM     22  C   UNL     1      -8.928   5.135 129.615  0.00  0.00    +0.000 C 
BRANCH  22  23
ATOM     23  O   UNL     1      -9.840   4.076 129.729  0.00  0.00    +0.000 OA
BRANCH  23  28
ATOM     24  C   UNL     1      -7.091  -0.747 129.589  0.00  0.00    +0.000 C 
ATOM     25  C   UNL     1      -7.884   0.520 129.671  0.00  0.00    +0.000 A 
ATOM     26  N   UNL     1      -7.972   1.266 128.564  0.00  0.00    +0.000 NA
ATOM     27  C   UNL     1      -8.668   2.410 128.689  0.00  0.00    +0.000 A 
ATOM     28  C   UNL     1      -9.264   2.848 129.861  0.00  0.00    +0.000 A 
ATOM     29  C   UNL     1      -9.152   1.993 130.955  0.00  0.00    +0.000 A 
ATOM     30  C   UNL     1      -9.720   2.176 132.340  0.00  0.00    +0.000 C 
ATOM     31  N   UNL     1      -8.450   0.831 130.856  0.00  0.00    +0.000 NA
ENDBRANCH  23  28
ENDBRANCH  22  23
ENDBRANCH   1  22
TORSDOF 5
ENDMDL
MODEL 6
REMARK VINA RESULT:      -8.5      6.264      8.925
REMARK  Name = Lemborexant
REMARK  7 active torsions:
REMARK  status: ('A' for Active; 'I' for Inactive)
REMARK    1  A    between atoms: C_1  and  C_2
REMARK    2  A    between atoms: C_5  and  O_6
REMARK    3  A    between atoms: O_6  and  C_7
REMARK    4  A    between atoms: C_7  and  C_8
REMARK    5  A    between atoms: C_8  and  C_21
REMARK    6  A    between atoms: C_10  and  C_11
REMARK    7  A    between atoms: C_28  and  C_29
REMARK                            x       y       z     vdW  Elec       q    Type
REMARK                         _______ _______ _______ _____ _____    ______ ____
ROOT
ATOM      1  C   UNL     1      -8.459   2.461 131.115  0.00  0.00    +0.000 C 
ATOM      2  C   UNL     1      -8.676   3.145 132.454  0.00  0.00    +0.000 C 
ATOM      3  C   UNL     1      -9.824   3.085 131.493  0.00  0.00    +0.000 C 
ENDROOT
BRANCH   3   4
ATOM      4  C   UNL     1     -10.472   4.193 130.706  0.00  0.00    +0.000 C 
ATOM      5  O   UNL     1     -11.448   3.879 130.019  0.00  0.00    +0.000 OA
ATOM      6  N   UNL     1     -10.007   5.496 130.844  0.00  0.00    +0.000 N 
ATOM      7  C   UNL     1     -10.735   6.588 130.298  0.00  0.00    +0.000 A 
ATOM      8  N   UNL     1     -12.053   6.713 130.580  0.00  0.00    +0.000 NA
ATOM      9  C   UNL     1     -12.742   7.722 129.980  0.00  0.00    +0.000 A 
ATOM     10  C   UNL     1     -12.199   8.544 129.015  0.00  0.00    +0.000 A 
ATOM     11  F   UNL     1     -12.933   9.490 128.413  0.00  0.00    +0.000 F 
ATOM     12  C   UNL     1     -10.858   8.397 128.714  0.00  0.00    +0.000 A 
ATOM     13  C   UNL     1     -10.085   7.500 129.467  0.00  0.00    +0.000 A 
ATOM     14  H   UNL     1      -9.046   5.652 131.105  0.00  0.00    +0.000 HD
ENDBRANCH   3   4
BRANCH   1  15
ATOM     15  C   UNL     1      -8.324   0.942 130.884  0.00  0.00    +0.000 A 
ATOM     16  C   UNL     1      -8.137  -0.010 131.904  0.00  0.00    +0.000 A 
ATOM     17  C   UNL     1      -7.878  -1.360 131.605  0.00  0.00    +0.000 A 
ATOM     18  C   UNL     1      -7.524  -1.733 130.311  0.00  0.00    +0.000 A 
ATOM     19  C   UNL     1      -7.524  -0.772 129.318  0.00  0.00    +0.000 A 
ATOM     20  F   UNL     1      -7.033  -1.065 128.106  0.00  0.00    +0.000 F 
ATOM     21  C   UNL     1      -7.994   0.512 129.577  0.00  0.00    +0.000 A 
ENDBRANCH   1  15
BRANCH   1  22
ATOM     22  C   UNL     1      -7.423   3.127 130.269  0.00  0.00    +0.000 C 
BRANCH  22  23
ATOM     23  O   UNL     1      -6.266   3.453 130.993  0.00  0.00    +0.000 OA
BRANCH  23  28
ATOM     24  C   UNL     1      -2.900   6.903 128.235  0.00  0.00    +0.000 C 
ATOM     25  C   UNL     1      -3.809   6.024 129.035  0.00  0.00    +0.000 A 
ATOM     26  N   UNL     1      -3.589   4.704 128.990  0.00  0.00    +0.000 NA
ATOM     27  C   UNL     1      -4.446   3.949 129.699  0.00  0.00    +0.000 A 
ATOM     28  C   UNL     1      -5.513   4.442 130.434  0.00  0.00    +0.000 A 
ATOM     29  C   UNL     1      -5.648   5.829 130.452  0.00  0.00    +0.000 A 
ATOM     30  C   UNL     1      -6.677   6.653 131.184  0.00  0.00    +0.000 C 
ATOM     31  N   UNL     1      -4.795   6.615 129.741  0.00  0.00    +0.000 NA
ENDBRANCH  23  28
ENDBRANCH  22  23
ENDBRANCH   1  22
TORSDOF 5
ENDMDL
MODEL 7
REMARK VINA RESULT:      -8.5      5.955      9.412
REMARK  Name = Lemborexant
REMARK  7 active torsions:
REMARK  status: ('A' for Active; 'I' for Inactive)
REMARK    1  A    between atoms: C_1  and  C_2
REMARK    2  A    between atoms: C_5  and  O_6
REMARK    3  A    between atoms: O_6  and  C_7
REMARK    4  A    between atoms: C_7  and  C_8
REMARK    5  A    between atoms: C_8  and  C_21
REMARK    6  A    between atoms: C_10  and  C_11
REMARK    7  A    between atoms: C_28  and  C_29
REMARK                            x       y       z     vdW  Elec       q    Type
REMARK                         _______ _______ _______ _____ _____    ______ ____
ROOT
ATOM      1  C   UNL     1      -9.199   5.815 131.299  0.00  0.00    +0.000 C 
ATOM      2  C   UNL     1      -8.070   6.059 132.286  0.00  0.00    +0.000 C 
ATOM      3  C   UNL     1      -7.791   6.249 130.826  0.00  0.00    +0.000 C 
ENDROOT
BRANCH   3   4
ATOM      4  C   UNL     1      -6.940   5.421 129.899  0.00  0.00    +0.000 C 
ATOM      5  O   UNL     1      -7.491   5.005 128.876  0.00  0.00    +0.000 OA
ATOM      6  N   UNL     1      -5.592   5.234 130.187  0.00  0.00    +0.000 N 
ATOM      7  C   UNL     1      -4.719   4.657 129.226  0.00  0.00    +0.000 A 
ATOM      8  N   UNL     1      -4.686   5.165 127.971  0.00  0.00    +0.000 NA
ATOM      9  C   UNL     1      -3.899   4.544 127.050  0.00  0.00    +0.000 A 
ATOM     10  C   UNL     1      -3.232   3.362 127.295  0.00  0.00    +0.000 A 
ATOM     11  F   UNL     1      -2.512   2.759 126.339  0.00  0.00    +0.000 F 
ATOM     12  C   UNL     1      -3.288   2.836 128.572  0.00  0.00    +0.000 A 
ATOM     13  C   UNL     1      -3.925   3.569 129.584  0.00  0.00    +0.000 A 
ATOM     14  H   UNL     1      -5.283   5.271 131.145  0.00  0.00    +0.000 HD
ENDBRANCH   3   4
BRANCH   1  15
ATOM     15  C   UNL     1     -10.420   6.730 131.077  0.00  0.00    +0.000 A 
ATOM     16  C   UNL     1     -11.659   6.589 131.732  0.00  0.00    +0.000 A 
ATOM     17  C   UNL     1     -12.770   7.372 131.371  0.00  0.00    +0.000 A 
ATOM     18  C   UNL     1     -12.757   8.098 130.184  0.00  0.00    +0.000 A 
ATOM     19  C   UNL     1     -11.603   8.107 129.422  0.00  0.00    +0.000 A 
ATOM     20  F   UNL     1     -11.614   8.660 128.202  0.00  0.00    +0.000 F 
ATOM     21  C   UNL     1     -10.438   7.511 129.896  0.00  0.00    +0.000 A 
ENDBRANCH   1  15
BRANCH   1  22
ATOM     22  C   UNL     1      -9.700   4.408 131.306  0.00  0.00    +0.000 C 
BRANCH  22  23
ATOM     23  O   UNL     1      -9.655   3.826 132.582  0.00  0.00    +0.000 OA
BRANCH  23  28
ATOM     24  C   UNL     1      -7.802  -1.387 132.113  0.00  0.00    +0.000 C 
ATOM     25  C   UNL     1      -8.274   0.019 132.311  0.00  0.00    +0.000 A 
ATOM     26  N   UNL     1      -9.450   0.357 131.769  0.00  0.00    +0.000 NA
ATOM     27  C   UNL     1      -9.824   1.636 131.945  0.00  0.00    +0.000 A 
ATOM     28  C   UNL     1      -9.080   2.592 132.618  0.00  0.00    +0.000 A 
ATOM     29  C   UNL     1      -7.884   2.145 133.179  0.00  0.00    +0.000 A 
ATOM     30  C   UNL     1      -6.888   2.933 133.992  0.00  0.00    +0.000 C 
ATOM     31  N   UNL     1      -7.483   0.856 133.013  0.00  0.00    +0.000 NA
ENDBRANCH  23  28
ENDBRANCH  22  23
ENDBRANCH   1  22
TORSDOF 5
ENDMDL
MODEL 8
REMARK VINA RESULT:      -8.4      4.976      8.184
REMARK  Name = Lemborexant
REMARK  7 active torsions:
REMARK  status: ('A' for Active; 'I' for Inactive)
REMARK    1  A    between atoms: C_1  and  C_2
REMARK    2  A    between atoms: C_5  and  O_6
REMARK    3  A    between atoms: O_6  and  C_7
REMARK    4  A    between atoms: C_7  and  C_8
REMARK    5  A    between atoms: C_8  and  C_21
REMARK    6  A    between atoms: C_10  and  C_11
REMARK    7  A    between atoms: C_28  and  C_29
REMARK                            x       y       z     vdW  Elec       q    Type
REMARK                         _______ _______ _______ _____ _____    ______ ____
ROOT
ATOM      1  C   UNL     1      -7.358  -2.647 128.997  0.00  0.00    +0.000 C 
ATOM      2  C   UNL     1      -8.584  -3.443 128.587  0.00  0.00    +0.000 C 
ATOM      3  C   UNL     1      -7.626  -3.013 127.518  0.00  0.00    +0.000 C 
ENDROOT
BRANCH   3   4
ATOM      4  C   UNL     1      -7.804  -1.985 126.432  0.00  0.00    +0.000 C 
ATOM      5  O   UNL     1      -6.892  -1.900 125.604  0.00  0.00    +0.000 OA
ATOM      6  N   UNL     1      -8.985  -1.254 126.364  0.00  0.00    +0.000 N 
ATOM      7  C   UNL     1      -9.275  -0.449 125.229  0.00  0.00    +0.000 A 
ATOM      8  N   UNL     1      -9.191  -0.992 123.992  0.00  0.00    +0.000 NA
ATOM      9  C   UNL     1      -9.398  -0.178 122.921  0.00  0.00    +0.000 A 
ATOM     10  C   UNL     1      -9.568   1.187 123.026  0.00  0.00    +0.000 A 
ATOM     11  F   UNL     1      -9.714   1.956 121.938  0.00  0.00    +0.000 F 
ATOM     12  C   UNL     1      -9.629   1.739 124.291  0.00  0.00    +0.000 A 
ATOM     13  C   UNL     1      -9.623   0.889 125.407  0.00  0.00    +0.000 A 
ATOM     14  H   UNL     1      -9.514  -1.094 127.205  0.00  0.00    +0.000 HD
ENDBRANCH   3   4
BRANCH   1  15
ATOM     15  C   UNL     1      -6.122  -3.202 129.734  0.00  0.00    +0.000 A 
ATOM     16  C   UNL     1      -6.153  -4.243 130.681  0.00  0.00    +0.000 A 
ATOM     17  C   UNL     1      -5.007  -4.596 131.417  0.00  0.00    +0.000 A 
ATOM     18  C   UNL     1      -3.899  -3.754 131.431  0.00  0.00    +0.000 A 
ATOM     19  C   UNL     1      -3.915  -2.619 130.641  0.00  0.00    +0.000 A 
ATOM     20  F   UNL     1      -2.937  -1.711 130.759  0.00  0.00    +0.000 F 
ATOM     21  C   UNL     1      -4.960  -2.393 129.751  0.00  0.00    +0.000 A 
ENDBRANCH   1  15
BRANCH   1  22
ATOM     22  C   UNL     1      -7.687  -1.330 129.623  0.00  0.00    +0.000 C 
BRANCH  22  23
ATOM     23  O   UNL     1      -8.140  -1.460 130.944  0.00  0.00    +0.000 OA
BRANCH  23  28
ATOM     24  C   UNL     1      -8.535   3.318 133.744  0.00  0.00    +0.000 C 
ATOM     25  C   UNL     1      -8.353   2.038 132.991  0.00  0.00    +0.000 A 
ATOM     26  N   UNL     1      -9.235   1.761 132.023  0.00  0.00    +0.000 NA
ATOM     27  C   UNL     1      -9.052   0.589 131.390  0.00  0.00    +0.000 A 
ATOM     28  C   UNL     1      -8.049  -0.320 131.685  0.00  0.00    +0.000 A 
ATOM     29  C   UNL     1      -7.156   0.064 132.683  0.00  0.00    +0.000 A 
ATOM     30  C   UNL     1      -5.953  -0.688 133.194  0.00  0.00    +0.000 C 
ATOM     31  N   UNL     1      -7.320   1.244 133.340  0.00  0.00    +0.000 NA
ENDBRANCH  23  28
ENDBRANCH  22  23
ENDBRANCH   1  22
TORSDOF 5
ENDMDL
MODEL 9
REMARK VINA RESULT:      -8.3      7.015      9.184
REMARK  Name = Lemborexant
REMARK  7 active torsions:
REMARK  status: ('A' for Active; 'I' for Inactive)
REMARK    1  A    between atoms: C_1  and  C_2
REMARK    2  A    between atoms: C_5  and  O_6
REMARK    3  A    between atoms: O_6  and  C_7
REMARK    4  A    between atoms: C_7  and  C_8
REMARK    5  A    between atoms: C_8  and  C_21
REMARK    6  A    between atoms: C_10  and  C_11
REMARK    7  A    between atoms: C_28  and  C_29
REMARK                            x       y       z     vdW  Elec       q    Type
REMARK                         _______ _______ _______ _____ _____    ______ ____
ROOT
ATOM      1  C   UNL     1      -7.805   3.605 133.436  0.00  0.00    +0.000 C 
ATOM      2  C   UNL     1      -8.167   4.358 134.705  0.00  0.00    +0.000 C 
ATOM      3  C   UNL     1      -9.207   4.228 133.635  0.00  0.00    +0.000 C 
ENDROOT
BRANCH   3   4
ATOM      4  C   UNL     1      -9.780   5.281 132.723  0.00  0.00    +0.000 C 
ATOM      5  O   UNL     1      -9.615   6.454 133.071  0.00  0.00    +0.000 OA
ATOM      6  N   UNL     1     -10.380   4.902 131.527  0.00  0.00    +0.000 N 
ATOM      7  C   UNL     1     -10.721   5.874 130.548  0.00  0.00    +0.000 A 
ATOM      8  N   UNL     1      -9.784   6.762 130.140  0.00  0.00    +0.000 NA
ATOM      9  C   UNL     1     -10.160   7.730 129.260  0.00  0.00    +0.000 A 
ATOM     10  C   UNL     1     -11.464   7.925 128.857  0.00  0.00    +0.000 A 
ATOM     11  F   UNL     1     -11.795   8.926 128.030  0.00  0.00    +0.000 F 
ATOM     12  C   UNL     1     -12.421   7.029 129.295  0.00  0.00    +0.000 A 
ATOM     13  C   UNL     1     -12.017   5.908 130.036  0.00  0.00    +0.000 A 
ATOM     14  H   UNL     1     -10.798   3.989 131.453  0.00  0.00    +0.000 HD
ENDBRANCH   3   4
BRANCH   1  15
ATOM     15  C   UNL     1      -7.632   2.078 133.307  0.00  0.00    +0.000 A 
ATOM     16  C   UNL     1      -6.484   1.364 133.700  0.00  0.00    +0.000 A 
ATOM     17  C   UNL     1      -6.343  -0.007 133.419  0.00  0.00    +0.000 A 
ATOM     18  C   UNL     1      -7.196  -0.623 132.508  0.00  0.00    +0.000 A 
ATOM     19  C   UNL     1      -8.233   0.112 131.963  0.00  0.00    +0.000 A 
ATOM     20  F   UNL     1      -8.966  -0.404 130.968  0.00  0.00    +0.000 F 
ATOM     21  C   UNL     1      -8.497   1.402 132.415  0.00  0.00    +0.000 A 
ENDBRANCH   1  15
BRANCH   1  22
ATOM     22  C   UNL     1      -6.691   4.239 132.667  0.00  0.00    +0.000 C 
BRANCH  22  23
ATOM     23  O   UNL     1      -6.793   4.012 131.287  0.00  0.00    +0.000 OA
BRANCH  23  28
ATOM     24  C   UNL     1      -2.400   5.935 128.487  0.00  0.00    +0.000 C 
ATOM     25  C   UNL     1      -3.572   5.349 129.209  0.00  0.00    +0.000 A 
ATOM     26  N   UNL     1      -4.657   6.119 129.352  0.00  0.00    +0.000 NA
ATOM     27  C   UNL     1      -5.676   5.565 130.032  0.00  0.00    +0.000 A 
ATOM     28  C   UNL     1      -5.659   4.294 130.585  0.00  0.00    +0.000 A 
ATOM     29  C   UNL     1      -4.503   3.550 130.360  0.00  0.00    +0.000 A 
ATOM     30  C   UNL     1      -4.206   2.138 130.799  0.00  0.00    +0.000 C 
ATOM     31  N   UNL     1      -3.457   4.088 129.677  0.00  0.00    +0.000 NA
ENDBRANCH  23  28
ENDBRANCH  22  23
ENDBRANCH   1  22
TORSDOF 5
ENDMDL
