MODEL 1
REMARK VINA RESULT:      -7.4      0.000      0.000
REMARK  Name = Lenalidomide
REMARK  2 active torsions:
REMARK  status: ('A' for Active; 'I' for Inactive)
REMARK    1  A    between atoms: N_1  and  C_2
REMARK    2  A    between atoms: N_9  and  C_10
REMARK                            x       y       z     vdW  Elec       q    Type
REMARK                         _______ _______ _______ _____ _____    ______ ____
ROOT
ATOM      1  C   UNL     1      -7.019  -2.332 124.405  0.00  0.00    +0.000 A 
ATOM      2  C   UNL     1      -7.690  -3.567 124.314  0.00  0.00    +0.000 A 
ATOM      3  C   UNL     1      -9.005  -3.677 123.815  0.00  0.00    +0.000 A 
ATOM      4  C   UNL     1      -9.676  -2.546 123.388  0.00  0.00    +0.000 A 
ATOM      5  C   UNL     1      -8.982  -1.356 123.468  0.00  0.00    +0.000 A 
ATOM      6  C   UNL     1      -7.707  -1.212 123.995  0.00  0.00    +0.000 A 
ATOM      7  C   UNL     1      -7.313   0.227 123.958  0.00  0.00    +0.000 C 
ATOM      8  N   UNL     1      -8.412   0.854 123.224  0.00  0.00    +0.000 N 
ATOM      9  C   UNL     1      -9.406  -0.073 122.957  0.00  0.00    +0.000 C 
ATOM     10  O   UNL     1     -10.486   0.041 122.404  0.00  0.00    +0.000 OA
ENDROOT
BRANCH   8  11
ATOM     11  C   UNL     1      -8.603   2.311 123.260  0.00  0.00    +0.000 C 
ATOM     12  C   UNL     1      -7.978   2.956 122.024  0.00  0.00    +0.000 C 
ATOM     13  C   UNL     1      -6.518   3.322 122.250  0.00  0.00    +0.000 C 
ATOM     14  C   UNL     1      -6.343   4.208 123.445  0.00  0.00    +0.000 C 
ATOM     15  O   UNL     1      -5.426   5.017 123.534  0.00  0.00    +0.000 OA
ATOM     16  N   UNL     1      -7.215   3.992 124.482  0.00  0.00    +0.000 N 
ATOM     17  C   UNL     1      -8.257   3.093 124.547  0.00  0.00    +0.000 C 
ATOM     18  O   UNL     1      -8.898   2.969 125.592  0.00  0.00    +0.000 OA
ATOM     19  H   UNL     1      -7.040   4.538 125.316  0.00  0.00    +0.000 HD
ENDBRANCH   8  11
BRANCH   1  20
ATOM     20  N   UNL     1      -5.768  -2.243 124.981  0.00  0.00    +0.000 N 
ATOM     21  H   UNL     1      -5.069  -1.648 124.551  0.00  0.00    +0.000 HD
ATOM     22  H   UNL     1      -5.642  -2.462 125.960  0.00  0.00    +0.000 HD
ENDBRANCH   1  20
TORSDOF 2
ENDMDL
MODEL 2
REMARK VINA RESULT:      -7.0      2.720      3.346
REMARK  Name = Lenalidomide
REMARK  2 active torsions:
REMARK  status: ('A' for Active; 'I' for Inactive)
REMARK    1  A    between atoms: N_1  and  C_2
REMARK    2  A    between atoms: N_9  and  C_10
REMARK                            x       y       z     vdW  Elec       q    Type
REMARK                         _______ _______ _______ _____ _____    ______ ____
ROOT
ATOM      1  C   UNL     1      -7.501  -2.096 128.445  0.00  0.00    +0.000 A 
ATOM      2  C   UNL     1      -8.066  -3.302 128.903  0.00  0.00    +0.000 A 
ATOM      3  C   UNL     1      -8.959  -4.064 128.120  0.00  0.00    +0.000 A 
ATOM      4  C   UNL     1      -9.300  -3.634 126.851  0.00  0.00    +0.000 A 
ATOM      5  C   UNL     1      -8.711  -2.462 126.423  0.00  0.00    +0.000 A 
ATOM      6  C   UNL     1      -7.866  -1.670 127.188  0.00  0.00    +0.000 A 
ATOM      7  C   UNL     1      -7.472  -0.463 126.405  0.00  0.00    +0.000 C 
ATOM      8  N   UNL     1      -8.042  -0.722 125.082  0.00  0.00    +0.000 N 
ATOM      9  C   UNL     1      -8.793  -1.887 125.101  0.00  0.00    +0.000 C 
ATOM     10  O   UNL     1      -9.449  -2.435 124.232  0.00  0.00    +0.000 OA
ENDROOT
BRANCH   8  11
ATOM     11  C   UNL     1      -8.192   0.363 124.104  0.00  0.00    +0.000 C 
ATOM     12  C   UNL     1      -7.010   1.328 124.201  0.00  0.00    +0.000 C 
ATOM     13  C   UNL     1      -7.265   2.441 125.206  0.00  0.00    +0.000 C 
ATOM     14  C   UNL     1      -8.526   3.190 124.902  0.00  0.00    +0.000 C 
ATOM     15  O   UNL     1      -8.678   4.369 125.204  0.00  0.00    +0.000 OA
ATOM     16  N   UNL     1      -9.543   2.452 124.350  0.00  0.00    +0.000 N 
ATOM     17  C   UNL     1      -9.537   1.119 124.003  0.00  0.00    +0.000 C 
ATOM     18  O   UNL     1     -10.567   0.586 123.590  0.00  0.00    +0.000 OA
ATOM     19  H   UNL     1     -10.416   2.946 124.222  0.00  0.00    +0.000 HD
ENDBRANCH   8  11
BRANCH   1  20
ATOM     20  N   UNL     1      -6.702  -1.327 129.266  0.00  0.00    +0.000 N 
ATOM     21  H   UNL     1      -5.791  -1.677 129.536  0.00  0.00    +0.000 HD
ATOM     22  H   UNL     1      -6.841  -0.326 129.318  0.00  0.00    +0.000 HD
ENDBRANCH   1  20
TORSDOF 2
ENDMDL
MODEL 3
REMARK VINA RESULT:      -6.5      2.122      2.177
REMARK  Name = Lenalidomide
REMARK  2 active torsions:
REMARK  status: ('A' for Active; 'I' for Inactive)
REMARK    1  A    between atoms: N_1  and  C_2
REMARK    2  A    between atoms: N_9  and  C_10
REMARK                            x       y       z     vdW  Elec       q    Type
REMARK                         _______ _______ _______ _____ _____    ______ ____
ROOT
ATOM      1  C   UNL     1      -7.552  -1.394 127.725  0.00  0.00    +0.000 A 
ATOM      2  C   UNL     1      -8.043  -2.710 127.831  0.00  0.00    +0.000 A 
ATOM      3  C   UNL     1      -8.941  -3.259 126.891  0.00  0.00    +0.000 A 
ATOM      4  C   UNL     1      -9.362  -2.498 125.816  0.00  0.00    +0.000 A 
ATOM      5  C   UNL     1      -8.844  -1.222 125.729  0.00  0.00    +0.000 A 
ATOM      6  C   UNL     1      -7.995  -0.642 126.661  0.00  0.00    +0.000 A 
ATOM      7  C   UNL     1      -7.691   0.760 126.251  0.00  0.00    +0.000 C 
ATOM      8  N   UNL     1      -8.315   0.864 124.932  0.00  0.00    +0.000 N 
ATOM      9  C   UNL     1      -9.014  -0.294 124.635  0.00  0.00    +0.000 C 
ATOM     10  O   UNL     1      -9.689  -0.602 123.668  0.00  0.00    +0.000 OA
ENDROOT
BRANCH   8  11
ATOM     11  C   UNL     1      -8.557   2.177 124.318  0.00  0.00    +0.000 C 
ATOM     12  C   UNL     1      -8.075   2.179 122.868  0.00  0.00    +0.000 C 
ATOM     13  C   UNL     1      -6.616   2.595 122.754  0.00  0.00    +0.000 C 
ATOM     14  C   UNL     1      -6.364   3.928 123.389  0.00  0.00    +0.000 C 
ATOM     15  O   UNL     1      -5.474   4.680 123.005  0.00  0.00    +0.000 OA
ATOM     16  N   UNL     1      -7.126   4.220 124.492  0.00  0.00    +0.000 N 
ATOM     17  C   UNL     1      -8.122   3.460 125.064  0.00  0.00    +0.000 C 
ATOM     18  O   UNL     1      -8.657   3.833 126.109  0.00  0.00    +0.000 OA
ATOM     19  H   UNL     1      -6.894   5.085 124.962  0.00  0.00    +0.000 HD
ENDBRANCH   8  11
BRANCH   1  20
ATOM     20  N   UNL     1      -6.746  -0.854 128.707  0.00  0.00    +0.000 N 
ATOM     21  H   UNL     1      -5.877  -1.318 128.941  0.00  0.00    +0.000 HD
ATOM     22  H   UNL     1      -6.818   0.127 128.941  0.00  0.00    +0.000 HD
ENDBRANCH   1  20
TORSDOF 2
ENDMDL
MODEL 4
REMARK VINA RESULT:      -6.5      4.413      6.222
REMARK  Name = Lenalidomide
REMARK  2 active torsions:
REMARK  status: ('A' for Active; 'I' for Inactive)
REMARK    1  A    between atoms: N_1  and  C_2
REMARK    2  A    between atoms: N_9  and  C_10
REMARK                            x       y       z     vdW  Elec       q    Type
REMARK                         _______ _______ _______ _____ _____    ______ ____
ROOT
ATOM      1  C   UNL     1      -5.549  -1.632 129.614  0.00  0.00    +0.000 A 
ATOM      2  C   UNL     1      -5.652  -1.848 131.002  0.00  0.00    +0.000 A 
ATOM      3  C   UNL     1      -6.741  -2.534 131.581  0.00  0.00    +0.000 A 
ATOM      4  C   UNL     1      -7.751  -3.026 130.776  0.00  0.00    +0.000 A 
ATOM      5  C   UNL     1      -7.608  -2.819 129.419  0.00  0.00    +0.000 A 
ATOM      6  C   UNL     1      -6.573  -2.110 128.827  0.00  0.00    +0.000 A 
ATOM      7  C   UNL     1      -6.787  -2.057 127.351  0.00  0.00    +0.000 C 
ATOM      8  N   UNL     1      -7.946  -2.927 127.151  0.00  0.00    +0.000 N 
ATOM      9  C   UNL     1      -8.444  -3.356 128.371  0.00  0.00    +0.000 C 
ATOM     10  O   UNL     1      -9.402  -4.056 128.647  0.00  0.00    +0.000 OA
ENDROOT
BRANCH   8  11
ATOM     11  C   UNL     1      -8.708  -2.885 125.896  0.00  0.00    +0.000 C 
ATOM     12  C   UNL     1      -8.186  -3.945 124.925  0.00  0.00    +0.000 C 
ATOM     13  C   UNL     1      -7.061  -3.411 124.052  0.00  0.00    +0.000 C 
ATOM     14  C   UNL     1      -7.469  -2.178 123.306  0.00  0.00    +0.000 C 
ATOM     15  O   UNL     1      -6.985  -1.877 122.220  0.00  0.00    +0.000 OA
ATOM     16  N   UNL     1      -8.350  -1.350 123.955  0.00  0.00    +0.000 N 
ATOM     17  C   UNL     1      -8.938  -1.530 125.188  0.00  0.00    +0.000 C 
ATOM     18  O   UNL     1      -9.648  -0.644 125.666  0.00  0.00    +0.000 OA
ATOM     19  H   UNL     1      -8.558  -0.481 123.481  0.00  0.00    +0.000 HD
ENDBRANCH   8  11
BRANCH   1  20
ATOM     20  N   UNL     1      -4.520  -0.880 129.085  0.00  0.00    +0.000 N 
ATOM     21  H   UNL     1      -4.449  -0.780 128.079  0.00  0.00    +0.000 HD
ATOM     22  H   UNL     1      -4.066  -0.174 129.648  0.00  0.00    +0.000 HD
ENDBRANCH   1  20
TORSDOF 2
ENDMDL
MODEL 5
REMARK VINA RESULT:      -6.3      1.771      2.232
REMARK  Name = Lenalidomide
REMARK  2 active torsions:
REMARK  status: ('A' for Active; 'I' for Inactive)
REMARK    1  A    between atoms: N_1  and  C_2
REMARK    2  A    between atoms: N_9  and  C_10
REMARK                            x       y       z     vdW  Elec       q    Type
REMARK                         _______ _______ _______ _____ _____    ______ ____
ROOT
ATOM      1  C   UNL     1      -6.763  -2.991 124.145  0.00  0.00    +0.000 A 
ATOM      2  C   UNL     1      -7.668  -3.925 124.685  0.00  0.00    +0.000 A 
ATOM      3  C   UNL     1      -8.913  -3.543 125.230  0.00  0.00    +0.000 A 
ATOM      4  C   UNL     1      -9.281  -2.211 125.237  0.00  0.00    +0.000 A 
ATOM      5  C   UNL     1      -8.383  -1.325 124.678  0.00  0.00    +0.000 A 
ATOM      6  C   UNL     1      -7.135  -1.666 124.177  0.00  0.00    +0.000 A 
ATOM      7  C   UNL     1      -6.434  -0.436 123.706  0.00  0.00    +0.000 C 
ATOM      8  N   UNL     1      -7.457   0.602 123.842  0.00  0.00    +0.000 N 
ATOM      9  C   UNL     1      -8.595   0.083 124.438  0.00  0.00    +0.000 C 
ATOM     10  O   UNL     1      -9.648   0.609 124.755  0.00  0.00    +0.000 OA
ENDROOT
BRANCH   8  11
ATOM     11  C   UNL     1      -7.089   2.024 123.820  0.00  0.00    +0.000 C 
ATOM     12  C   UNL     1      -6.187   2.356 125.009  0.00  0.00    +0.000 C 
ATOM     13  C   UNL     1      -6.990   2.767 126.234  0.00  0.00    +0.000 C 
ATOM     14  C   UNL     1      -7.908   3.913 125.941  0.00  0.00    +0.000 C 
ATOM     15  O   UNL     1      -8.244   4.722 126.801  0.00  0.00    +0.000 OA
ATOM     16  N   UNL     1      -8.432   3.952 124.673  0.00  0.00    +0.000 N 
ATOM     17  C   UNL     1      -8.188   3.093 123.624  0.00  0.00    +0.000 C 
ATOM     18  O   UNL     1      -8.808   3.222 122.568  0.00  0.00    +0.000 OA
ATOM     19  H   UNL     1      -9.113   4.682 124.508  0.00  0.00    +0.000 HD
ENDBRANCH   8  11
BRANCH   1  20
ATOM     20  N   UNL     1      -5.516  -3.383 123.702  0.00  0.00    +0.000 N 
ATOM     21  H   UNL     1      -5.342  -3.438 122.706  0.00  0.00    +0.000 HD
ATOM     22  H   UNL     1      -4.709  -3.281 124.303  0.00  0.00    +0.000 HD
ENDBRANCH   1  20
TORSDOF 2
ENDMDL
MODEL 6
REMARK VINA RESULT:      -6.3      2.230      2.807
REMARK  Name = Lenalidomide
REMARK  2 active torsions:
REMARK  status: ('A' for Active; 'I' for Inactive)
REMARK    1  A    between atoms: N_1  and  C_2
REMARK    2  A    between atoms: N_9  and  C_10
REMARK                            x       y       z     vdW  Elec       q    Type
REMARK                         _______ _______ _______ _____ _____    ______ ____
ROOT
ATOM      1  C   UNL     1      -9.099  -2.290 125.600  0.00  0.00    +0.000 A 
ATOM      2  C   UNL     1      -8.568  -2.941 126.731  0.00  0.00    +0.000 A 
ATOM      3  C   UNL     1      -7.866  -2.249 127.740  0.00  0.00    +0.000 A 
ATOM      4  C   UNL     1      -7.686  -0.882 127.640  0.00  0.00    +0.000 A 
ATOM      5  C   UNL     1      -8.239  -0.271 126.533  0.00  0.00    +0.000 A 
ATOM      6  C   UNL     1      -8.895  -0.932 125.504  0.00  0.00    +0.000 A 
ATOM      7  C   UNL     1      -9.306   0.054 124.462  0.00  0.00    +0.000 C 
ATOM      8  N   UNL     1      -8.962   1.341 125.068  0.00  0.00    +0.000 N 
ATOM      9  C   UNL     1      -8.312   1.148 126.275  0.00  0.00    +0.000 C 
ATOM     10  O   UNL     1      -7.838   1.941 127.070  0.00  0.00    +0.000 OA
ENDROOT
BRANCH   8  11
ATOM     11  C   UNL     1      -8.877   2.557 124.247  0.00  0.00    +0.000 C 
ATOM     12  C   UNL     1      -8.213   2.243 122.907  0.00  0.00    +0.000 C 
ATOM     13  C   UNL     1      -6.701   2.395 122.971  0.00  0.00    +0.000 C 
ATOM     14  C   UNL     1      -6.296   3.757 123.447  0.00  0.00    +0.000 C 
ATOM     15  O   UNL     1      -5.241   4.283 123.110  0.00  0.00    +0.000 OA
ATOM     16  N   UNL     1      -7.133   4.344 124.362  0.00  0.00    +0.000 N 
ATOM     17  C   UNL     1      -8.318   3.858 124.868  0.00  0.00    +0.000 C 
ATOM     18  O   UNL     1      -8.911   4.479 125.752  0.00  0.00    +0.000 OA
ATOM     19  H   UNL     1      -6.812   5.226 124.739  0.00  0.00    +0.000 HD
ENDBRANCH   8  11
BRANCH   1  20
ATOM     20  N   UNL     1      -9.702  -3.005 124.585  0.00  0.00    +0.000 N 
ATOM     21  H   UNL     1     -10.235  -2.508 123.882  0.00  0.00    +0.000 HD
ATOM     22  H   UNL     1      -9.355  -3.921 124.334  0.00  0.00    +0.000 HD
ENDBRANCH   1  20
TORSDOF 2
ENDMDL
MODEL 7
REMARK VINA RESULT:      -6.2      8.563     10.985
REMARK  Name = Lenalidomide
REMARK  2 active torsions:
REMARK  status: ('A' for Active; 'I' for Inactive)
REMARK    1  A    between atoms: N_1  and  C_2
REMARK    2  A    between atoms: N_9  and  C_10
REMARK                            x       y       z     vdW  Elec       q    Type
REMARK                         _______ _______ _______ _____ _____    ______ ____
ROOT
ATOM      1  C   UNL     1      -3.602   6.674 132.797  0.00  0.00    +0.000 A 
ATOM      2  C   UNL     1      -2.901   7.383 131.802  0.00  0.00    +0.000 A 
ATOM      3  C   UNL     1      -3.514   7.813 130.606  0.00  0.00    +0.000 A 
ATOM      4  C   UNL     1      -4.852   7.546 130.385  0.00  0.00    +0.000 A 
ATOM      5  C   UNL     1      -5.516   6.871 131.388  0.00  0.00    +0.000 A 
ATOM      6  C   UNL     1      -4.929   6.398 132.553  0.00  0.00    +0.000 A 
ATOM      7  C   UNL     1      -5.950   5.679 133.369  0.00  0.00    +0.000 C 
ATOM      8  N   UNL     1      -7.193   5.924 132.636  0.00  0.00    +0.000 N 
ATOM      9  C   UNL     1      -6.934   6.604 131.458  0.00  0.00    +0.000 C 
ATOM     10  O   UNL     1      -7.672   6.970 130.560  0.00  0.00    +0.000 OA
ENDROOT
BRANCH   8  11
ATOM     11  C   UNL     1      -8.389   5.110 132.895  0.00  0.00    +0.000 C 
ATOM     12  C   UNL     1      -8.152   3.667 132.452  0.00  0.00    +0.000 C 
ATOM     13  C   UNL     1      -8.538   3.448 130.996  0.00  0.00    +0.000 C 
ATOM     14  C   UNL     1      -9.956   3.850 130.728  0.00  0.00    +0.000 C 
ATOM     15  O   UNL     1     -10.632   3.325 129.849  0.00  0.00    +0.000 OA
ATOM     16  N   UNL     1     -10.427   4.909 131.462  0.00  0.00    +0.000 N 
ATOM     17  C   UNL     1      -9.775   5.624 132.442  0.00  0.00    +0.000 C 
ATOM     18  O   UNL     1     -10.316   6.607 132.950  0.00  0.00    +0.000 OA
ATOM     19  H   UNL     1     -11.357   5.225 131.219  0.00  0.00    +0.000 HD
ENDBRANCH   8  11
BRANCH   1  20
ATOM     20  N   UNL     1      -2.955   6.188 133.915  0.00  0.00    +0.000 N 
ATOM     21  H   UNL     1      -2.528   6.842 134.560  0.00  0.00    +0.000 HD
ATOM     22  H   UNL     1      -3.186   5.273 134.277  0.00  0.00    +0.000 HD
ENDBRANCH   1  20
TORSDOF 2
ENDMDL
MODEL 8
REMARK VINA RESULT:      -6.2      7.526      8.480
REMARK  Name = Lenalidomide
REMARK  2 active torsions:
REMARK  status: ('A' for Active; 'I' for Inactive)
REMARK    1  A    between atoms: N_1  and  C_2
REMARK    2  A    between atoms: N_9  and  C_10
REMARK                            x       y       z     vdW  Elec       q    Type
REMARK                         _______ _______ _______ _____ _____    ______ ____
ROOT
ATOM      1  C   UNL     1      -6.423   2.139 130.994  0.00  0.00    +0.000 A 
ATOM      2  C   UNL     1      -6.762   0.795 131.244  0.00  0.00    +0.000 A 
ATOM      3  C   UNL     1      -8.098   0.341 131.244  0.00  0.00    +0.000 A 
ATOM      4  C   UNL     1      -9.126   1.227 130.984  0.00  0.00    +0.000 A 
ATOM      5  C   UNL     1      -8.758   2.531 130.719  0.00  0.00    +0.000 A 
ATOM      6  C   UNL     1      -7.458   3.014 130.756  0.00  0.00    +0.000 A 
ATOM      7  C   UNL     1      -7.463   4.477 130.464  0.00  0.00    +0.000 C 
ATOM      8  N   UNL     1      -8.858   4.741 130.107  0.00  0.00    +0.000 N 
ATOM      9  C   UNL     1      -9.624   3.601 130.281  0.00  0.00    +0.000 C 
ATOM     10  O   UNL     1     -10.817   3.402 130.130  0.00  0.00    +0.000 OA
ENDROOT
BRANCH   8  11
ATOM     11  C   UNL     1      -9.380   6.114 130.086  0.00  0.00    +0.000 C 
ATOM     12  C   UNL     1      -9.568   6.630 131.513  0.00  0.00    +0.000 C 
ATOM     13  C   UNL     1     -10.950   6.303 132.058  0.00  0.00    +0.000 C 
ATOM     14  C   UNL     1     -12.038   6.822 131.169  0.00  0.00    +0.000 C 
ATOM     15  O   UNL     1     -13.141   7.143 131.600  0.00  0.00    +0.000 OA
ATOM     16  N   UNL     1     -11.761   6.828 129.825  0.00  0.00    +0.000 N 
ATOM     17  C   UNL     1     -10.596   6.454 129.194  0.00  0.00    +0.000 C 
ATOM     18  O   UNL     1     -10.539   6.442 127.963  0.00  0.00    +0.000 OA
ATOM     19  H   UNL     1     -12.528   7.103 129.226  0.00  0.00    +0.000 HD
ENDBRANCH   8  11
BRANCH   1  20
ATOM     20  N   UNL     1      -5.116   2.573 131.089  0.00  0.00    +0.000 N 
ATOM     21  H   UNL     1      -4.834   3.112 131.899  0.00  0.00    +0.000 HD
ATOM     22  H   UNL     1      -4.384   2.096 130.579  0.00  0.00    +0.000 HD
ENDBRANCH   1  20
TORSDOF 2
ENDMDL
MODEL 9
REMARK VINA RESULT:      -6.2      5.324      7.437
REMARK  Name = Lenalidomide
REMARK  2 active torsions:
REMARK  status: ('A' for Active; 'I' for Inactive)
REMARK    1  A    between atoms: N_1  and  C_2
REMARK    2  A    between atoms: N_9  and  C_10
REMARK                            x       y       z     vdW  Elec       q    Type
REMARK                         _______ _______ _______ _____ _____    ______ ____
ROOT
ATOM      1  C   UNL     1      -6.985  -2.381 124.822  0.00  0.00    +0.000 A 
ATOM      2  C   UNL     1      -8.231  -2.797 124.314  0.00  0.00    +0.000 A 
ATOM      3  C   UNL     1      -9.283  -3.225 125.151  0.00  0.00    +0.000 A 
ATOM      4  C   UNL     1      -9.110  -3.238 126.522  0.00  0.00    +0.000 A 
ATOM      5  C   UNL     1      -7.887  -2.802 126.989  0.00  0.00    +0.000 A 
ATOM      6  C   UNL     1      -6.820  -2.419 126.188  0.00  0.00    +0.000 A 
ATOM      7  C   UNL     1      -5.655  -2.060 127.049  0.00  0.00    +0.000 C 
ATOM      8  N   UNL     1      -6.209  -2.126 128.402  0.00  0.00    +0.000 N 
ATOM      9  C   UNL     1      -7.515  -2.587 128.368  0.00  0.00    +0.000 C 
ATOM     10  O   UNL     1      -8.313  -2.813 129.261  0.00  0.00    +0.000 OA
ENDROOT
BRANCH   8  11
ATOM     11  C   UNL     1      -5.323  -2.187 129.573  0.00  0.00    +0.000 C 
ATOM     12  C   UNL     1      -4.663  -3.562 129.665  0.00  0.00    +0.000 C 
ATOM     13  C   UNL     1      -5.501  -4.543 130.472  0.00  0.00    +0.000 C 
ATOM     14  C   UNL     1      -5.808  -4.019 131.842  0.00  0.00    +0.000 C 
ATOM     15  O   UNL     1      -5.991  -4.761 132.802  0.00  0.00    +0.000 OA
ATOM     16  N   UNL     1      -5.969  -2.660 131.941  0.00  0.00    +0.000 N 
ATOM     17  C   UNL     1      -5.845  -1.713 130.949  0.00  0.00    +0.000 C 
ATOM     18  O   UNL     1      -6.105  -0.533 131.189  0.00  0.00    +0.000 OA
ATOM     19  H   UNL     1      -6.256  -2.323 132.851  0.00  0.00    +0.000 HD
ENDBRANCH   8  11
BRANCH   1  20
ATOM     20  N   UNL     1      -5.944  -2.054 123.976  0.00  0.00    +0.000 N 
ATOM     21  H   UNL     1      -5.131  -1.585 124.355  0.00  0.00    +0.000 HD
ATOM     22  H   UNL     1      -5.820  -2.555 123.106  0.00  0.00    +0.000 HD
ENDBRANCH   1  20
TORSDOF 2
ENDMDL
