MODEL 1
REMARK VINA RESULT:      -8.2      0.000      0.000
REMARK  Name = Lenvatinib
REMARK  7 active torsions:
REMARK  status: ('A' for Active; 'I' for Inactive)
REMARK    1  A    between atoms: C_1  and  O_2
REMARK    2  A    between atoms: O_2  and  C_3
REMARK    3  A    between atoms: C_4  and  C_28
REMARK    4  A    between atoms: C_7  and  O_8
REMARK    5  A    between atoms: O_8  and  C_9
REMARK    6  A    between atoms: C_12  and  N_13
REMARK    7  A    between atoms: N_16  and  C_17
REMARK                            x       y       z     vdW  Elec       q    Type
REMARK                         _______ _______ _______ _____ _____    ______ ____
ROOT
ATOM      1  C   UNL     1      -9.087  -2.061 125.848  0.00  0.00    +0.000 A 
ATOM      2  C   UNL     1      -8.673  -0.763 126.062  0.00  0.00    +0.000 A 
ATOM      3  C   UNL     1      -7.844  -0.569 127.160  0.00  0.00    +0.000 A 
ATOM      4  C   UNL     1      -7.618  -1.484 128.214  0.00  0.00    +0.000 A 
ATOM      5  C   UNL     1      -6.940  -1.186 129.435  0.00  0.00    +0.000 A 
ATOM      6  C   UNL     1      -6.709  -2.215 130.352  0.00  0.00    +0.000 A 
ATOM      7  C   UNL     1      -7.197  -3.471 130.056  0.00  0.00    +0.000 A 
ATOM      8  N   UNL     1      -7.898  -3.760 128.934  0.00  0.00    +0.000 NA
ATOM      9  C   UNL     1      -8.114  -2.783 128.025  0.00  0.00    +0.000 A 
ATOM     10  C   UNL     1      -8.820  -3.044 126.835  0.00  0.00    +0.000 A 
ENDROOT
BRANCH   2  11
ATOM     11  C   UNL     1      -9.119   0.418 125.238  0.00  0.00    +0.000 C 
ATOM     12  N   UNL     1      -8.988   0.349 123.886  0.00  0.00    +0.000 N 
ATOM     13  O   UNL     1      -9.571   1.456 125.703  0.00  0.00    +0.000 OA
ATOM     14  H   UNL     1      -8.528  -0.397 123.402  0.00  0.00    +0.000 HD
ATOM     15  H   UNL     1      -9.266   1.151 123.340  0.00  0.00    +0.000 HD
ENDBRANCH   2  11
BRANCH   1  17
ATOM     16  C   UNL     1      -8.971  -3.284 123.839  0.00  0.00    +0.000 C 
ATOM     17  O   UNL     1      -9.751  -2.463 124.722  0.00  0.00    +0.000 OA
ENDBRANCH   1  17
BRANCH   5  18
ATOM     18  O   UNL     1      -6.470   0.048 129.884  0.00  0.00    +0.000 OA
BRANCH  18  19
ATOM     19  C   UNL     1      -7.289   0.950 130.516  0.00  0.00    +0.000 A 
ATOM     20  C   UNL     1      -8.499   0.626 131.129  0.00  0.00    +0.000 A 
ATOM     21  C   UNL     1      -9.387   1.656 131.552  0.00  0.00    +0.000 A 
ATOM     22  C   UNL     1      -9.064   3.040 131.429  0.00  0.00    +0.000 A 
ATOM     23  C   UNL     1      -7.775   3.317 130.867  0.00  0.00    +0.000 A 
ATOM     24 CL   UNL     1      -6.975   4.813 130.497  0.00  0.00    +0.000 Cl
ATOM     25  C   UNL     1      -6.927   2.280 130.432  0.00  0.00    +0.000 A 
BRANCH  22  26
ATOM     26  N   UNL     1     -10.121   3.984 131.802  0.00  0.00    +0.000 N 
ATOM     27  C   UNL     1     -10.890   4.672 130.905  0.00  0.00    +0.000 C 
ATOM     28  O   UNL     1     -10.940   4.368 129.717  0.00  0.00    +0.000 OA
ATOM     29  N   UNL     1     -11.607   5.771 131.302  0.00  0.00    +0.000 N 
ATOM     30  H   UNL     1     -10.391   4.040 132.780  0.00  0.00    +0.000 HD
ATOM     31  H   UNL     1     -12.006   5.815 132.233  0.00  0.00    +0.000 HD
BRANCH  29  32
ATOM     32  C   UNL     1     -12.245   6.600 130.263  0.00  0.00    +0.000 C 
ATOM     33  C   UNL     1     -12.787   7.959 130.637  0.00  0.00    +0.000 C 
ATOM     34  C   UNL     1     -11.622   7.889 129.710  0.00  0.00    +0.000 C 
ENDBRANCH  29  32
ENDBRANCH  22  26
ENDBRANCH  18  19
ENDBRANCH   5  18
TORSDOF 6
ENDMDL
MODEL 2
REMARK VINA RESULT:      -8.1      3.030      8.677
REMARK  Name = Lenvatinib
REMARK  7 active torsions:
REMARK  status: ('A' for Active; 'I' for Inactive)
REMARK    1  A    between atoms: C_1  and  O_2
REMARK    2  A    between atoms: O_2  and  C_3
REMARK    3  A    between atoms: C_4  and  C_28
REMARK    4  A    between atoms: C_7  and  O_8
REMARK    5  A    between atoms: O_8  and  C_9
REMARK    6  A    between atoms: C_12  and  N_13
REMARK    7  A    between atoms: N_16  and  C_17
REMARK                            x       y       z     vdW  Elec       q    Type
REMARK                         _______ _______ _______ _____ _____    ______ ____
ROOT
ATOM      1  C   UNL     1     -11.992   7.472 129.309  0.00  0.00    +0.000 A 
ATOM      2  C   UNL     1     -11.171   7.070 128.277  0.00  0.00    +0.000 A 
ATOM      3  C   UNL     1     -10.062   6.319 128.648  0.00  0.00    +0.000 A 
ATOM      4  C   UNL     1      -9.549   6.171 129.956  0.00  0.00    +0.000 A 
ATOM      5  C   UNL     1      -8.291   5.579 130.287  0.00  0.00    +0.000 A 
ATOM      6  C   UNL     1      -7.951   5.415 131.632  0.00  0.00    +0.000 A 
ATOM      7  C   UNL     1      -8.830   5.885 132.587  0.00  0.00    +0.000 A 
ATOM      8  N   UNL     1      -9.997   6.507 132.294  0.00  0.00    +0.000 NA
ATOM      9  C   UNL     1     -10.353   6.656 130.999  0.00  0.00    +0.000 A 
ATOM     10  C   UNL     1     -11.567   7.278 130.648  0.00  0.00    +0.000 A 
ENDROOT
BRANCH   2  11
ATOM     11  C   UNL     1     -11.372   7.454 126.833  0.00  0.00    +0.000 C 
ATOM     12  N   UNL     1     -12.439   6.935 126.168  0.00  0.00    +0.000 N 
ATOM     13  O   UNL     1     -10.622   8.185 126.200  0.00  0.00    +0.000 OA
ATOM     14  H   UNL     1     -13.053   6.239 126.545  0.00  0.00    +0.000 HD
ATOM     15  H   UNL     1     -12.557   7.177 125.196  0.00  0.00    +0.000 HD
ENDBRANCH   2  11
BRANCH   1  17
ATOM     16  C   UNL     1     -13.173   9.490 129.022  0.00  0.00    +0.000 C 
ATOM     17  O   UNL     1     -13.214   8.057 129.115  0.00  0.00    +0.000 OA
ENDBRANCH   1  17
BRANCH   5  18
ATOM     18  O   UNL     1      -7.289   5.138 129.423  0.00  0.00    +0.000 OA
BRANCH  18  19
ATOM     19  C   UNL     1      -7.436   4.007 128.658  0.00  0.00    +0.000 A 
ATOM     20  C   UNL     1      -8.296   2.952 128.962  0.00  0.00    +0.000 A 
ATOM     21  C   UNL     1      -8.210   1.727 128.241  0.00  0.00    +0.000 A 
ATOM     22  C   UNL     1      -7.304   1.542 127.156  0.00  0.00    +0.000 A 
ATOM     23  C   UNL     1      -6.501   2.685 126.831  0.00  0.00    +0.000 A 
ATOM     24 CL   UNL     1      -5.260   2.922 125.640  0.00  0.00    +0.000 Cl
ATOM     25  C   UNL     1      -6.586   3.876 127.578  0.00  0.00    +0.000 A 
BRANCH  22  26
ATOM     26  N   UNL     1      -7.249   0.194 126.583  0.00  0.00    +0.000 N 
ATOM     27  C   UNL     1      -7.934  -0.197 125.467  0.00  0.00    +0.000 C 
ATOM     28  O   UNL     1      -8.450   0.610 124.700  0.00  0.00    +0.000 OA
ATOM     29  N   UNL     1      -8.109  -1.527 125.188  0.00  0.00    +0.000 N 
ATOM     30  H   UNL     1      -6.564  -0.457 126.957  0.00  0.00    +0.000 HD
ATOM     31  H   UNL     1      -7.391  -2.202 125.429  0.00  0.00    +0.000 HD
BRANCH  29  32
ATOM     32  C   UNL     1      -9.032  -1.895 124.099  0.00  0.00    +0.000 C 
ATOM     33  C   UNL     1      -8.482  -2.582 122.870  0.00  0.00    +0.000 C 
ATOM     34  C   UNL     1      -9.403  -3.345 123.759  0.00  0.00    +0.000 C 
ENDBRANCH  29  32
ENDBRANCH  22  26
ENDBRANCH  18  19
ENDBRANCH   5  18
TORSDOF 6
ENDMDL
MODEL 3
REMARK VINA RESULT:      -7.9      1.803      2.141
REMARK  Name = Lenvatinib
REMARK  7 active torsions:
REMARK  status: ('A' for Active; 'I' for Inactive)
REMARK    1  A    between atoms: C_1  and  O_2
REMARK    2  A    between atoms: O_2  and  C_3
REMARK    3  A    between atoms: C_4  and  C_28
REMARK    4  A    between atoms: C_7  and  O_8
REMARK    5  A    between atoms: O_8  and  C_9
REMARK    6  A    between atoms: C_12  and  N_13
REMARK    7  A    between atoms: N_16  and  C_17
REMARK                            x       y       z     vdW  Elec       q    Type
REMARK                         _______ _______ _______ _____ _____    ______ ____
ROOT
ATOM      1  C   UNL     1      -6.540  -2.446 125.561  0.00  0.00    +0.000 A 
ATOM      2  C   UNL     1      -7.814  -2.151 125.998  0.00  0.00    +0.000 A 
ATOM      3  C   UNL     1      -7.904  -1.637 127.286  0.00  0.00    +0.000 A 
ATOM      4  C   UNL     1      -6.889  -1.652 128.269  0.00  0.00    +0.000 A 
ATOM      5  C   UNL     1      -7.069  -1.321 129.646  0.00  0.00    +0.000 A 
ATOM      6  C   UNL     1      -5.954  -1.292 130.489  0.00  0.00    +0.000 A 
ATOM      7  C   UNL     1      -4.728  -1.639 129.958  0.00  0.00    +0.000 A 
ATOM      8  N   UNL     1      -4.547  -2.019 128.670  0.00  0.00    +0.000 NA
ATOM      9  C   UNL     1      -5.610  -2.033 127.835  0.00  0.00    +0.000 A 
ATOM     10  C   UNL     1      -5.464  -2.402 126.484  0.00  0.00    +0.000 A 
ENDROOT
BRANCH   2  11
ATOM     11  C   UNL     1      -9.068  -2.417 125.204  0.00  0.00    +0.000 C 
ATOM     12  N   UNL     1      -9.033  -2.227 123.858  0.00  0.00    +0.000 N 
ATOM     13  O   UNL     1     -10.134  -2.769 125.691  0.00  0.00    +0.000 OA
ATOM     14  H   UNL     1      -8.256  -1.833 123.364  0.00  0.00    +0.000 HD
ATOM     15  H   UNL     1      -9.881  -2.385 123.333  0.00  0.00    +0.000 HD
ENDBRANCH   2  11
BRANCH   1  17
ATOM     16  C   UNL     1      -5.040  -3.548 124.118  0.00  0.00    +0.000 C 
ATOM     17  O   UNL     1      -6.248  -2.785 124.268  0.00  0.00    +0.000 OA
ENDBRANCH   1  17
BRANCH   5  18
ATOM     18  O   UNL     1      -8.255  -1.029 130.318  0.00  0.00    +0.000 OA
BRANCH  18  19
ATOM     19  C   UNL     1      -8.555   0.242 130.744  0.00  0.00    +0.000 A 
ATOM     20  C   UNL     1      -9.233   0.541 131.926  0.00  0.00    +0.000 A 
ATOM     21  C   UNL     1      -9.701   1.863 132.168  0.00  0.00    +0.000 A 
ATOM     22  C   UNL     1      -9.454   2.938 131.264  0.00  0.00    +0.000 A 
ATOM     23  C   UNL     1      -8.683   2.595 130.106  0.00  0.00    +0.000 A 
ATOM     24 CL   UNL     1      -8.172   3.536 128.739  0.00  0.00    +0.000 Cl
ATOM     25  C   UNL     1      -8.255   1.272 129.876  0.00  0.00    +0.000 A 
BRANCH  22  26
ATOM     26  N   UNL     1     -10.093   4.216 131.591  0.00  0.00    +0.000 N 
ATOM     27  C   UNL     1     -10.981   4.863 130.777  0.00  0.00    +0.000 C 
ATOM     28  O   UNL     1     -11.516   4.309 129.821  0.00  0.00    +0.000 OA
ATOM     29  N   UNL     1     -11.271   6.187 130.977  0.00  0.00    +0.000 N 
ATOM     30  H   UNL     1      -9.974   4.585 132.530  0.00  0.00    +0.000 HD
ATOM     31  H   UNL     1     -11.290   6.573 131.915  0.00  0.00    +0.000 HD
BRANCH  29  32
ATOM     32  C   UNL     1     -12.063   6.890 129.951  0.00  0.00    +0.000 C 
ATOM     33  C   UNL     1     -12.674   8.231 130.284  0.00  0.00    +0.000 C 
ATOM     34  C   UNL     1     -11.595   8.177 129.257  0.00  0.00    +0.000 C 
ENDBRANCH  29  32
ENDBRANCH  22  26
ENDBRANCH  18  19
ENDBRANCH   5  18
TORSDOF 6
ENDMDL
MODEL 4
REMARK VINA RESULT:      -7.8      5.352      7.866
REMARK  Name = Lenvatinib
REMARK  7 active torsions:
REMARK  status: ('A' for Active; 'I' for Inactive)
REMARK    1  A    between atoms: C_1  and  O_2
REMARK    2  A    between atoms: O_2  and  C_3
REMARK    3  A    between atoms: C_4  and  C_28
REMARK    4  A    between atoms: C_7  and  O_8
REMARK    5  A    between atoms: O_8  and  C_9
REMARK    6  A    between atoms: C_12  and  N_13
REMARK    7  A    between atoms: N_16  and  C_17
REMARK                            x       y       z     vdW  Elec       q    Type
REMARK                         _______ _______ _______ _____ _____    ______ ____
ROOT
ATOM      1  C   UNL     1      -8.529   1.971 123.079  0.00  0.00    +0.000 A 
ATOM      2  C   UNL     1      -7.358   1.796 123.786  0.00  0.00    +0.000 A 
ATOM      3  C   UNL     1      -6.981   0.478 124.010  0.00  0.00    +0.000 A 
ATOM      4  C   UNL     1      -7.792  -0.668 123.841  0.00  0.00    +0.000 A 
ATOM      5  C   UNL     1      -7.460  -1.985 124.281  0.00  0.00    +0.000 A 
ATOM      6  C   UNL     1      -8.318  -3.042 123.966  0.00  0.00    +0.000 A 
ATOM      7  C   UNL     1      -9.483  -2.753 123.284  0.00  0.00    +0.000 A 
ATOM      8  N   UNL     1      -9.847  -1.502 122.914  0.00  0.00    +0.000 NA
ATOM      9  C   UNL     1      -9.020  -0.469 123.192  0.00  0.00    +0.000 A 
ATOM     10  C   UNL     1      -9.349   0.845 122.809  0.00  0.00    +0.000 A 
ENDROOT
BRANCH   2  11
ATOM     11  C   UNL     1      -6.542   2.922 124.369  0.00  0.00    +0.000 C 
ATOM     12  N   UNL     1      -6.567   4.130 123.744  0.00  0.00    +0.000 N 
ATOM     13  O   UNL     1      -5.829   2.821 125.358  0.00  0.00    +0.000 OA
ATOM     14  H   UNL     1      -7.020   4.301 122.867  0.00  0.00    +0.000 HD
ATOM     15  H   UNL     1      -6.002   4.874 124.124  0.00  0.00    +0.000 HD
ENDBRANCH   2  11
BRANCH   1  17
ATOM     16  C   UNL     1      -8.805   3.359 121.196  0.00  0.00    +0.000 C 
ATOM     17  O   UNL     1      -8.954   3.185 122.614  0.00  0.00    +0.000 OA
ENDBRANCH   1  17
BRANCH   5  18
ATOM     18  O   UNL     1      -6.362  -2.394 125.038  0.00  0.00    +0.000 OA
BRANCH  18  19
ATOM     19  C   UNL     1      -6.330  -2.255 126.404  0.00  0.00    +0.000 A 
ATOM     20  C   UNL     1      -5.248  -1.746 127.122  0.00  0.00    +0.000 A 
ATOM     21  C   UNL     1      -5.215  -1.856 128.541  0.00  0.00    +0.000 A 
ATOM     22  C   UNL     1      -6.289  -2.424 129.288  0.00  0.00    +0.000 A 
ATOM     23  C   UNL     1      -7.411  -2.857 128.508  0.00  0.00    +0.000 A 
ATOM     24 CL   UNL     1      -8.902  -3.625 128.958  0.00  0.00    +0.000 Cl
ATOM     25  C   UNL     1      -7.407  -2.762 127.102  0.00  0.00    +0.000 A 
BRANCH  22  26
ATOM     26  N   UNL     1      -6.065  -2.574 130.729  0.00  0.00    +0.000 N 
ATOM     27  C   UNL     1      -5.801  -3.764 131.347  0.00  0.00    +0.000 C 
ATOM     28  O   UNL     1      -5.474  -4.768 130.722  0.00  0.00    +0.000 OA
ATOM     29  N   UNL     1      -5.941  -3.888 132.705  0.00  0.00    +0.000 N 
ATOM     30  H   UNL     1      -5.971  -1.731 131.289  0.00  0.00    +0.000 HD
ATOM     31  H   UNL     1      -5.734  -3.106 133.317  0.00  0.00    +0.000 HD
BRANCH  29  32
ATOM     32  C   UNL     1      -5.855  -5.237 133.294  0.00  0.00    +0.000 C 
ATOM     33  C   UNL     1      -4.613  -5.626 134.061  0.00  0.00    +0.000 C 
ATOM     34  C   UNL     1      -5.899  -5.504 134.805  0.00  0.00    +0.000 C 
ENDBRANCH  29  32
ENDBRANCH  22  26
ENDBRANCH  18  19
ENDBRANCH   5  18
TORSDOF 6
ENDMDL
MODEL 5
REMARK VINA RESULT:      -7.7      1.840      2.046
REMARK  Name = Lenvatinib
REMARK  7 active torsions:
REMARK  status: ('A' for Active; 'I' for Inactive)
REMARK    1  A    between atoms: C_1  and  O_2
REMARK    2  A    between atoms: O_2  and  C_3
REMARK    3  A    between atoms: C_4  and  C_28
REMARK    4  A    between atoms: C_7  and  O_8
REMARK    5  A    between atoms: O_8  and  C_9
REMARK    6  A    between atoms: C_12  and  N_13
REMARK    7  A    between atoms: N_16  and  C_17
REMARK                            x       y       z     vdW  Elec       q    Type
REMARK                         _______ _______ _______ _____ _____    ______ ____
ROOT
ATOM      1  C   UNL     1      -6.859  -0.610 125.041  0.00  0.00    +0.000 A 
ATOM      2  C   UNL     1      -6.260   0.152 126.022  0.00  0.00    +0.000 A 
ATOM      3  C   UNL     1      -6.316  -0.371 127.308  0.00  0.00    +0.000 A 
ATOM      4  C   UNL     1      -7.144  -1.428 127.749  0.00  0.00    +0.000 A 
ATOM      5  C   UNL     1      -7.347  -1.804 129.112  0.00  0.00    +0.000 A 
ATOM      6  C   UNL     1      -8.125  -2.929 129.398  0.00  0.00    +0.000 A 
ATOM      7  C   UNL     1      -8.708  -3.601 128.342  0.00  0.00    +0.000 A 
ATOM      8  N   UNL     1      -8.581  -3.223 127.048  0.00  0.00    +0.000 NA
ATOM      9  C   UNL     1      -7.816  -2.149 126.750  0.00  0.00    +0.000 A 
ATOM     10  C   UNL     1      -7.640  -1.733 125.417  0.00  0.00    +0.000 A 
ENDROOT
BRANCH   2  11
ATOM     11  C   UNL     1      -5.638   1.505 125.785  0.00  0.00    +0.000 C 
ATOM     12  N   UNL     1      -6.294   2.388 124.986  0.00  0.00    +0.000 N 
ATOM     13  O   UNL     1      -4.560   1.861 126.244  0.00  0.00    +0.000 OA
ATOM     14  H   UNL     1      -7.121   2.169 124.465  0.00  0.00    +0.000 HD
ATOM     15  H   UNL     1      -5.863   3.283 124.812  0.00  0.00    +0.000 HD
ENDBRANCH   2  11
BRANCH   1  17
ATOM     16  C   UNL     1      -6.750  -1.510 122.867  0.00  0.00    +0.000 C 
ATOM     17  O   UNL     1      -6.742  -0.343 123.704  0.00  0.00    +0.000 OA
ENDBRANCH   1  17
BRANCH   5  18
ATOM     18  O   UNL     1      -6.881  -1.168 130.263  0.00  0.00    +0.000 OA
BRANCH  18  19
ATOM     19  C   UNL     1      -7.548  -0.109 130.828  0.00  0.00    +0.000 A 
ATOM     20  C   UNL     1      -8.771  -0.207 131.491  0.00  0.00    +0.000 A 
ATOM     21  C   UNL     1      -9.495   0.969 131.837  0.00  0.00    +0.000 A 
ATOM     22  C   UNL     1      -8.989   2.278 131.585  0.00  0.00    +0.000 A 
ATOM     23  C   UNL     1      -7.692   2.323 130.976  0.00  0.00    +0.000 A 
ATOM     24 CL   UNL     1      -6.705   3.655 130.459  0.00  0.00    +0.000 Cl
ATOM     25  C   UNL     1      -7.009   1.144 130.619  0.00  0.00    +0.000 A 
BRANCH  22  26
ATOM     26  N   UNL     1      -9.893   3.390 131.893  0.00  0.00    +0.000 N 
ATOM     27  C   UNL     1     -10.630   4.064 130.960  0.00  0.00    +0.000 C 
ATOM     28  O   UNL     1     -10.798   3.633 129.823  0.00  0.00    +0.000 OA
ATOM     29  N   UNL     1     -11.177   5.285 131.255  0.00  0.00    +0.000 N 
ATOM     30  H   UNL     1     -10.086   3.594 132.870  0.00  0.00    +0.000 HD
ATOM     31  H   UNL     1     -11.504   5.490 132.193  0.00  0.00    +0.000 HD
BRANCH  29  32
ATOM     32  C   UNL     1     -11.777   6.064 130.155  0.00  0.00    +0.000 C 
ATOM     33  C   UNL     1     -12.732   7.187 130.485  0.00  0.00    +0.000 C 
ATOM     34  C   UNL     1     -11.421   7.528 129.864  0.00  0.00    +0.000 C 
ENDBRANCH  29  32
ENDBRANCH  22  26
ENDBRANCH  18  19
ENDBRANCH   5  18
TORSDOF 6
ENDMDL
MODEL 6
REMARK VINA RESULT:      -7.6      3.533      8.838
REMARK  Name = Lenvatinib
REMARK  7 active torsions:
REMARK  status: ('A' for Active; 'I' for Inactive)
REMARK    1  A    between atoms: C_1  and  O_2
REMARK    2  A    between atoms: O_2  and  C_3
REMARK    3  A    between atoms: C_4  and  C_28
REMARK    4  A    between atoms: C_7  and  O_8
REMARK    5  A    between atoms: O_8  and  C_9
REMARK    6  A    between atoms: C_12  and  N_13
REMARK    7  A    between atoms: N_16  and  C_17
REMARK                            x       y       z     vdW  Elec       q    Type
REMARK                         _______ _______ _______ _____ _____    ______ ____
ROOT
ATOM      1  C   UNL     1     -11.323   6.785 130.556  0.00  0.00    +0.000 A 
ATOM      2  C   UNL     1     -10.538   6.782 129.422  0.00  0.00    +0.000 A 
ATOM      3  C   UNL     1      -9.260   6.260 129.575  0.00  0.00    +0.000 A 
ATOM      4  C   UNL     1      -8.600   6.001 130.798  0.00  0.00    +0.000 A 
ATOM      5  C   UNL     1      -7.217   5.673 130.936  0.00  0.00    +0.000 A 
ATOM      6  C   UNL     1      -6.718   5.353 132.201  0.00  0.00    +0.000 A 
ATOM      7  C   UNL     1      -7.580   5.420 133.277  0.00  0.00    +0.000 A 
ATOM      8  N   UNL     1      -8.879   5.792 133.176  0.00  0.00    +0.000 NA
ATOM      9  C   UNL     1      -9.385   6.085 131.958  0.00  0.00    +0.000 A 
ATOM     10  C   UNL     1     -10.735   6.456 131.805  0.00  0.00    +0.000 A 
ENDROOT
BRANCH   2  11
ATOM     11  C   UNL     1     -10.960   7.364 128.096  0.00  0.00    +0.000 C 
ATOM     12  N   UNL     1     -11.359   8.663 128.058  0.00  0.00    +0.000 N 
ATOM     13  O   UNL     1     -10.996   6.738 127.045  0.00  0.00    +0.000 OA
ATOM     14  H   UNL     1     -11.481   9.240 128.868  0.00  0.00    +0.000 HD
ATOM     15  H   UNL     1     -11.662   9.042 127.173  0.00  0.00    +0.000 HD
ENDBRANCH   2  11
BRANCH   1  17
ATOM     16  C   UNL     1     -13.047   8.046 131.547  0.00  0.00    +0.000 C 
ATOM     17  O   UNL     1     -12.656   7.090 130.549  0.00  0.00    +0.000 OA
ENDBRANCH   1  17
BRANCH   5  18
ATOM     18  O   UNL     1      -6.232   5.645 129.949  0.00  0.00    +0.000 OA
BRANCH  18  19
ATOM     19  C   UNL     1      -6.039   4.547 129.146  0.00  0.00    +0.000 A 
ATOM     20  C   UNL     1      -6.751   3.353 129.255  0.00  0.00    +0.000 A 
ATOM     21  C   UNL     1      -6.325   2.198 128.540  0.00  0.00    +0.000 A 
ATOM     22  C   UNL     1      -5.211   2.219 127.649  0.00  0.00    +0.000 A 
ATOM     23  C   UNL     1      -4.565   3.491 127.512  0.00  0.00    +0.000 A 
ATOM     24 CL   UNL     1      -3.179   3.988 126.592  0.00  0.00    +0.000 Cl
ATOM     25  C   UNL     1      -4.989   4.612 128.252  0.00  0.00    +0.000 A 
BRANCH  22  26
ATOM     26  N   UNL     1      -4.822   0.929 127.071  0.00  0.00    +0.000 N 
ATOM     27  C   UNL     1      -5.396   0.380 125.958  0.00  0.00    +0.000 C 
ATOM     28  O   UNL     1      -6.105   1.033 125.198  0.00  0.00    +0.000 OA
ATOM     29  N   UNL     1      -5.232  -0.951 125.676  0.00  0.00    +0.000 N 
ATOM     30  H   UNL     1      -3.992   0.471 127.437  0.00  0.00    +0.000 HD
ATOM     31  H   UNL     1      -4.365  -1.423 125.909  0.00  0.00    +0.000 HD
BRANCH  29  32
ATOM     32  C   UNL     1      -6.041  -1.538 124.592  0.00  0.00    +0.000 C 
ATOM     33  C   UNL     1      -5.428  -2.602 123.711  0.00  0.00    +0.000 C 
ATOM     34  C   UNL     1      -6.555  -2.984 124.609  0.00  0.00    +0.000 C 
ENDBRANCH  29  32
ENDBRANCH  22  26
ENDBRANCH  18  19
ENDBRANCH   5  18
TORSDOF 6
ENDMDL
MODEL 7
REMARK VINA RESULT:      -7.5      3.195      5.263
REMARK  Name = Lenvatinib
REMARK  7 active torsions:
REMARK  status: ('A' for Active; 'I' for Inactive)
REMARK    1  A    between atoms: C_1  and  O_2
REMARK    2  A    between atoms: O_2  and  C_3
REMARK    3  A    between atoms: C_4  and  C_28
REMARK    4  A    between atoms: C_7  and  O_8
REMARK    5  A    between atoms: O_8  and  C_9
REMARK    6  A    between atoms: C_12  and  N_13
REMARK    7  A    between atoms: N_16  and  C_17
REMARK                            x       y       z     vdW  Elec       q    Type
REMARK                         _______ _______ _______ _____ _____    ______ ____
ROOT
ATOM      1  C   UNL     1      -8.620   1.880 123.212  0.00  0.00    +0.000 A 
ATOM      2  C   UNL     1      -7.545   1.772 124.069  0.00  0.00    +0.000 A 
ATOM      3  C   UNL     1      -7.148   0.477 124.377  0.00  0.00    +0.000 A 
ATOM      4  C   UNL     1      -7.884  -0.706 124.138  0.00  0.00    +0.000 A 
ATOM      5  C   UNL     1      -7.560  -1.997 124.655  0.00  0.00    +0.000 A 
ATOM      6  C   UNL     1      -8.328  -3.098 124.263  0.00  0.00    +0.000 A 
ATOM      7  C   UNL     1      -9.404  -2.875 123.429  0.00  0.00    +0.000 A 
ATOM      8  N   UNL     1      -9.767  -1.649 122.980  0.00  0.00    +0.000 NA
ATOM      9  C   UNL     1      -9.024  -0.576 123.332  0.00  0.00    +0.000 A 
ATOM     10  C   UNL     1      -9.353   0.714 122.871  0.00  0.00    +0.000 A 
ENDROOT
BRANCH   2  11
ATOM     11  C   UNL     1      -6.856   2.946 124.718  0.00  0.00    +0.000 C 
ATOM     12  N   UNL     1      -7.597   4.046 125.019  0.00  0.00    +0.000 N 
ATOM     13  O   UNL     1      -5.660   2.992 124.975  0.00  0.00    +0.000 OA
ATOM     14  H   UNL     1      -8.556   4.169 124.754  0.00  0.00    +0.000 HD
ATOM     15  H   UNL     1      -7.128   4.837 125.433  0.00  0.00    +0.000 HD
ENDBRANCH   2  11
BRANCH   1  17
ATOM     16  C   UNL     1      -8.439   3.355 121.385  0.00  0.00    +0.000 C 
ATOM     17  O   UNL     1      -9.029   3.063 122.662  0.00  0.00    +0.000 OA
ENDBRANCH   1  17
BRANCH   5  18
ATOM     18  O   UNL     1      -6.554  -2.340 125.558  0.00  0.00    +0.000 OA
BRANCH  18  19
ATOM     19  C   UNL     1      -6.652  -2.053 126.898  0.00  0.00    +0.000 A 
ATOM     20  C   UNL     1      -7.582  -2.627 127.764  0.00  0.00    +0.000 A 
ATOM     21  C   UNL     1      -7.761  -2.100 129.074  0.00  0.00    +0.000 A 
ATOM     22  C   UNL     1      -6.974  -1.022 129.578  0.00  0.00    +0.000 A 
ATOM     23  C   UNL     1      -5.978  -0.523 128.676  0.00  0.00    +0.000 A 
ATOM     24 CL   UNL     1      -4.832   0.773 128.826  0.00  0.00    +0.000 Cl
ATOM     25  C   UNL     1      -5.839  -1.044 127.375  0.00  0.00    +0.000 A 
BRANCH  22  26
ATOM     26  N   UNL     1      -7.347  -0.513 130.901  0.00  0.00    +0.000 N 
ATOM     27  C   UNL     1      -7.817   0.749 131.135  0.00  0.00    +0.000 C 
ATOM     28  O   UNL     1      -8.210   1.480 130.230  0.00  0.00    +0.000 OA
ATOM     29  N   UNL     1      -7.821   1.265 132.404  0.00  0.00    +0.000 N 
ATOM     30  H   UNL     1      -7.384  -1.171 131.674  0.00  0.00    +0.000 HD
ATOM     31  H   UNL     1      -7.982   0.663 133.204  0.00  0.00    +0.000 HD
BRANCH  29  32
ATOM     32  C   UNL     1      -8.132   2.697 132.573  0.00  0.00    +0.000 C 
ATOM     33  C   UNL     1      -9.281   3.098 133.469  0.00  0.00    +0.000 C 
ATOM     34  C   UNL     1      -7.897   3.464 133.881  0.00  0.00    +0.000 C 
ENDBRANCH  29  32
ENDBRANCH  22  26
ENDBRANCH  18  19
ENDBRANCH   5  18
TORSDOF 6
ENDMDL
MODEL 8
REMARK VINA RESULT:      -7.4      4.652      7.005
REMARK  Name = Lenvatinib
REMARK  7 active torsions:
REMARK  status: ('A' for Active; 'I' for Inactive)
REMARK    1  A    between atoms: C_1  and  O_2
REMARK    2  A    between atoms: O_2  and  C_3
REMARK    3  A    between atoms: C_4  and  C_28
REMARK    4  A    between atoms: C_7  and  O_8
REMARK    5  A    between atoms: O_8  and  C_9
REMARK    6  A    between atoms: C_12  and  N_13
REMARK    7  A    between atoms: N_16  and  C_17
REMARK                            x       y       z     vdW  Elec       q    Type
REMARK                         _______ _______ _______ _____ _____    ______ ____
ROOT
ATOM      1  C   UNL     1      -2.219   5.641 131.083  0.00  0.00    +0.000 A 
ATOM      2  C   UNL     1      -3.204   5.490 130.130  0.00  0.00    +0.000 A 
ATOM      3  C   UNL     1      -4.196   4.565 130.430  0.00  0.00    +0.000 A 
ATOM      4  C   UNL     1      -4.151   3.586 131.448  0.00  0.00    +0.000 A 
ATOM      5  C   UNL     1      -5.078   2.510 131.600  0.00  0.00    +0.000 A 
ATOM      6  C   UNL     1      -4.963   1.667 132.709  0.00  0.00    +0.000 A 
ATOM      7  C   UNL     1      -3.919   1.883 133.585  0.00  0.00    +0.000 A 
ATOM      8  N   UNL     1      -2.992   2.858 133.424  0.00  0.00    +0.000 NA
ATOM      9  C   UNL     1      -3.098   3.696 132.369  0.00  0.00    +0.000 A 
ATOM     10  C   UNL     1      -2.168   4.735 132.174  0.00  0.00    +0.000 A 
ENDROOT
BRANCH   2  11
ATOM     11  C   UNL     1      -3.214   6.200 128.799  0.00  0.00    +0.000 C 
ATOM     12  N   UNL     1      -2.022   6.467 128.200  0.00  0.00    +0.000 N 
ATOM     13  O   UNL     1      -4.225   6.580 128.224  0.00  0.00    +0.000 OA
ATOM     14  H   UNL     1      -1.129   6.308 128.626  0.00  0.00    +0.000 HD
ATOM     15  H   UNL     1      -2.032   6.962 127.321  0.00  0.00    +0.000 HD
ENDBRANCH   2  11
BRANCH   1  17
ATOM     16  C   UNL     1      -0.587   6.842 132.282  0.00  0.00    +0.000 C 
ATOM     17  O   UNL     1      -1.273   6.627 131.039  0.00  0.00    +0.000 OA
ENDBRANCH   1  17
BRANCH   5  18
ATOM     18  O   UNL     1      -6.120   2.140 130.751  0.00  0.00    +0.000 OA
BRANCH  18  19
ATOM     19  C   UNL     1      -7.362   2.720 130.830  0.00  0.00    +0.000 A 
ATOM     20  C   UNL     1      -8.495   2.259 130.160  0.00  0.00    +0.000 A 
ATOM     21  C   UNL     1      -9.675   3.054 130.117  0.00  0.00    +0.000 A 
ATOM     22  C   UNL     1      -9.777   4.306 130.792  0.00  0.00    +0.000 A 
ATOM     23  C   UNL     1      -8.613   4.696 131.532  0.00  0.00    +0.000 A 
ATOM     24 CL   UNL     1      -8.259   6.119 132.463  0.00  0.00    +0.000 Cl
ATOM     25  C   UNL     1      -7.448   3.903 131.536  0.00  0.00    +0.000 A 
BRANCH  22  26
ATOM     26  N   UNL     1     -11.011   5.064 130.564  0.00  0.00    +0.000 N 
ATOM     27  C   UNL     1     -11.096   6.178 129.776  0.00  0.00    +0.000 C 
ATOM     28  O   UNL     1     -10.209   6.491 128.988  0.00  0.00    +0.000 OA
ATOM     29  N   UNL     1     -12.172   7.020 129.877  0.00  0.00    +0.000 N 
ATOM     30  H   UNL     1     -11.884   4.671 130.905  0.00  0.00    +0.000 HD
ATOM     31  H   UNL     1     -13.094   6.654 130.090  0.00  0.00    +0.000 HD
BRANCH  29  32
ATOM     32  C   UNL     1     -12.115   8.311 129.167  0.00  0.00    +0.000 C 
ATOM     33  C   UNL     1     -13.317   8.768 128.374  0.00  0.00    +0.000 C 
ATOM     34  C   UNL     1     -12.929   9.543 129.586  0.00  0.00    +0.000 C 
ENDBRANCH  29  32
ENDBRANCH  22  26
ENDBRANCH  18  19
ENDBRANCH   5  18
TORSDOF 6
ENDMDL
MODEL 9
REMARK VINA RESULT:      -7.3      2.058      3.315
REMARK  Name = Lenvatinib
REMARK  7 active torsions:
REMARK  status: ('A' for Active; 'I' for Inactive)
REMARK    1  A    between atoms: C_1  and  O_2
REMARK    2  A    between atoms: O_2  and  C_3
REMARK    3  A    between atoms: C_4  and  C_28
REMARK    4  A    between atoms: C_7  and  O_8
REMARK    5  A    between atoms: O_8  and  C_9
REMARK    6  A    between atoms: C_12  and  N_13
REMARK    7  A    between atoms: N_16  and  C_17
REMARK                            x       y       z     vdW  Elec       q    Type
REMARK                         _______ _______ _______ _____ _____    ______ ____
ROOT
ATOM      1  C   UNL     1      -7.111  -1.984 126.406  0.00  0.00    +0.000 A 
ATOM      2  C   UNL     1      -7.556  -1.896 127.708  0.00  0.00    +0.000 A 
ATOM      3  C   UNL     1      -7.334  -0.678 128.339  0.00  0.00    +0.000 A 
ATOM      4  C   UNL     1      -6.473   0.352 127.897  0.00  0.00    +0.000 A 
ATOM      5  C   UNL     1      -6.092   1.495 128.664  0.00  0.00    +0.000 A 
ATOM      6  C   UNL     1      -5.304   2.482 128.066  0.00  0.00    +0.000 A 
ATOM      7  C   UNL     1      -4.883   2.279 126.767  0.00  0.00    +0.000 A 
ATOM      8  N   UNL     1      -5.179   1.172 126.045  0.00  0.00    +0.000 NA
ATOM      9  C   UNL     1      -5.957   0.216 126.599  0.00  0.00    +0.000 A 
ATOM     10  C   UNL     1      -6.307  -0.942 125.877  0.00  0.00    +0.000 A 
ENDROOT
BRANCH   2  11
ATOM     11  C   UNL     1      -8.180  -3.037 128.471  0.00  0.00    +0.000 C 
ATOM     12  N   UNL     1      -8.994  -3.895 127.800  0.00  0.00    +0.000 N 
ATOM     13  O   UNL     1      -8.028  -3.234 129.669  0.00  0.00    +0.000 OA
ATOM     14  H   UNL     1      -9.285  -3.770 126.850  0.00  0.00    +0.000 HD
ATOM     15  H   UNL     1      -9.428  -4.644 128.320  0.00  0.00    +0.000 HD
ENDBRANCH   2  11
BRANCH   1  17
ATOM     16  C   UNL     1      -8.192  -2.678 124.432  0.00  0.00    +0.000 C 
ATOM     17  O   UNL     1      -7.405  -3.033 125.579  0.00  0.00    +0.000 OA
ENDBRANCH   1  17
BRANCH   5  18
ATOM     18  O   UNL     1      -6.385   1.779 129.998  0.00  0.00    +0.000 OA
BRANCH  18  19
ATOM     19  C   UNL     1      -7.463   2.550 130.357  0.00  0.00    +0.000 A 
ATOM     20  C   UNL     1      -8.796   2.174 130.186  0.00  0.00    +0.000 A 
ATOM     21  C   UNL     1      -9.837   3.127 130.371  0.00  0.00    +0.000 A 
ATOM     22  C   UNL     1      -9.581   4.466 130.789  0.00  0.00    +0.000 A 
ATOM     23  C   UNL     1      -8.203   4.777 131.029  0.00  0.00    +0.000 A 
ATOM     24 CL   UNL     1      -7.417   6.250 131.507  0.00  0.00    +0.000 Cl
ATOM     25  C   UNL     1      -7.188   3.823 130.813  0.00  0.00    +0.000 A 
BRANCH  22  26
ATOM     26  N   UNL     1     -10.740   5.363 130.827  0.00  0.00    +0.000 N 
ATOM     27  C   UNL     1     -11.041   6.273 129.853  0.00  0.00    +0.000 C 
ATOM     28  O   UNL     1     -10.517   6.242 128.743  0.00  0.00    +0.000 OA
ATOM     29  N   UNL     1     -11.919   7.296 130.103  0.00  0.00    +0.000 N 
ATOM     30  H   UNL     1     -11.436   5.217 131.554  0.00  0.00    +0.000 HD
ATOM     31  H   UNL     1     -12.707   7.156 130.726  0.00  0.00    +0.000 HD
BRANCH  29  32
ATOM     32  C   UNL     1     -12.045   8.367 129.098  0.00  0.00    +0.000 C 
ATOM     33  C   UNL     1     -13.302   8.449 128.264  0.00  0.00    +0.000 C 
ATOM     34  C   UNL     1     -13.021   9.544 129.235  0.00  0.00    +0.000 C 
ENDBRANCH  29  32
ENDBRANCH  22  26
ENDBRANCH  18  19
ENDBRANCH   5  18
TORSDOF 6
ENDMDL
