MODEL 1
REMARK VINA RESULT:      -8.4      0.000      0.000
REMARK  Name = Lercanidipine
REMARK  20 active torsions:
REMARK  status: ('A' for Active; 'I' for Inactive)
REMARK    1  A    between atoms: C_1  and  O_2
REMARK    2  A    between atoms: O_2  and  C_3
REMARK    3  A    between atoms: C_3  and  C_5
REMARK    4  A    between atoms: C_6  and  C_7
REMARK    5  A    between atoms: C_9  and  C_10
REMARK    6  A    between atoms: C_11  and  C_22
REMARK    7  A    between atoms: C_12  and  C_13
REMARK    8  A    between atoms: C_15  and  N_19
REMARK    9  A    between atoms: C_22  and  O_24
REMARK   10  A    between atoms: O_24  and  C_25
REMARK   11  A    between atoms: C_25  and  C_26
REMARK   12  A    between atoms: C_25  and  C_27
REMARK   13  A    between atoms: C_25  and  C_28
REMARK   14  A    between atoms: C_28  and  N_29
REMARK   15  A    between atoms: N_29  and  C_30
REMARK   16  A    between atoms: N_29  and  C_31
REMARK   17  A    between atoms: C_31  and  C_32
REMARK   18  A    between atoms: C_32  and  C_33
REMARK   19  A    between atoms: C_33  and  C_34
REMARK   20  A    between atoms: C_33  and  C_40
REMARK                            x       y       z     vdW  Elec       q    Type
REMARK                         _______ _______ _______ _____ _____    ______ ____
ROOT
ATOM      1  C   UNL     1      -4.138   2.451 129.049  0.00  0.00    +0.000 C 
ATOM      2  O   UNL     1      -3.963   1.279 129.342  0.00  0.00    +0.000 OA
ENDROOT
BRANCH   1   9
ATOM      3  C   UNL     1      -6.437   3.597 126.063  0.00  0.00    +0.000 C 
ATOM      4  C   UNL     1      -5.443   3.867 125.185  0.00  0.00    +0.000 C 
ATOM      5  C   UNL     1      -5.577   4.610 123.887  0.00  0.00    +0.000 C 
ATOM      6  N   UNL     1      -4.148   3.482 125.485  0.00  0.00    +0.000 N 
ATOM      7  C   UNL     1      -3.715   3.141 126.752  0.00  0.00    +0.000 C 
ATOM      8  C   UNL     1      -2.211   3.149 126.939  0.00  0.00    +0.000 C 
ATOM      9  C   UNL     1      -4.632   2.838 127.710  0.00  0.00    +0.000 C 
ATOM     10  C   UNL     1      -6.126   2.827 127.358  0.00  0.00    +0.000 C 
ATOM     11  H   UNL     1      -3.433   3.629 124.776  0.00  0.00    +0.000 HD
BRANCH  10  12
ATOM     12  C   UNL     1      -6.577   1.371 127.197  0.00  0.00    +0.000 A 
ATOM     13  C   UNL     1      -6.140   0.591 126.123  0.00  0.00    +0.000 A 
ATOM     14  C   UNL     1      -6.736  -0.660 125.904  0.00  0.00    +0.000 A 
ATOM     15  C   UNL     1      -7.654  -1.199 126.817  0.00  0.00    +0.000 A 
ATOM     16  C   UNL     1      -8.054  -0.443 127.911  0.00  0.00    +0.000 A 
ATOM     17  C   UNL     1      -7.533   0.833 128.087  0.00  0.00    +0.000 A 
BRANCH  14  18
ATOM     18  N   UNL     1      -6.506  -1.356 124.632  0.00  0.00    +0.000 N 
ATOM     19  O   UNL     1      -5.374  -1.813 124.419  0.00  0.00    +0.000 OA
ATOM     20  O   UNL     1      -7.445  -1.402 123.824  0.00  0.00    +0.000 OA
ENDBRANCH  14  18
ENDBRANCH  10  12
BRANCH   3  21
ATOM     21  C   UNL     1      -7.848   4.045 125.890  0.00  0.00    +0.000 C 
ATOM     22  O   UNL     1      -8.198   5.193 126.050  0.00  0.00    +0.000 OA
BRANCH  21  24
ATOM     23  C   UNL     1      -8.687   2.654 124.179  0.00  0.00    +0.000 C 
ATOM     24  O   UNL     1      -8.664   3.002 125.570  0.00  0.00    +0.000 OA
ENDBRANCH  21  24
ENDBRANCH   3  21
ENDBRANCH   1   9
BRANCH   1  25
ATOM     25  O   UNL     1      -3.866   3.483 129.904  0.00  0.00    +0.000 OA
BRANCH  25  26
ATOM     26  C   UNL     1      -4.904   3.702 130.923  0.00  0.00    +0.000 C 
ATOM     27  C   UNL     1      -5.864   2.492 131.002  0.00  0.00    +0.000 C 
ATOM     28  C   UNL     1      -4.191   4.019 132.249  0.00  0.00    +0.000 C 
BRANCH  26  29
ATOM     29  C   UNL     1      -5.777   4.925 130.515  0.00  0.00    +0.000 C 
BRANCH  29  30
ATOM     30  N   UNL     1      -5.511   6.184 131.280  0.00  0.00    +0.000 NA
ATOM     31  C   UNL     1      -5.016   7.321 130.537  0.00  0.00    +0.000 C 
BRANCH  30  32
ATOM     32  C   UNL     1      -6.742   6.608 131.919  0.00  0.00    +0.000 C 
BRANCH  32  33
ATOM     33  C   UNL     1      -7.950   6.451 131.002  0.00  0.00    +0.000 C 
BRANCH  33  34
ATOM     34  C   UNL     1      -9.305   6.218 131.687  0.00  0.00    +0.000 C 
BRANCH  34  35
ATOM     35  C   UNL     1     -10.475   6.843 130.905  0.00  0.00    +0.000 A 
ATOM     36  C   UNL     1     -10.300   7.507 129.694  0.00  0.00    +0.000 A 
ATOM     37  C   UNL     1     -11.346   8.227 129.107  0.00  0.00    +0.000 A 
ATOM     38  C   UNL     1     -12.623   8.231 129.655  0.00  0.00    +0.000 A 
ATOM     39  C   UNL     1     -12.852   7.516 130.796  0.00  0.00    +0.000 A 
ATOM     40  C   UNL     1     -11.802   6.813 131.348  0.00  0.00    +0.000 A 
ENDBRANCH  34  35
BRANCH  34  41
ATOM     41  C   UNL     1      -9.474   4.687 131.886  0.00  0.00    +0.000 A 
ATOM     42  C   UNL     1      -9.220   4.039 133.113  0.00  0.00    +0.000 A 
ATOM     43  C   UNL     1      -9.096   2.654 133.181  0.00  0.00    +0.000 A 
ATOM     44  C   UNL     1      -9.301   1.885 132.041  0.00  0.00    +0.000 A 
ATOM     45  C   UNL     1      -9.630   2.502 130.836  0.00  0.00    +0.000 A 
ATOM     46  C   UNL     1      -9.754   3.888 130.768  0.00  0.00    +0.000 A 
ENDBRANCH  34  41
ENDBRANCH  33  34
ENDBRANCH  32  33
ENDBRANCH  30  32
ENDBRANCH  29  30
ENDBRANCH  26  29
ENDBRANCH  25  26
ENDBRANCH   1  25
TORSDOF 14
ENDMDL
MODEL 2
REMARK VINA RESULT:      -8.3      3.279      6.454
REMARK  Name = Lercanidipine
REMARK  20 active torsions:
REMARK  status: ('A' for Active; 'I' for Inactive)
REMARK    1  A    between atoms: C_1  and  O_2
REMARK    2  A    between atoms: O_2  and  C_3
REMARK    3  A    between atoms: C_3  and  C_5
REMARK    4  A    between atoms: C_6  and  C_7
REMARK    5  A    between atoms: C_9  and  C_10
REMARK    6  A    between atoms: C_11  and  C_22
REMARK    7  A    between atoms: C_12  and  C_13
REMARK    8  A    between atoms: C_15  and  N_19
REMARK    9  A    between atoms: C_22  and  O_24
REMARK   10  A    between atoms: O_24  and  C_25
REMARK   11  A    between atoms: C_25  and  C_26
REMARK   12  A    between atoms: C_25  and  C_27
REMARK   13  A    between atoms: C_25  and  C_28
REMARK   14  A    between atoms: C_28  and  N_29
REMARK   15  A    between atoms: N_29  and  C_30
REMARK   16  A    between atoms: N_29  and  C_31
REMARK   17  A    between atoms: C_31  and  C_32
REMARK   18  A    between atoms: C_32  and  C_33
REMARK   19  A    between atoms: C_33  and  C_34
REMARK   20  A    between atoms: C_33  and  C_40
REMARK                            x       y       z     vdW  Elec       q    Type
REMARK                         _______ _______ _______ _____ _____    ______ ____
ROOT
ATOM      1  C   UNL     1      -5.954  -2.239 128.549  0.00  0.00    +0.000 C 
ATOM      2  O   UNL     1      -4.754  -2.462 128.591  0.00  0.00    +0.000 OA
ENDROOT
BRANCH   1   9
ATOM      3  C   UNL     1      -6.913  -2.293 124.728  0.00  0.00    +0.000 C 
ATOM      4  C   UNL     1      -8.137  -2.850 124.875  0.00  0.00    +0.000 C 
ATOM      5  C   UNL     1      -8.997  -3.414 123.781  0.00  0.00    +0.000 C 
ATOM      6  N   UNL     1      -8.679  -2.978 126.142  0.00  0.00    +0.000 N 
ATOM      7  C   UNL     1      -7.946  -2.894 127.310  0.00  0.00    +0.000 C 
ATOM      8  C   UNL     1      -8.631  -3.457 128.539  0.00  0.00    +0.000 C 
ATOM      9  C   UNL     1      -6.704  -2.338 127.278  0.00  0.00    +0.000 C 
ATOM     10  C   UNL     1      -6.159  -1.767 125.963  0.00  0.00    +0.000 C 
ATOM     11  H   UNL     1      -9.630  -3.330 126.218  0.00  0.00    +0.000 HD
BRANCH  10  12
ATOM     12  C   UNL     1      -6.276  -0.239 126.010  0.00  0.00    +0.000 A 
ATOM     13  C   UNL     1      -7.506   0.399 125.824  0.00  0.00    +0.000 A 
ATOM     14  C   UNL     1      -7.532   1.794 125.671  0.00  0.00    +0.000 A 
ATOM     15  C   UNL     1      -6.374   2.566 125.841  0.00  0.00    +0.000 A 
ATOM     16  C   UNL     1      -5.159   1.935 126.073  0.00  0.00    +0.000 A 
ATOM     17  C   UNL     1      -5.111   0.548 126.139  0.00  0.00    +0.000 A 
BRANCH  14  18
ATOM     18  N   UNL     1      -8.755   2.444 125.186  0.00  0.00    +0.000 N 
ATOM     19  O   UNL     1      -8.748   3.677 125.071  0.00  0.00    +0.000 OA
ATOM     20  O   UNL     1      -9.740   1.724 124.967  0.00  0.00    +0.000 OA
ENDBRANCH  14  18
ENDBRANCH  10  12
BRANCH   3  21
ATOM     21  C   UNL     1      -6.193  -2.189 123.428  0.00  0.00    +0.000 C 
ATOM     22  O   UNL     1      -6.704  -1.741 122.426  0.00  0.00    +0.000 OA
BRANCH  21  24
ATOM     23  C   UNL     1      -4.845  -4.113 123.643  0.00  0.00    +0.000 C 
ATOM     24  O   UNL     1      -4.927  -2.687 123.521  0.00  0.00    +0.000 OA
ENDBRANCH  21  24
ENDBRANCH   3  21
ENDBRANCH   1   9
BRANCH   1  25
ATOM     25  O   UNL     1      -6.681  -1.855 129.641  0.00  0.00    +0.000 OA
BRANCH  25  26
ATOM     26  C   UNL     1      -6.348  -2.593 130.869  0.00  0.00    +0.000 C 
ATOM     27  C   UNL     1      -7.496  -2.495 131.900  0.00  0.00    +0.000 C 
ATOM     28  C   UNL     1      -6.000  -4.036 130.462  0.00  0.00    +0.000 C 
BRANCH  26  29
ATOM     29  C   UNL     1      -5.102  -1.945 131.540  0.00  0.00    +0.000 C 
BRANCH  29  30
ATOM     30  N   UNL     1      -5.170  -0.460 131.715  0.00  0.00    +0.000 NA
ATOM     31  C   UNL     1      -5.170   0.052 133.067  0.00  0.00    +0.000 C 
BRANCH  30  32
ATOM     32  C   UNL     1      -4.033   0.139 131.043  0.00  0.00    +0.000 C 
BRANCH  32  33
ATOM     33  C   UNL     1      -4.116   1.662 131.016  0.00  0.00    +0.000 C 
BRANCH  33  34
ATOM     34  C   UNL     1      -4.438   2.307 129.660  0.00  0.00    +0.000 C 
BRANCH  34  35
ATOM     35  C   UNL     1      -5.936   2.624 129.501  0.00  0.00    +0.000 A 
ATOM     36  C   UNL     1      -6.920   1.640 129.523  0.00  0.00    +0.000 A 
ATOM     37  C   UNL     1      -8.245   1.934 129.186  0.00  0.00    +0.000 A 
ATOM     38  C   UNL     1      -8.652   3.233 128.907  0.00  0.00    +0.000 A 
ATOM     39  C   UNL     1      -7.731   4.239 128.962  0.00  0.00    +0.000 A 
ATOM     40  C   UNL     1      -6.434   3.917 129.302  0.00  0.00    +0.000 A 
ENDBRANCH  34  35
BRANCH  34  41
ATOM     41  C   UNL     1      -3.544   3.569 129.516  0.00  0.00    +0.000 A 
ATOM     42  C   UNL     1      -3.279   4.449 130.586  0.00  0.00    +0.000 A 
ATOM     43  C   UNL     1      -2.729   5.708 130.360  0.00  0.00    +0.000 A 
ATOM     44  C   UNL     1      -2.362   6.081 129.072  0.00  0.00    +0.000 A 
ATOM     45  C   UNL     1      -2.546   5.195 128.013  0.00  0.00    +0.000 A 
ATOM     46  C   UNL     1      -3.095   3.935 128.238  0.00  0.00    +0.000 A 
ENDBRANCH  34  41
ENDBRANCH  33  34
ENDBRANCH  32  33
ENDBRANCH  30  32
ENDBRANCH  29  30
ENDBRANCH  26  29
ENDBRANCH  25  26
ENDBRANCH   1  25
TORSDOF 14
ENDMDL
MODEL 3
REMARK VINA RESULT:      -8.3      3.202      6.619
REMARK  Name = Lercanidipine
REMARK  20 active torsions:
REMARK  status: ('A' for Active; 'I' for Inactive)
REMARK    1  A    between atoms: C_1  and  O_2
REMARK    2  A    between atoms: O_2  and  C_3
REMARK    3  A    between atoms: C_3  and  C_5
REMARK    4  A    between atoms: C_6  and  C_7
REMARK    5  A    between atoms: C_9  and  C_10
REMARK    6  A    between atoms: C_11  and  C_22
REMARK    7  A    between atoms: C_12  and  C_13
REMARK    8  A    between atoms: C_15  and  N_19
REMARK    9  A    between atoms: C_22  and  O_24
REMARK   10  A    between atoms: O_24  and  C_25
REMARK   11  A    between atoms: C_25  and  C_26
REMARK   12  A    between atoms: C_25  and  C_27
REMARK   13  A    between atoms: C_25  and  C_28
REMARK   14  A    between atoms: C_28  and  N_29
REMARK   15  A    between atoms: N_29  and  C_30
REMARK   16  A    between atoms: N_29  and  C_31
REMARK   17  A    between atoms: C_31  and  C_32
REMARK   18  A    between atoms: C_32  and  C_33
REMARK   19  A    between atoms: C_33  and  C_34
REMARK   20  A    between atoms: C_33  and  C_40
REMARK                            x       y       z     vdW  Elec       q    Type
REMARK                         _______ _______ _______ _____ _____    ______ ____
ROOT
ATOM      1  C   UNL     1      -6.164  -2.129 128.635  0.00  0.00    +0.000 C 
ATOM      2  O   UNL     1      -6.830  -1.985 129.648  0.00  0.00    +0.000 OA
ENDROOT
BRANCH   1   9
ATOM      3  C   UNL     1      -6.825  -2.387 124.760  0.00  0.00    +0.000 C 
ATOM      4  C   UNL     1      -8.024  -3.008 124.840  0.00  0.00    +0.000 C 
ATOM      5  C   UNL     1      -8.766  -3.662 123.711  0.00  0.00    +0.000 C 
ATOM      6  N   UNL     1      -8.654  -3.116 126.068  0.00  0.00    +0.000 N 
ATOM      7  C   UNL     1      -8.017  -2.945 127.283  0.00  0.00    +0.000 C 
ATOM      8  C   UNL     1      -8.763  -3.498 128.481  0.00  0.00    +0.000 C 
ATOM      9  C   UNL     1      -6.809  -2.321 127.318  0.00  0.00    +0.000 C 
ATOM     10  C   UNL     1      -6.196  -1.772 126.023  0.00  0.00    +0.000 C 
ATOM     11  H   UNL     1      -9.587  -3.519 126.088  0.00  0.00    +0.000 HD
BRANCH  10  12
ATOM     12  C   UNL     1      -6.399  -0.252 125.995  0.00  0.00    +0.000 A 
ATOM     13  C   UNL     1      -7.649   0.307 125.712  0.00  0.00    +0.000 A 
ATOM     14  C   UNL     1      -7.742   1.690 125.495  0.00  0.00    +0.000 A 
ATOM     15  C   UNL     1      -6.640   2.534 125.695  0.00  0.00    +0.000 A 
ATOM     16  C   UNL     1      -5.408   1.983 126.023  0.00  0.00    +0.000 A 
ATOM     17  C   UNL     1      -5.288   0.605 126.154  0.00  0.00    +0.000 A 
BRANCH  14  18
ATOM     18  N   UNL     1      -8.969   2.248 124.913  0.00  0.00    +0.000 N 
ATOM     19  O   UNL     1      -9.012   3.472 124.723  0.00  0.00    +0.000 OA
ATOM     20  O   UNL     1      -9.907   1.470 124.693  0.00  0.00    +0.000 OA
ENDBRANCH  14  18
ENDBRANCH  10  12
BRANCH   3  21
ATOM     21  C   UNL     1      -6.014  -2.293 123.513  0.00  0.00    +0.000 C 
ATOM     22  O   UNL     1      -6.437  -1.807 122.489  0.00  0.00    +0.000 OA
BRANCH  21  24
ATOM     23  C   UNL     1      -4.742  -4.279 123.597  0.00  0.00    +0.000 C 
ATOM     24  O   UNL     1      -4.780  -2.848 123.681  0.00  0.00    +0.000 OA
ENDBRANCH  21  24
ENDBRANCH   3  21
ENDBRANCH   1   9
BRANCH   1  25
ATOM     25  O   UNL     1      -4.797  -2.155 128.639  0.00  0.00    +0.000 OA
BRANCH  25  26
ATOM     26  C   UNL     1      -4.221  -3.108 129.600  0.00  0.00    +0.000 C 
ATOM     27  C   UNL     1      -5.321  -4.002 130.217  0.00  0.00    +0.000 C 
ATOM     28  C   UNL     1      -3.118  -3.893 128.869  0.00  0.00    +0.000 C 
BRANCH  26  29
ATOM     29  C   UNL     1      -3.581  -2.324 130.783  0.00  0.00    +0.000 C 
BRANCH  29  30
ATOM     30  N   UNL     1      -4.502  -1.390 131.504  0.00  0.00    +0.000 NA
ATOM     31  C   UNL     1      -4.787  -1.675 132.892  0.00  0.00    +0.000 C 
BRANCH  30  32
ATOM     32  C   UNL     1      -3.936  -0.055 131.461  0.00  0.00    +0.000 C 
BRANCH  32  33
ATOM     33  C   UNL     1      -4.310   0.688 130.183  0.00  0.00    +0.000 C 
BRANCH  33  34
ATOM     34  C   UNL     1      -4.755   2.149 130.345  0.00  0.00    +0.000 C 
BRANCH  34  35
ATOM     35  C   UNL     1      -4.112   3.078 129.299  0.00  0.00    +0.000 A 
ATOM     36  C   UNL     1      -4.588   4.360 129.037  0.00  0.00    +0.000 A 
ATOM     37  C   UNL     1      -4.107   5.103 127.953  0.00  0.00    +0.000 A 
ATOM     38  C   UNL     1      -3.071   4.634 127.155  0.00  0.00    +0.000 A 
ATOM     39  C   UNL     1      -2.518   3.418 127.438  0.00  0.00    +0.000 A 
ATOM     40  C   UNL     1      -3.012   2.713 128.515  0.00  0.00    +0.000 A 
ENDBRANCH  34  35
BRANCH  34  41
ATOM     41  C   UNL     1      -6.307   2.178 130.291  0.00  0.00    +0.000 A 
ATOM     42  C   UNL     1      -7.053   1.515 129.294  0.00  0.00    +0.000 A 
ATOM     43  C   UNL     1      -8.403   1.797 129.102  0.00  0.00    +0.000 A 
ATOM     44  C   UNL     1      -9.050   2.688 129.950  0.00  0.00    +0.000 A 
ATOM     45  C   UNL     1      -8.348   3.295 130.989  0.00  0.00    +0.000 A 
ATOM     46  C   UNL     1      -6.997   3.012 131.182  0.00  0.00    +0.000 A 
ENDBRANCH  34  41
ENDBRANCH  33  34
ENDBRANCH  32  33
ENDBRANCH  30  32
ENDBRANCH  29  30
ENDBRANCH  26  29
ENDBRANCH  25  26
ENDBRANCH   1  25
TORSDOF 14
ENDMDL
MODEL 4
REMARK VINA RESULT:      -8.3      1.906      4.434
REMARK  Name = Lercanidipine
REMARK  20 active torsions:
REMARK  status: ('A' for Active; 'I' for Inactive)
REMARK    1  A    between atoms: C_1  and  O_2
REMARK    2  A    between atoms: O_2  and  C_3
REMARK    3  A    between atoms: C_3  and  C_5
REMARK    4  A    between atoms: C_6  and  C_7
REMARK    5  A    between atoms: C_9  and  C_10
REMARK    6  A    between atoms: C_11  and  C_22
REMARK    7  A    between atoms: C_12  and  C_13
REMARK    8  A    between atoms: C_15  and  N_19
REMARK    9  A    between atoms: C_22  and  O_24
REMARK   10  A    between atoms: O_24  and  C_25
REMARK   11  A    between atoms: C_25  and  C_26
REMARK   12  A    between atoms: C_25  and  C_27
REMARK   13  A    between atoms: C_25  and  C_28
REMARK   14  A    between atoms: C_28  and  N_29
REMARK   15  A    between atoms: N_29  and  C_30
REMARK   16  A    between atoms: N_29  and  C_31
REMARK   17  A    between atoms: C_31  and  C_32
REMARK   18  A    between atoms: C_32  and  C_33
REMARK   19  A    between atoms: C_33  and  C_34
REMARK   20  A    between atoms: C_33  and  C_40
REMARK                            x       y       z     vdW  Elec       q    Type
REMARK                         _______ _______ _______ _____ _____    ______ ____
ROOT
ATOM      1  C   UNL     1      -6.005   1.066 127.754  0.00  0.00    +0.000 C 
ATOM      2  O   UNL     1      -4.879   1.038 128.226  0.00  0.00    +0.000 OA
ENDROOT
BRANCH   1   9
ATOM      3  C   UNL     1      -6.648  -1.699 125.023  0.00  0.00    +0.000 C 
ATOM      4  C   UNL     1      -7.428  -2.502 125.783  0.00  0.00    +0.000 C 
ATOM      5  C   UNL     1      -7.840  -3.909 125.462  0.00  0.00    +0.000 C 
ATOM      6  N   UNL     1      -7.883  -2.046 127.009  0.00  0.00    +0.000 N 
ATOM      7  C   UNL     1      -7.341  -0.969 127.684  0.00  0.00    +0.000 C 
ATOM      8  C   UNL     1      -7.698  -0.890 129.155  0.00  0.00    +0.000 C 
ATOM      9  C   UNL     1      -6.550  -0.091 127.011  0.00  0.00    +0.000 C 
ATOM     10  C   UNL     1      -6.313  -0.277 125.506  0.00  0.00    +0.000 C 
ATOM     11  H   UNL     1      -8.529  -2.638 127.525  0.00  0.00    +0.000 HD
BRANCH  10  12
ATOM     12  C   UNL     1      -7.188   0.729 124.748  0.00  0.00    +0.000 A 
ATOM     13  C   UNL     1      -8.568   0.543 124.627  0.00  0.00    +0.000 A 
ATOM     14  C   UNL     1      -9.293   1.372 123.758  0.00  0.00    +0.000 A 
ATOM     15  C   UNL     1      -8.687   2.465 123.122  0.00  0.00    +0.000 A 
ATOM     16  C   UNL     1      -7.324   2.679 123.279  0.00  0.00    +0.000 A 
ATOM     17  C   UNL     1      -6.583   1.810 124.070  0.00  0.00    +0.000 A 
BRANCH  14  18
ATOM     18  N   UNL     1     -10.668   1.010 123.394  0.00  0.00    +0.000 N 
ATOM     19  O   UNL     1     -10.844   0.414 122.322  0.00  0.00    +0.000 OA
ATOM     20  O   UNL     1     -11.577   1.366 124.157  0.00  0.00    +0.000 OA
ENDBRANCH  14  18
ENDBRANCH  10  12
BRANCH   3  21
ATOM     21  C   UNL     1      -6.026  -2.117 123.735  0.00  0.00    +0.000 C 
ATOM     22  O   UNL     1      -6.597  -2.032 122.671  0.00  0.00    +0.000 OA
BRANCH  21  24
ATOM     23  C   UNL     1      -4.626  -4.011 123.604  0.00  0.00    +0.000 C 
ATOM     24  O   UNL     1      -4.775  -2.623 123.929  0.00  0.00    +0.000 OA
ENDBRANCH  21  24
ENDBRANCH   3  21
ENDBRANCH   1   9
BRANCH   1  25
ATOM     25  O   UNL     1      -6.825   2.156 127.843  0.00  0.00    +0.000 OA
BRANCH  25  26
ATOM     26  C   UNL     1      -6.185   3.419 127.445  0.00  0.00    +0.000 C 
ATOM     27  C   UNL     1      -4.932   3.153 126.579  0.00  0.00    +0.000 C 
ATOM     28  C   UNL     1      -7.253   4.279 126.747  0.00  0.00    +0.000 C 
BRANCH  26  29
ATOM     29  C   UNL     1      -5.686   4.168 128.716  0.00  0.00    +0.000 C 
BRANCH  29  30
ATOM     30  N   UNL     1      -6.587   4.076 129.908  0.00  0.00    +0.000 NA
ATOM     31  C   UNL     1      -6.135   3.277 131.024  0.00  0.00    +0.000 C 
BRANCH  30  32
ATOM     32  C   UNL     1      -6.817   5.414 130.419  0.00  0.00    +0.000 C 
BRANCH  32  33
ATOM     33  C   UNL     1      -8.199   5.942 130.049  0.00  0.00    +0.000 C 
BRANCH  33  34
ATOM     34  C   UNL     1      -9.204   6.099 131.200  0.00  0.00    +0.000 C 
BRANCH  34  35
ATOM     35  C   UNL     1     -10.472   6.860 130.773  0.00  0.00    +0.000 A 
ATOM     36  C   UNL     1     -11.668   6.785 131.481  0.00  0.00    +0.000 A 
ATOM     37  C   UNL     1     -12.849   7.330 130.966  0.00  0.00    +0.000 A 
ATOM     38  C   UNL     1     -12.859   8.047 129.776  0.00  0.00    +0.000 A 
ATOM     39  C   UNL     1     -11.686   8.216 129.098  0.00  0.00    +0.000 A 
ATOM     40  C   UNL     1     -10.538   7.671 129.635  0.00  0.00    +0.000 A 
ENDBRANCH  34  35
BRANCH  34  41
ATOM     41  C   UNL     1      -9.518   4.679 131.747  0.00  0.00    +0.000 A 
ATOM     42  C   UNL     1      -9.168   4.263 133.049  0.00  0.00    +0.000 A 
ATOM     43  C   UNL     1      -9.197   2.917 133.403  0.00  0.00    +0.000 A 
ATOM     44  C   UNL     1      -9.647   1.971 132.489  0.00  0.00    +0.000 A 
ATOM     45  C   UNL     1     -10.070   2.373 131.224  0.00  0.00    +0.000 A 
ATOM     46  C   UNL     1     -10.043   3.720 130.869  0.00  0.00    +0.000 A 
ENDBRANCH  34  41
ENDBRANCH  33  34
ENDBRANCH  32  33
ENDBRANCH  30  32
ENDBRANCH  29  30
ENDBRANCH  26  29
ENDBRANCH  25  26
ENDBRANCH   1  25
TORSDOF 14
ENDMDL
MODEL 5
REMARK VINA RESULT:      -8.3      2.931      8.244
REMARK  Name = Lercanidipine
REMARK  20 active torsions:
REMARK  status: ('A' for Active; 'I' for Inactive)
REMARK    1  A    between atoms: C_1  and  O_2
REMARK    2  A    between atoms: O_2  and  C_3
REMARK    3  A    between atoms: C_3  and  C_5
REMARK    4  A    between atoms: C_6  and  C_7
REMARK    5  A    between atoms: C_9  and  C_10
REMARK    6  A    between atoms: C_11  and  C_22
REMARK    7  A    between atoms: C_12  and  C_13
REMARK    8  A    between atoms: C_15  and  N_19
REMARK    9  A    between atoms: C_22  and  O_24
REMARK   10  A    between atoms: O_24  and  C_25
REMARK   11  A    between atoms: C_25  and  C_26
REMARK   12  A    between atoms: C_25  and  C_27
REMARK   13  A    between atoms: C_25  and  C_28
REMARK   14  A    between atoms: C_28  and  N_29
REMARK   15  A    between atoms: N_29  and  C_30
REMARK   16  A    between atoms: N_29  and  C_31
REMARK   17  A    between atoms: C_31  and  C_32
REMARK   18  A    between atoms: C_32  and  C_33
REMARK   19  A    between atoms: C_33  and  C_34
REMARK   20  A    between atoms: C_33  and  C_40
REMARK                            x       y       z     vdW  Elec       q    Type
REMARK                         _______ _______ _______ _____ _____    ______ ____
ROOT
ATOM      1  C   UNL     1      -4.327   4.869 127.721  0.00  0.00    +0.000 C 
ATOM      2  O   UNL     1      -5.133   5.681 127.297  0.00  0.00    +0.000 OA
ENDROOT
BRANCH   1   9
ATOM      3  C   UNL     1      -3.430   4.240 131.506  0.00  0.00    +0.000 C 
ATOM      4  C   UNL     1      -2.404   5.119 131.579  0.00  0.00    +0.000 C 
ATOM      5  C   UNL     1      -1.399   5.226 132.689  0.00  0.00    +0.000 C 
ATOM      6  N   UNL     1      -2.188   6.001 130.534  0.00  0.00    +0.000 N 
ATOM      7  C   UNL     1      -2.718   5.846 129.267  0.00  0.00    +0.000 C 
ATOM      8  C   UNL     1      -2.047   6.669 128.186  0.00  0.00    +0.000 C 
ATOM      9  C   UNL     1      -3.763   4.994 129.084  0.00  0.00    +0.000 C 
ATOM     10  C   UNL     1      -4.369   4.260 130.287  0.00  0.00    +0.000 C 
ATOM     11  H   UNL     1      -1.458   6.700 130.647  0.00  0.00    +0.000 HD
BRANCH  10  12
ATOM     12  C   UNL     1      -5.679   4.959 130.673  0.00  0.00    +0.000 A 
ATOM     13  C   UNL     1      -6.885   4.255 130.733  0.00  0.00    +0.000 A 
ATOM     14  C   UNL     1      -8.082   4.970 130.888  0.00  0.00    +0.000 A 
ATOM     15  C   UNL     1      -8.079   6.352 131.124  0.00  0.00    +0.000 A 
ATOM     16  C   UNL     1      -6.876   7.045 131.112  0.00  0.00    +0.000 A 
ATOM     17  C   UNL     1      -5.693   6.357 130.872  0.00  0.00    +0.000 A 
BRANCH  14  18
ATOM     18  N   UNL     1      -9.363   4.290 130.658  0.00  0.00    +0.000 N 
ATOM     19  O   UNL     1     -10.064   4.683 129.715  0.00  0.00    +0.000 OA
ATOM     20  O   UNL     1      -9.691   3.397 131.452  0.00  0.00    +0.000 OA
ENDBRANCH  14  18
ENDBRANCH  10  12
BRANCH   3  21
ATOM     21  C   UNL     1      -3.701   3.186 132.524  0.00  0.00    +0.000 C 
ATOM     22  O   UNL     1      -3.414   2.022 132.358  0.00  0.00    +0.000 OA
BRANCH  21  24
ATOM     23  C   UNL     1      -3.819   3.251 134.880  0.00  0.00    +0.000 C 
ATOM     24  O   UNL     1      -4.329   3.703 133.618  0.00  0.00    +0.000 OA
ENDBRANCH  21  24
ENDBRANCH   3  21
ENDBRANCH   1   9
BRANCH   1  25
ATOM     25  O   UNL     1      -3.863   3.819 126.980  0.00  0.00    +0.000 OA
BRANCH  25  26
ATOM     26  C   UNL     1      -4.925   2.973 126.413  0.00  0.00    +0.000 C 
ATOM     27  C   UNL     1      -5.367   3.498 125.027  0.00  0.00    +0.000 C 
ATOM     28  C   UNL     1      -4.403   1.526 126.393  0.00  0.00    +0.000 C 
BRANCH  26  29
ATOM     29  C   UNL     1      -6.183   3.043 127.327  0.00  0.00    +0.000 C 
BRANCH  29  30
ATOM     30  N   UNL     1      -6.807   1.723 127.658  0.00  0.00    +0.000 NA
ATOM     31  C   UNL     1      -7.148   1.476 129.041  0.00  0.00    +0.000 C 
BRANCH  30  32
ATOM     32  C   UNL     1      -8.033   1.586 126.896  0.00  0.00    +0.000 C 
BRANCH  32  33
ATOM     33  C   UNL     1      -7.970   0.425 125.908  0.00  0.00    +0.000 C 
BRANCH  33  34
ATOM     34  C   UNL     1      -7.053  -0.747 126.286  0.00  0.00    +0.000 C 
BRANCH  34  35
ATOM     35  C   UNL     1      -7.795  -1.846 127.069  0.00  0.00    +0.000 A 
ATOM     36  C   UNL     1      -7.515  -2.143 128.399  0.00  0.00    +0.000 A 
ATOM     37  C   UNL     1      -8.067  -3.267 129.022  0.00  0.00    +0.000 A 
ATOM     38  C   UNL     1      -8.989  -4.078 128.371  0.00  0.00    +0.000 A 
ATOM     39  C   UNL     1      -9.356  -3.765 127.094  0.00  0.00    +0.000 A 
ATOM     40  C   UNL     1      -8.797  -2.648 126.510  0.00  0.00    +0.000 A 
ENDBRANCH  34  35
BRANCH  34  41
ATOM     41  C   UNL     1      -6.409  -1.282 124.978  0.00  0.00    +0.000 A 
ATOM     42  C   UNL     1      -6.824  -0.872 123.694  0.00  0.00    +0.000 A 
ATOM     43  C   UNL     1      -6.437  -1.575 122.556  0.00  0.00    +0.000 A 
ATOM     44  C   UNL     1      -5.568  -2.654 122.673  0.00  0.00    +0.000 A 
ATOM     45  C   UNL     1      -5.085  -3.026 123.925  0.00  0.00    +0.000 A 
ATOM     46  C   UNL     1      -5.471  -2.322 125.064  0.00  0.00    +0.000 A 
ENDBRANCH  34  41
ENDBRANCH  33  34
ENDBRANCH  32  33
ENDBRANCH  30  32
ENDBRANCH  29  30
ENDBRANCH  26  29
ENDBRANCH  25  26
ENDBRANCH   1  25
TORSDOF 14
ENDMDL
MODEL 6
REMARK VINA RESULT:      -8.2      3.349      7.655
REMARK  Name = Lercanidipine
REMARK  20 active torsions:
REMARK  status: ('A' for Active; 'I' for Inactive)
REMARK    1  A    between atoms: C_1  and  O_2
REMARK    2  A    between atoms: O_2  and  C_3
REMARK    3  A    between atoms: C_3  and  C_5
REMARK    4  A    between atoms: C_6  and  C_7
REMARK    5  A    between atoms: C_9  and  C_10
REMARK    6  A    between atoms: C_11  and  C_22
REMARK    7  A    between atoms: C_12  and  C_13
REMARK    8  A    between atoms: C_15  and  N_19
REMARK    9  A    between atoms: C_22  and  O_24
REMARK   10  A    between atoms: O_24  and  C_25
REMARK   11  A    between atoms: C_25  and  C_26
REMARK   12  A    between atoms: C_25  and  C_27
REMARK   13  A    between atoms: C_25  and  C_28
REMARK   14  A    between atoms: C_28  and  N_29
REMARK   15  A    between atoms: N_29  and  C_30
REMARK   16  A    between atoms: N_29  and  C_31
REMARK   17  A    between atoms: C_31  and  C_32
REMARK   18  A    between atoms: C_32  and  C_33
REMARK   19  A    between atoms: C_33  and  C_34
REMARK   20  A    between atoms: C_33  and  C_40
REMARK                            x       y       z     vdW  Elec       q    Type
REMARK                         _______ _______ _______ _____ _____    ______ ____
ROOT
ATOM      1  C   UNL     1      -5.806   3.878 133.405  0.00  0.00    +0.000 C 
ATOM      2  O   UNL     1      -4.714   4.410 133.530  0.00  0.00    +0.000 OA
ENDROOT
BRANCH   1   9
ATOM      3  C   UNL     1      -8.551   5.103 130.859  0.00  0.00    +0.000 C 
ATOM      4  C   UNL     1      -9.306   5.787 131.749  0.00  0.00    +0.000 C 
ATOM      5  C   UNL     1     -10.692   6.317 131.521  0.00  0.00    +0.000 C 
ATOM      6  N   UNL     1      -8.819   6.010 133.025  0.00  0.00    +0.000 N 
ATOM      7  C   UNL     1      -7.768   5.309 133.586  0.00  0.00    +0.000 C 
ATOM      8  C   UNL     1      -7.660   5.415 135.094  0.00  0.00    +0.000 C 
ATOM      9  C   UNL     1      -6.937   4.596 132.779  0.00  0.00    +0.000 C 
ATOM     10  C   UNL     1      -7.145   4.621 131.259  0.00  0.00    +0.000 C 
ATOM     11  H   UNL     1      -9.373   6.590 133.650  0.00  0.00    +0.000 HD
BRANCH  10  12
ATOM     12  C   UNL     1      -6.099   5.556 130.640  0.00  0.00    +0.000 A 
ATOM     13  C   UNL     1      -5.141   5.078 129.741  0.00  0.00    +0.000 A 
ATOM     14  C   UNL     1      -4.085   5.919 129.362  0.00  0.00    +0.000 A 
ATOM     15  C   UNL     1      -4.050   7.265 129.754  0.00  0.00    +0.000 A 
ATOM     16  C   UNL     1      -5.029   7.754 130.610  0.00  0.00    +0.000 A 
ATOM     17  C   UNL     1      -6.030   6.903 131.059  0.00  0.00    +0.000 A 
BRANCH  14  18
ATOM     18  N   UNL     1      -2.924   5.351 128.665  0.00  0.00    +0.000 N 
ATOM     19  O   UNL     1      -2.111   6.139 128.161  0.00  0.00    +0.000 OA
ATOM     20  O   UNL     1      -2.852   4.117 128.579  0.00  0.00    +0.000 OA
ENDBRANCH  14  18
ENDBRANCH  10  12
BRANCH   3  21
ATOM     21  C   UNL     1      -9.009   4.724 129.492  0.00  0.00    +0.000 C 
ATOM     22  O   UNL     1      -8.985   5.489 128.555  0.00  0.00    +0.000 OA
BRANCH  21  24
ATOM     23  C   UNL     1      -8.614   2.499 128.813  0.00  0.00    +0.000 C 
ATOM     24  O   UNL     1      -9.476   3.443 129.463  0.00  0.00    +0.000 OA
ENDBRANCH  21  24
ENDBRANCH   3  21
ENDBRANCH   1   9
BRANCH   1  25
ATOM     25  O   UNL     1      -6.077   2.615 133.853  0.00  0.00    +0.000 OA
BRANCH  25  26
ATOM     26  C   UNL     1      -5.705   1.553 132.905  0.00  0.00    +0.000 C 
ATOM     27  C   UNL     1      -4.517   1.996 132.019  0.00  0.00    +0.000 C 
ATOM     28  C   UNL     1      -5.430   0.279 133.722  0.00  0.00    +0.000 C 
BRANCH  26  29
ATOM     29  C   UNL     1      -6.895   1.284 131.937  0.00  0.00    +0.000 C 
BRANCH  29  30
ATOM     30  N   UNL     1      -8.182   0.901 132.598  0.00  0.00    +0.000 NA
ATOM     31  C   UNL     1      -9.277   1.841 132.515  0.00  0.00    +0.000 C 
BRANCH  30  32
ATOM     32  C   UNL     1      -8.652  -0.339 132.013  0.00  0.00    +0.000 C 
BRANCH  32  33
ATOM     33  C   UNL     1      -7.956  -0.653 130.692  0.00  0.00    +0.000 C 
BRANCH  33  34
ATOM     34  C   UNL     1      -7.780  -2.139 130.346  0.00  0.00    +0.000 C 
BRANCH  34  35
ATOM     35  C   UNL     1      -8.046  -2.431 128.857  0.00  0.00    +0.000 A 
ATOM     36  C   UNL     1      -7.764  -1.514 127.849  0.00  0.00    +0.000 A 
ATOM     37  C   UNL     1      -8.192  -1.730 126.534  0.00  0.00    +0.000 A 
ATOM     38  C   UNL     1      -8.830  -2.907 126.163  0.00  0.00    +0.000 A 
ATOM     39  C   UNL     1      -9.044  -3.868 127.109  0.00  0.00    +0.000 A 
ATOM     40  C   UNL     1      -8.606  -3.627 128.394  0.00  0.00    +0.000 A 
ENDBRANCH  34  35
BRANCH  34  41
ATOM     41  C   UNL     1      -6.352  -2.559 130.788  0.00  0.00    +0.000 A 
ATOM     42  C   UNL     1      -5.228  -1.718 130.654  0.00  0.00    +0.000 A 
ATOM     43  C   UNL     1      -3.936  -2.221 130.782  0.00  0.00    +0.000 A 
ATOM     44  C   UNL     1      -3.745  -3.556 131.122  0.00  0.00    +0.000 A 
ATOM     45  C   UNL     1      -4.845  -4.384 131.334  0.00  0.00    +0.000 A 
ATOM     46  C   UNL     1      -6.138  -3.880 131.207  0.00  0.00    +0.000 A 
ENDBRANCH  34  41
ENDBRANCH  33  34
ENDBRANCH  32  33
ENDBRANCH  30  32
ENDBRANCH  29  30
ENDBRANCH  26  29
ENDBRANCH  25  26
ENDBRANCH   1  25
TORSDOF 14
ENDMDL
MODEL 7
REMARK VINA RESULT:      -8.1      2.967      8.517
REMARK  Name = Lercanidipine
REMARK  20 active torsions:
REMARK  status: ('A' for Active; 'I' for Inactive)
REMARK    1  A    between atoms: C_1  and  O_2
REMARK    2  A    between atoms: O_2  and  C_3
REMARK    3  A    between atoms: C_3  and  C_5
REMARK    4  A    between atoms: C_6  and  C_7
REMARK    5  A    between atoms: C_9  and  C_10
REMARK    6  A    between atoms: C_11  and  C_22
REMARK    7  A    between atoms: C_12  and  C_13
REMARK    8  A    between atoms: C_15  and  N_19
REMARK    9  A    between atoms: C_22  and  O_24
REMARK   10  A    between atoms: O_24  and  C_25
REMARK   11  A    between atoms: C_25  and  C_26
REMARK   12  A    between atoms: C_25  and  C_27
REMARK   13  A    between atoms: C_25  and  C_28
REMARK   14  A    between atoms: C_28  and  N_29
REMARK   15  A    between atoms: N_29  and  C_30
REMARK   16  A    between atoms: N_29  and  C_31
REMARK   17  A    between atoms: C_31  and  C_32
REMARK   18  A    between atoms: C_32  and  C_33
REMARK   19  A    between atoms: C_33  and  C_34
REMARK   20  A    between atoms: C_33  and  C_40
REMARK                            x       y       z     vdW  Elec       q    Type
REMARK                         _______ _______ _______ _____ _____    ______ ____
ROOT
ATOM      1  C   UNL     1      -4.593   4.683 129.118  0.00  0.00    +0.000 C 
ATOM      2  O   UNL     1      -3.884   3.708 128.929  0.00  0.00    +0.000 OA
ENDROOT
BRANCH   1   9
ATOM      3  C   UNL     1      -3.905   6.461 132.565  0.00  0.00    +0.000 C 
ATOM      4  C   UNL     1      -3.291   7.558 132.064  0.00  0.00    +0.000 C 
ATOM      5  C   UNL     1      -2.511   8.578 132.843  0.00  0.00    +0.000 C 
ATOM      6  N   UNL     1      -3.315   7.787 130.699  0.00  0.00    +0.000 N 
ATOM      7  C   UNL     1      -3.623   6.824 129.757  0.00  0.00    +0.000 C 
ATOM      8  C   UNL     1      -3.202   7.156 128.340  0.00  0.00    +0.000 C 
ATOM      9  C   UNL     1      -4.253   5.685 130.153  0.00  0.00    +0.000 C 
ATOM     10  C   UNL     1      -4.659   5.508 131.622  0.00  0.00    +0.000 C 
ATOM     11  H   UNL     1      -2.912   8.656 130.357  0.00  0.00    +0.000 HD
BRANCH  10  12
ATOM     12  C   UNL     1      -6.165   5.768 131.745  0.00  0.00    +0.000 A 
ATOM     13  C   UNL     1      -7.003   4.872 132.415  0.00  0.00    +0.000 A 
ATOM     14  C   UNL     1      -8.393   5.043 132.326  0.00  0.00    +0.000 A 
ATOM     15  C   UNL     1      -8.948   6.169 131.701  0.00  0.00    +0.000 A 
ATOM     16  C   UNL     1      -8.113   7.085 131.074  0.00  0.00    +0.000 A 
ATOM     17  C   UNL     1      -6.740   6.875 131.083  0.00  0.00    +0.000 A 
BRANCH  14  18
ATOM     18  N   UNL     1      -9.283   3.963 132.767  0.00  0.00    +0.000 N 
ATOM     19  O   UNL     1      -9.376   3.751 133.985  0.00  0.00    +0.000 OA
ATOM     20  O   UNL     1      -9.851   3.293 131.893  0.00  0.00    +0.000 OA
ENDBRANCH  14  18
ENDBRANCH  10  12
BRANCH   3  21
ATOM     21  C   UNL     1      -3.864   6.065 134.001  0.00  0.00    +0.000 C 
ATOM     22  O   UNL     1      -4.421   6.693 134.873  0.00  0.00    +0.000 OA
BRANCH  21  24
ATOM     23  C   UNL     1      -3.753   3.887 134.901  0.00  0.00    +0.000 C 
ATOM     24  O   UNL     1      -3.105   4.947 134.186  0.00  0.00    +0.000 OA
ENDBRANCH  21  24
ENDBRANCH   3  21
ENDBRANCH   1   9
BRANCH   1  25
ATOM     25  O   UNL     1      -5.751   4.910 128.428  0.00  0.00    +0.000 OA
BRANCH  25  26
ATOM     26  C   UNL     1      -6.714   3.800 128.497  0.00  0.00    +0.000 C 
ATOM     27  C   UNL     1      -6.302   2.779 129.583  0.00  0.00    +0.000 C 
ATOM     28  C   UNL     1      -8.109   4.411 128.715  0.00  0.00    +0.000 C 
BRANCH  26  29
ATOM     29  C   UNL     1      -6.708   3.026 127.146  0.00  0.00    +0.000 C 
BRANCH  29  30
ATOM     30  N   UNL     1      -8.049   2.851 126.504  0.00  0.00    +0.000 NA
ATOM     31  C   UNL     1      -8.106   2.894 125.060  0.00  0.00    +0.000 C 
BRANCH  30  32
ATOM     32  C   UNL     1      -8.590   1.566 126.904  0.00  0.00    +0.000 C 
BRANCH  32  33
ATOM     33  C   UNL     1      -8.281   0.470 125.889  0.00  0.00    +0.000 C 
BRANCH  33  34
ATOM     34  C   UNL     1      -7.251  -0.587 126.314  0.00  0.00    +0.000 C 
BRANCH  34  35
ATOM     35  C   UNL     1      -7.875  -1.706 127.168  0.00  0.00    +0.000 A 
ATOM     36  C   UNL     1      -7.664  -1.812 128.539  0.00  0.00    +0.000 A 
ATOM     37  C   UNL     1      -8.084  -2.941 129.250  0.00  0.00    +0.000 A 
ATOM     38  C   UNL     1      -8.810  -3.956 128.639  0.00  0.00    +0.000 A 
ATOM     39  C   UNL     1      -9.112  -3.842 127.312  0.00  0.00    +0.000 A 
ATOM     40  C   UNL     1      -8.688  -2.716 126.640  0.00  0.00    +0.000 A 
ENDBRANCH  34  35
BRANCH  34  41
ATOM     41  C   UNL     1      -6.574  -1.130 125.025  0.00  0.00    +0.000 A 
ATOM     42  C   UNL     1      -7.061  -0.859 123.730  0.00  0.00    +0.000 A 
ATOM     43  C   UNL     1      -6.617  -1.588 122.630  0.00  0.00    +0.000 A 
ATOM     44  C   UNL     1      -5.624  -2.547 122.791  0.00  0.00    +0.000 A 
ATOM     45  C   UNL     1      -5.075  -2.775 124.052  0.00  0.00    +0.000 A 
ATOM     46  C   UNL     1      -5.519  -2.045 125.153  0.00  0.00    +0.000 A 
ENDBRANCH  34  41
ENDBRANCH  33  34
ENDBRANCH  32  33
ENDBRANCH  30  32
ENDBRANCH  29  30
ENDBRANCH  26  29
ENDBRANCH  25  26
ENDBRANCH   1  25
TORSDOF 14
ENDMDL
MODEL 8
REMARK VINA RESULT:      -8.1      2.794      8.310
REMARK  Name = Lercanidipine
REMARK  20 active torsions:
REMARK  status: ('A' for Active; 'I' for Inactive)
REMARK    1  A    between atoms: C_1  and  O_2
REMARK    2  A    between atoms: O_2  and  C_3
REMARK    3  A    between atoms: C_3  and  C_5
REMARK    4  A    between atoms: C_6  and  C_7
REMARK    5  A    between atoms: C_9  and  C_10
REMARK    6  A    between atoms: C_11  and  C_22
REMARK    7  A    between atoms: C_12  and  C_13
REMARK    8  A    between atoms: C_15  and  N_19
REMARK    9  A    between atoms: C_22  and  O_24
REMARK   10  A    between atoms: O_24  and  C_25
REMARK   11  A    between atoms: C_25  and  C_26
REMARK   12  A    between atoms: C_25  and  C_27
REMARK   13  A    between atoms: C_25  and  C_28
REMARK   14  A    between atoms: C_28  and  N_29
REMARK   15  A    between atoms: N_29  and  C_30
REMARK   16  A    between atoms: N_29  and  C_31
REMARK   17  A    between atoms: C_31  and  C_32
REMARK   18  A    between atoms: C_32  and  C_33
REMARK   19  A    between atoms: C_33  and  C_34
REMARK   20  A    between atoms: C_33  and  C_40
REMARK                            x       y       z     vdW  Elec       q    Type
REMARK                         _______ _______ _______ _____ _____    ______ ____
ROOT
ATOM      1  C   UNL     1      -6.313   3.776 127.878  0.00  0.00    +0.000 C 
ATOM      2  O   UNL     1      -5.878   4.865 127.540  0.00  0.00    +0.000 OA
ENDROOT
BRANCH   1   9
ATOM      3  C   UNL     1      -7.475   2.421 131.391  0.00  0.00    +0.000 C 
ATOM      4  C   UNL     1      -6.247   2.347 131.952  0.00  0.00    +0.000 C 
ATOM      5  C   UNL     1      -5.892   1.651 133.234  0.00  0.00    +0.000 C 
ATOM      6  N   UNL     1      -5.165   2.915 131.300  0.00  0.00    +0.000 N 
ATOM      7  C   UNL     1      -5.162   3.263 129.963  0.00  0.00    +0.000 C 
ATOM      8  C   UNL     1      -3.789   3.479 129.360  0.00  0.00    +0.000 C 
ATOM      9  C   UNL     1      -6.347   3.377 129.303  0.00  0.00    +0.000 C 
ATOM     10  C   UNL     1      -7.665   3.172 130.060  0.00  0.00    +0.000 C 
ATOM     11  H   UNL     1      -4.268   2.912 131.779  0.00  0.00    +0.000 HD
BRANCH  10  12
ATOM     12  C   UNL     1      -8.282   4.546 130.343  0.00  0.00    +0.000 A 
ATOM     13  C   UNL     1      -9.586   4.852 129.941  0.00  0.00    +0.000 A 
ATOM     14  C   UNL     1     -10.034   6.178 130.036  0.00  0.00    +0.000 A 
ATOM     15  C   UNL     1      -9.255   7.166 130.654  0.00  0.00    +0.000 A 
ATOM     16  C   UNL     1      -7.977   6.852 131.097  0.00  0.00    +0.000 A 
ATOM     17  C   UNL     1      -7.493   5.561 130.927  0.00  0.00    +0.000 A 
BRANCH  14  18
ATOM     18  N   UNL     1     -11.273   6.571 129.355  0.00  0.00    +0.000 N 
ATOM     19  O   UNL     1     -12.157   5.713 129.221  0.00  0.00    +0.000 OA
ATOM     20  O   UNL     1     -11.343   7.726 128.911  0.00  0.00    +0.000 OA
ENDBRANCH  14  18
ENDBRANCH  10  12
BRANCH   3  21
ATOM     21  C   UNL     1      -8.691   1.768 131.953  0.00  0.00    +0.000 C 
ATOM     22  O   UNL     1      -9.297   2.212 132.901  0.00  0.00    +0.000 OA
BRANCH  21  24
ATOM     23  C   UNL     1      -8.534  -0.586 131.920  0.00  0.00    +0.000 C 
ATOM     24  O   UNL     1      -8.989   0.617 131.286  0.00  0.00    +0.000 OA
ENDBRANCH  21  24
ENDBRANCH   3  21
ENDBRANCH   1   9
BRANCH   1  25
ATOM     25  O   UNL     1      -6.765   2.842 126.988  0.00  0.00    +0.000 OA
BRANCH  25  26
ATOM     26  C   UNL     1      -5.714   2.280 126.128  0.00  0.00    +0.000 C 
ATOM     27  C   UNL     1      -4.561   3.292 125.931  0.00  0.00    +0.000 C 
ATOM     28  C   UNL     1      -5.270   0.945 126.752  0.00  0.00    +0.000 C 
BRANCH  26  29
ATOM     29  C   UNL     1      -6.298   2.004 124.711  0.00  0.00    +0.000 C 
BRANCH  29  30
ATOM     30  N   UNL     1      -7.783   2.150 124.592  0.00  0.00    +0.000 NA
ATOM     31  C   UNL     1      -8.282   3.086 123.610  0.00  0.00    +0.000 C 
BRANCH  30  32
ATOM     32  C   UNL     1      -8.351   0.858 124.262  0.00  0.00    +0.000 C 
BRANCH  32  33
ATOM     33  C   UNL     1      -8.652   0.027 125.506  0.00  0.00    +0.000 C 
BRANCH  33  34
ATOM     34  C   UNL     1      -8.636  -1.499 125.331  0.00  0.00    +0.000 C 
BRANCH  34  35
ATOM     35  C   UNL     1      -7.460  -1.978 124.460  0.00  0.00    +0.000 A 
ATOM     36  C   UNL     1      -6.283  -2.490 125.000  0.00  0.00    +0.000 A 
ATOM     37  C   UNL     1      -5.165  -2.735 124.195  0.00  0.00    +0.000 A 
ATOM     38  C   UNL     1      -5.212  -2.570 122.817  0.00  0.00    +0.000 A 
ATOM     39  C   UNL     1      -6.379  -2.154 122.242  0.00  0.00    +0.000 A 
ATOM     40  C   UNL     1      -7.464  -1.924 123.062  0.00  0.00    +0.000 A 
ENDBRANCH  34  35
BRANCH  34  41
ATOM     41  C   UNL     1      -8.623  -2.135 126.748  0.00  0.00    +0.000 A 
ATOM     42  C   UNL     1      -7.897  -1.590 127.828  0.00  0.00    +0.000 A 
ATOM     43  C   UNL     1      -7.670  -2.330 128.985  0.00  0.00    +0.000 A 
ATOM     44  C   UNL     1      -8.228  -3.596 129.117  0.00  0.00    +0.000 A 
ATOM     45  C   UNL     1      -9.013  -4.120 128.092  0.00  0.00    +0.000 A 
ATOM     46  C   UNL     1      -9.241  -3.380 126.934  0.00  0.00    +0.000 A 
ENDBRANCH  34  41
ENDBRANCH  33  34
ENDBRANCH  32  33
ENDBRANCH  30  32
ENDBRANCH  29  30
ENDBRANCH  26  29
ENDBRANCH  25  26
ENDBRANCH   1  25
TORSDOF 14
ENDMDL
MODEL 9
REMARK VINA RESULT:      -8.1      2.765      7.856
REMARK  Name = Lercanidipine
REMARK  20 active torsions:
REMARK  status: ('A' for Active; 'I' for Inactive)
REMARK    1  A    between atoms: C_1  and  O_2
REMARK    2  A    between atoms: O_2  and  C_3
REMARK    3  A    between atoms: C_3  and  C_5
REMARK    4  A    between atoms: C_6  and  C_7
REMARK    5  A    between atoms: C_9  and  C_10
REMARK    6  A    between atoms: C_11  and  C_22
REMARK    7  A    between atoms: C_12  and  C_13
REMARK    8  A    between atoms: C_15  and  N_19
REMARK    9  A    between atoms: C_22  and  O_24
REMARK   10  A    between atoms: O_24  and  C_25
REMARK   11  A    between atoms: C_25  and  C_26
REMARK   12  A    between atoms: C_25  and  C_27
REMARK   13  A    between atoms: C_25  and  C_28
REMARK   14  A    between atoms: C_28  and  N_29
REMARK   15  A    between atoms: N_29  and  C_30
REMARK   16  A    between atoms: N_29  and  C_31
REMARK   17  A    between atoms: C_31  and  C_32
REMARK   18  A    between atoms: C_32  and  C_33
REMARK   19  A    between atoms: C_33  and  C_34
REMARK   20  A    between atoms: C_33  and  C_40
REMARK                            x       y       z     vdW  Elec       q    Type
REMARK                         _______ _______ _______ _____ _____    ______ ____
ROOT
ATOM      1  C   UNL     1      -4.612   4.774 127.575  0.00  0.00    +0.000 C 
ATOM      2  O   UNL     1      -4.785   5.845 127.016  0.00  0.00    +0.000 OA
ENDROOT
BRANCH   1   9
ATOM      3  C   UNL     1      -4.001   3.696 131.315  0.00  0.00    +0.000 C 
ATOM      4  C   UNL     1      -2.906   4.462 131.529  0.00  0.00    +0.000 C 
ATOM      5  C   UNL     1      -1.963   4.364 132.693  0.00  0.00    +0.000 C 
ATOM      6  N   UNL     1      -2.551   5.417 130.592  0.00  0.00    +0.000 N 
ATOM      7  C   UNL     1      -3.017   5.438 129.292  0.00  0.00    +0.000 C 
ATOM      8  C   UNL     1      -2.212   6.296 128.336  0.00  0.00    +0.000 C 
ATOM      9  C   UNL     1      -4.121   4.711 128.969  0.00  0.00    +0.000 C 
ATOM     10  C   UNL     1      -4.860   3.924 130.059  0.00  0.00    +0.000 C 
ATOM     11  H   UNL     1      -1.770   6.030 130.813  0.00  0.00    +0.000 HD
BRANCH  10  12
ATOM     12  C   UNL     1      -6.123   4.702 130.449  0.00  0.00    +0.000 A 
ATOM     13  C   UNL     1      -7.397   4.159 130.259  0.00  0.00    +0.000 A 
ATOM     14  C   UNL     1      -8.520   4.981 130.437  0.00  0.00    +0.000 A 
ATOM     15  C   UNL     1      -8.395   6.285 130.936  0.00  0.00    +0.000 A 
ATOM     16  C   UNL     1      -7.131   6.810 131.170  0.00  0.00    +0.000 A 
ATOM     17  C   UNL     1      -6.010   6.031 130.913  0.00  0.00    +0.000 A 
BRANCH  14  18
ATOM     18  N   UNL     1      -9.831   4.523 129.963  0.00  0.00    +0.000 N 
ATOM     19  O   UNL     1      -9.991   3.306 129.791  0.00  0.00    +0.000 OA
ATOM     20  O   UNL     1     -10.686   5.385 129.715  0.00  0.00    +0.000 OA
ENDBRANCH  14  18
ENDBRANCH  10  12
BRANCH   3  21
ATOM     21  C   UNL     1      -4.424   2.578 132.204  0.00  0.00    +0.000 C 
ATOM     22  O   UNL     1      -5.105   2.744 133.192  0.00  0.00    +0.000 OA
BRANCH  21  24
ATOM     23  C   UNL     1      -4.903   0.369 131.528  0.00  0.00    +0.000 C 
ATOM     24  O   UNL     1      -3.922   1.385 131.776  0.00  0.00    +0.000 OA
ENDBRANCH  21  24
ENDBRANCH   3  21
ENDBRANCH   1   9
BRANCH   1  25
ATOM     25  O   UNL     1      -4.822   3.570 126.963  0.00  0.00    +0.000 OA
BRANCH  25  26
ATOM     26  C   UNL     1      -6.049   3.518 126.153  0.00  0.00    +0.000 C 
ATOM     27  C   UNL     1      -7.139   4.441 126.744  0.00  0.00    +0.000 C 
ATOM     28  C   UNL     1      -5.661   3.861 124.704  0.00  0.00    +0.000 C 
BRANCH  26  29
ATOM     29  C   UNL     1      -6.632   2.075 126.191  0.00  0.00    +0.000 C 
BRANCH  29  30
ATOM     30  N   UNL     1      -8.126   1.989 126.226  0.00  0.00    +0.000 NA
ATOM     31  C   UNL     1      -8.803   1.669 124.989  0.00  0.00    +0.000 C 
BRANCH  30  32
ATOM     32  C   UNL     1      -8.510   0.972 127.186  0.00  0.00    +0.000 C 
BRANCH  32  33
ATOM     33  C   UNL     1      -7.463  -0.131 127.305  0.00  0.00    +0.000 C 
BRANCH  33  34
ATOM     34  C   UNL     1      -7.980  -1.576 127.240  0.00  0.00    +0.000 C 
BRANCH  34  35
ATOM     35  C   UNL     1      -8.126  -2.083 125.793  0.00  0.00    +0.000 A 
ATOM     36  C   UNL     1      -7.292  -1.663 124.761  0.00  0.00    +0.000 A 
ATOM     37  C   UNL     1      -7.567  -1.990 123.429  0.00  0.00    +0.000 A 
ATOM     38  C   UNL     1      -8.626  -2.824 123.091  0.00  0.00    +0.000 A 
ATOM     39  C   UNL     1      -9.413  -3.328 124.086  0.00  0.00    +0.000 A 
ATOM     40  C   UNL     1      -9.112  -2.989 125.389  0.00  0.00    +0.000 A 
ENDBRANCH  34  35
BRANCH  34  41
ATOM     41  C   UNL     1      -7.021  -2.458 128.085  0.00  0.00    +0.000 A 
ATOM     42  C   UNL     1      -7.471  -3.327 129.101  0.00  0.00    +0.000 A 
ATOM     43  C   UNL     1      -6.583  -3.872 130.023  0.00  0.00    +0.000 A 
ATOM     44  C   UNL     1      -5.220  -3.623 129.903  0.00  0.00    +0.000 A 
ATOM     45  C   UNL     1      -4.749  -2.829 128.859  0.00  0.00    +0.000 A 
ATOM     46  C   UNL     1      -5.637  -2.284 127.935  0.00  0.00    +0.000 A 
ENDBRANCH  34  41
ENDBRANCH  33  34
ENDBRANCH  32  33
ENDBRANCH  30  32
ENDBRANCH  29  30
ENDBRANCH  26  29
ENDBRANCH  25  26
ENDBRANCH   1  25
TORSDOF 14
ENDMDL
