MODEL 1
REMARK VINA RESULT:      -7.6      0.000      0.000
REMARK  Name = Lesinurad
REMARK  6 active torsions:
REMARK  status: ('A' for Active; 'I' for Inactive)
REMARK    1  A    between atoms: O_1  and  C_2
REMARK    2  A    between atoms: C_2  and  C_4
REMARK    3  A    between atoms: C_4  and  S_5
REMARK    4  A    between atoms: S_5  and  C_6
REMARK    5  A    between atoms: N_11  and  C_12
REMARK    6  A    between atoms: C_15  and  C_16
REMARK                            x       y       z     vdW  Elec       q    Type
REMARK                         _______ _______ _______ _____ _____    ______ ____
ROOT
ATOM      1  C   UNL     1      -7.039   0.760 124.854  0.00  0.00    +0.000 A 
ATOM      2  C   UNL     1      -5.888   0.264 125.475  0.00  0.00    +0.000 A 
ATOM      3  C   UNL     1      -5.512  -1.066 125.286  0.00  0.00    +0.000 A 
ATOM      4  C   UNL     1      -6.258  -1.938 124.466  0.00  0.00    +0.000 A 
ATOM      5  C   UNL     1      -7.477  -1.429 123.880  0.00  0.00    +0.000 A 
ATOM      6  C   UNL     1      -7.868  -0.072 124.051  0.00  0.00    +0.000 A 
ATOM      7  C   UNL     1      -9.043   0.374 123.372  0.00  0.00    +0.000 A 
ATOM      8  C   UNL     1      -9.851  -0.476 122.618  0.00  0.00    +0.000 A 
ATOM      9  C   UNL     1      -9.479  -1.792 122.464  0.00  0.00    +0.000 A 
ATOM     10  C   UNL     1      -8.319  -2.249 123.084  0.00  0.00    +0.000 A 
ENDROOT
BRANCH   1  16
ATOM     11  C   UNL     1      -7.097   3.257 124.400  0.00  0.00    +0.000 A 
ATOM     12  N   UNL     1      -7.610   4.303 125.012  0.00  0.00    +0.000 NA
ATOM     13  N   UNL     1      -8.154   3.874 126.207  0.00  0.00    +0.000 NA
ATOM     14  C   UNL     1      -7.973   2.574 126.292  0.00  0.00    +0.000 A 
ATOM     15 BR   UNL     1      -8.303   1.606 127.874  0.00  0.00    +0.000 Br
ATOM     16  N   UNL     1      -7.387   2.107 125.128  0.00  0.00    +0.000 N 
BRANCH  11  17
ATOM     17  S   UNL     1      -6.477   3.247 122.769  0.00  0.00    +0.000 S 
BRANCH  17  18
ATOM     18  C   UNL     1      -5.140   4.503 122.711  0.00  0.00    +0.000 C 
BRANCH  18  19
ATOM     19  C   UNL     1      -4.873   4.948 121.266  0.00  0.00    +0.000 C 
ATOM     20  O   UNL     1      -5.232   4.350 120.253  0.00  0.00    +0.000 OA
BRANCH  19  21
ATOM     21  O   UNL     1      -4.155   6.092 121.147  0.00  0.00    +0.000 OA
ATOM     22  H   UNL     1      -4.201   6.741 121.873  0.00  0.00    +0.000 HD
ENDBRANCH  19  21
ENDBRANCH  18  19
ENDBRANCH  17  18
ENDBRANCH  11  17
ENDBRANCH   1  16
BRANCH   4  23
ATOM     23  C   UNL     1      -5.739  -3.313 124.034  0.00  0.00    +0.000 C 
ATOM     24  C   UNL     1      -4.551  -3.473 123.123  0.00  0.00    +0.000 C 
ATOM     25  C   UNL     1      -4.537  -4.077 124.500  0.00  0.00    +0.000 C 
ENDBRANCH   4  23
TORSDOF 6
ENDMDL
MODEL 2
REMARK VINA RESULT:      -7.6      4.470      5.634
REMARK  Name = Lesinurad
REMARK  6 active torsions:
REMARK  status: ('A' for Active; 'I' for Inactive)
REMARK    1  A    between atoms: O_1  and  C_2
REMARK    2  A    between atoms: C_2  and  C_4
REMARK    3  A    between atoms: C_4  and  S_5
REMARK    4  A    between atoms: S_5  and  C_6
REMARK    5  A    between atoms: N_11  and  C_12
REMARK    6  A    between atoms: C_15  and  C_16
REMARK                            x       y       z     vdW  Elec       q    Type
REMARK                         _______ _______ _______ _____ _____    ______ ____
ROOT
ATOM      1  C   UNL     1      -6.343  -1.933 126.148  0.00  0.00    +0.000 A 
ATOM      2  C   UNL     1      -5.217  -1.489 126.848  0.00  0.00    +0.000 A 
ATOM      3  C   UNL     1      -5.095  -1.755 128.212  0.00  0.00    +0.000 A 
ATOM      4  C   UNL     1      -6.079  -2.479 128.918  0.00  0.00    +0.000 A 
ATOM      5  C   UNL     1      -7.264  -2.878 128.195  0.00  0.00    +0.000 A 
ATOM      6  C   UNL     1      -7.399  -2.629 126.801  0.00  0.00    +0.000 A 
ATOM      7  C   UNL     1      -8.565  -3.128 126.143  0.00  0.00    +0.000 A 
ATOM      8  C   UNL     1      -9.597  -3.777 126.820  0.00  0.00    +0.000 A 
ATOM      9  C   UNL     1      -9.471  -4.007 128.172  0.00  0.00    +0.000 A 
ATOM     10  C   UNL     1      -8.330  -3.564 128.835  0.00  0.00    +0.000 A 
ENDROOT
BRANCH   1  16
ATOM     11  C   UNL     1      -7.224  -0.634 124.152  0.00  0.00    +0.000 A 
ATOM     12  N   UNL     1      -6.985  -0.641 122.858  0.00  0.00    +0.000 NA
ATOM     13  N   UNL     1      -6.103  -1.670 122.592  0.00  0.00    +0.000 NA
ATOM     14  C   UNL     1      -5.813  -2.261 123.731  0.00  0.00    +0.000 A 
ATOM     15 BR   UNL     1      -4.869  -3.889 123.816  0.00  0.00    +0.000 Br
ATOM     16  N   UNL     1      -6.424  -1.588 124.775  0.00  0.00    +0.000 N 
BRANCH  11  17
ATOM     17  S   UNL     1      -8.113   0.600 125.007  0.00  0.00    +0.000 S 
BRANCH  17  18
ATOM     18  C   UNL     1      -8.921   1.640 123.730  0.00  0.00    +0.000 C 
BRANCH  18  19
ATOM     19  C   UNL     1     -10.342   1.137 123.437  0.00  0.00    +0.000 C 
ATOM     20  O   UNL     1     -10.678   0.457 122.469  0.00  0.00    +0.000 OA
BRANCH  19  21
ATOM     21  O   UNL     1     -11.279   1.521 124.340  0.00  0.00    +0.000 OA
ATOM     22  H   UNL     1     -11.301   1.064 125.201  0.00  0.00    +0.000 HD
ENDBRANCH  19  21
ENDBRANCH  18  19
ENDBRANCH  17  18
ENDBRANCH  11  17
ENDBRANCH   1  16
BRANCH   4  23
ATOM     23  C   UNL     1      -5.857  -3.004 130.339  0.00  0.00    +0.000 C 
ATOM     24  C   UNL     1      -5.312  -4.383 130.609  0.00  0.00    +0.000 C 
ATOM     25  C   UNL     1      -4.588  -3.167 131.118  0.00  0.00    +0.000 C 
ENDBRANCH   4  23
TORSDOF 6
ENDMDL
MODEL 3
REMARK VINA RESULT:      -7.3      6.435      8.818
REMARK  Name = Lesinurad
REMARK  6 active torsions:
REMARK  status: ('A' for Active; 'I' for Inactive)
REMARK    1  A    between atoms: O_1  and  C_2
REMARK    2  A    between atoms: C_2  and  C_4
REMARK    3  A    between atoms: C_4  and  S_5
REMARK    4  A    between atoms: S_5  and  C_6
REMARK    5  A    between atoms: N_11  and  C_12
REMARK    6  A    between atoms: C_15  and  C_16
REMARK                            x       y       z     vdW  Elec       q    Type
REMARK                         _______ _______ _______ _____ _____    ______ ____
ROOT
ATOM      1  C   UNL     1      -8.207   5.534 130.363  0.00  0.00    +0.000 A 
ATOM      2  C   UNL     1      -7.890   6.266 131.512  0.00  0.00    +0.000 A 
ATOM      3  C   UNL     1      -6.556   6.464 131.865  0.00  0.00    +0.000 A 
ATOM      4  C   UNL     1      -5.497   5.955 131.085  0.00  0.00    +0.000 A 
ATOM      5  C   UNL     1      -5.840   5.150 129.935  0.00  0.00    +0.000 A 
ATOM      6  C   UNL     1      -7.195   4.949 129.551  0.00  0.00    +0.000 A 
ATOM      7  C   UNL     1      -7.447   4.209 128.355  0.00  0.00    +0.000 A 
ATOM      8  C   UNL     1      -6.433   3.622 127.600  0.00  0.00    +0.000 A 
ATOM      9  C   UNL     1      -5.123   3.805 127.980  0.00  0.00    +0.000 A 
ATOM     10  C   UNL     1      -4.842   4.552 129.121  0.00  0.00    +0.000 A 
ENDROOT
BRANCH   1  16
ATOM     11  C   UNL     1     -10.529   6.237 129.614  0.00  0.00    +0.000 A 
ATOM     12  N   UNL     1     -11.694   5.633 129.503  0.00  0.00    +0.000 NA
ATOM     13  N   UNL     1     -11.560   4.352 130.001  0.00  0.00    +0.000 NA
ATOM     14  C   UNL     1     -10.314   4.197 130.395  0.00  0.00    +0.000 A 
ATOM     15 BR   UNL     1      -9.745   2.706 131.396  0.00  0.00    +0.000 Br
ATOM     16  N   UNL     1      -9.583   5.332 130.089  0.00  0.00    +0.000 N 
BRANCH  11  17
ATOM     17  S   UNL     1     -10.134   7.796 128.940  0.00  0.00    +0.000 S 
BRANCH  17  18
ATOM     18  C   UNL     1     -11.555   8.286 127.888  0.00  0.00    +0.000 C 
BRANCH  18  19
ATOM     19  C   UNL     1     -11.487   7.588 126.522  0.00  0.00    +0.000 C 
ATOM     20  O   UNL     1     -10.832   7.968 125.553  0.00  0.00    +0.000 OA
BRANCH  19  21
ATOM     21  O   UNL     1     -12.250   6.471 126.416  0.00  0.00    +0.000 OA
ATOM     22  H   UNL     1     -12.738   6.172 127.205  0.00  0.00    +0.000 HD
ENDBRANCH  19  21
ENDBRANCH  18  19
ENDBRANCH  17  18
ENDBRANCH  11  17
ENDBRANCH   1  16
BRANCH   4  23
ATOM     23  C   UNL     1      -4.038   6.368 131.300  0.00  0.00    +0.000 C 
ATOM     24  C   UNL     1      -3.493   7.679 130.797  0.00  0.00    +0.000 C 
ATOM     25  C   UNL     1      -3.448   7.351 132.265  0.00  0.00    +0.000 C 
ENDBRANCH   4  23
TORSDOF 6
ENDMDL
MODEL 4
REMARK VINA RESULT:      -7.3      3.054      3.865
REMARK  Name = Lesinurad
REMARK  6 active torsions:
REMARK  status: ('A' for Active; 'I' for Inactive)
REMARK    1  A    between atoms: O_1  and  C_2
REMARK    2  A    between atoms: C_2  and  C_4
REMARK    3  A    between atoms: C_4  and  S_5
REMARK    4  A    between atoms: S_5  and  C_6
REMARK    5  A    between atoms: N_11  and  C_12
REMARK    6  A    between atoms: C_15  and  C_16
REMARK                            x       y       z     vdW  Elec       q    Type
REMARK                         _______ _______ _______ _____ _____    ______ ____
ROOT
ATOM      1  C   UNL     1      -8.062   0.003 124.776  0.00  0.00    +0.000 A 
ATOM      2  C   UNL     1      -8.982  -0.057 125.828  0.00  0.00    +0.000 A 
ATOM      3  C   UNL     1      -9.149  -1.244 126.541  0.00  0.00    +0.000 A 
ATOM      4  C   UNL     1      -8.401  -2.402 126.240  0.00  0.00    +0.000 A 
ATOM      5  C   UNL     1      -7.500  -2.343 125.113  0.00  0.00    +0.000 A 
ATOM      6  C   UNL     1      -7.306  -1.137 124.384  0.00  0.00    +0.000 A 
ATOM      7  C   UNL     1      -6.336  -1.140 123.334  0.00  0.00    +0.000 A 
ATOM      8  C   UNL     1      -5.635  -2.284 122.954  0.00  0.00    +0.000 A 
ATOM      9  C   UNL     1      -5.833  -3.454 123.651  0.00  0.00    +0.000 A 
ATOM     10  C   UNL     1      -6.745  -3.474 124.703  0.00  0.00    +0.000 A 
ENDROOT
BRANCH   1  16
ATOM     11  C   UNL     1      -7.189   2.345 124.328  0.00  0.00    +0.000 A 
ATOM     12  N   UNL     1      -7.421   3.266 123.416  0.00  0.00    +0.000 NA
ATOM     13  N   UNL     1      -8.441   2.813 122.602  0.00  0.00    +0.000 NA
ATOM     14  C   UNL     1      -8.801   1.621 123.026  0.00  0.00    +0.000 A 
ATOM     15 BR   UNL     1     -10.342   0.743 122.392  0.00  0.00    +0.000 Br
ATOM     16  N   UNL     1      -7.977   1.227 124.066  0.00  0.00    +0.000 N 
BRANCH  11  17
ATOM     17  S   UNL     1      -5.861   2.357 125.459  0.00  0.00    +0.000 S 
BRANCH  17  18
ATOM     18  C   UNL     1      -4.905   3.887 125.124  0.00  0.00    +0.000 C 
BRANCH  18  19
ATOM     19  C   UNL     1      -5.570   5.101 125.787  0.00  0.00    +0.000 C 
ATOM     20  O   UNL     1      -5.404   5.465 126.951  0.00  0.00    +0.000 OA
BRANCH  19  21
ATOM     21  O   UNL     1      -6.425   5.789 124.989  0.00  0.00    +0.000 OA
ATOM     22  H   UNL     1      -7.054   6.402 125.411  0.00  0.00    +0.000 HD
ENDBRANCH  19  21
ENDBRANCH  18  19
ENDBRANCH  17  18
ENDBRANCH  11  17
ENDBRANCH   1  16
BRANCH   4  23
ATOM     23  C   UNL     1      -8.374  -3.629 127.156  0.00  0.00    +0.000 C 
ATOM     24  C   UNL     1      -7.992  -3.537 128.610  0.00  0.00    +0.000 C 
ATOM     25  C   UNL     1      -9.344  -4.064 128.212  0.00  0.00    +0.000 C 
ENDBRANCH   4  23
TORSDOF 6
ENDMDL
MODEL 5
REMARK VINA RESULT:      -7.1      3.633      4.331
REMARK  Name = Lesinurad
REMARK  6 active torsions:
REMARK  status: ('A' for Active; 'I' for Inactive)
REMARK    1  A    between atoms: O_1  and  C_2
REMARK    2  A    between atoms: C_2  and  C_4
REMARK    3  A    between atoms: C_4  and  S_5
REMARK    4  A    between atoms: S_5  and  C_6
REMARK    5  A    between atoms: N_11  and  C_12
REMARK    6  A    between atoms: C_15  and  C_16
REMARK                            x       y       z     vdW  Elec       q    Type
REMARK                         _______ _______ _______ _____ _____    ______ ____
ROOT
ATOM      1  C   UNL     1      -6.670   1.692 125.198  0.00  0.00    +0.000 A 
ATOM      2  C   UNL     1      -5.631   0.936 125.751  0.00  0.00    +0.000 A 
ATOM      3  C   UNL     1      -5.543  -0.430 125.483  0.00  0.00    +0.000 A 
ATOM      4  C   UNL     1      -6.474  -1.083 124.649  0.00  0.00    +0.000 A 
ATOM      5  C   UNL     1      -7.576  -0.304 124.134  0.00  0.00    +0.000 A 
ATOM      6  C   UNL     1      -7.674   1.093 124.385  0.00  0.00    +0.000 A 
ATOM      7  C   UNL     1      -8.748   1.808 123.773  0.00  0.00    +0.000 A 
ATOM      8  C   UNL     1      -9.734   1.184 123.008  0.00  0.00    +0.000 A 
ATOM      9  C   UNL     1      -9.646  -0.170 122.777  0.00  0.00    +0.000 A 
ATOM     10  C   UNL     1      -8.590  -0.888 123.330  0.00  0.00    +0.000 A 
ENDROOT
BRANCH   1  16
ATOM     11  C   UNL     1      -7.334   3.668 126.647  0.00  0.00    +0.000 A 
ATOM     12  N   UNL     1      -7.146   4.969 126.589  0.00  0.00    +0.000 NA
ATOM     13  N   UNL     1      -6.504   5.255 125.400  0.00  0.00    +0.000 NA
ATOM     14  C   UNL     1      -6.303   4.122 124.763  0.00  0.00    +0.000 A 
ATOM     15 BR   UNL     1      -5.711   4.054 122.977  0.00  0.00    +0.000 Br
ATOM     16  N   UNL     1      -6.725   3.064 125.550  0.00  0.00    +0.000 N 
BRANCH  11  17
ATOM     17  S   UNL     1      -7.921   2.795 128.039  0.00  0.00    +0.000 S 
BRANCH  17  18
ATOM     18  C   UNL     1      -8.018   4.008 129.412  0.00  0.00    +0.000 C 
BRANCH  18  19
ATOM     19  C   UNL     1      -9.348   4.774 129.369  0.00  0.00    +0.000 C 
ATOM     20  O   UNL     1     -10.371   4.472 129.982  0.00  0.00    +0.000 OA
BRANCH  19  21
ATOM     21  O   UNL     1      -9.354   5.857 128.553  0.00  0.00    +0.000 OA
ATOM     22  H   UNL     1     -10.108   6.473 128.613  0.00  0.00    +0.000 HD
ENDBRANCH  19  21
ENDBRANCH  18  19
ENDBRANCH  17  18
ENDBRANCH  11  17
ENDBRANCH   1  16
BRANCH   4  23
ATOM     23  C   UNL     1      -6.262  -2.509 124.132  0.00  0.00    +0.000 C 
ATOM     24  C   UNL     1      -5.347  -2.816 122.975  0.00  0.00    +0.000 C 
ATOM     25  C   UNL     1      -5.102  -3.439 124.322  0.00  0.00    +0.000 C 
ENDBRANCH   4  23
TORSDOF 6
ENDMDL
MODEL 6
REMARK VINA RESULT:      -7.0      4.788      6.039
REMARK  Name = Lesinurad
REMARK  6 active torsions:
REMARK  status: ('A' for Active; 'I' for Inactive)
REMARK    1  A    between atoms: O_1  and  C_2
REMARK    2  A    between atoms: C_2  and  C_4
REMARK    3  A    between atoms: C_4  and  S_5
REMARK    4  A    between atoms: S_5  and  C_6
REMARK    5  A    between atoms: N_11  and  C_12
REMARK    6  A    between atoms: C_15  and  C_16
REMARK                            x       y       z     vdW  Elec       q    Type
REMARK                         _______ _______ _______ _____ _____    ______ ____
ROOT
ATOM      1  C   UNL     1      -5.821  -1.482 127.623  0.00  0.00    +0.000 A 
ATOM      2  C   UNL     1      -5.290  -1.113 126.383  0.00  0.00    +0.000 A 
ATOM      3  C   UNL     1      -5.906  -1.539 125.206  0.00  0.00    +0.000 A 
ATOM      4  C   UNL     1      -7.072  -2.332 125.224  0.00  0.00    +0.000 A 
ATOM      5  C   UNL     1      -7.574  -2.756 126.510  0.00  0.00    +0.000 A 
ATOM      6  C   UNL     1      -6.968  -2.320 127.721  0.00  0.00    +0.000 A 
ATOM      7  C   UNL     1      -7.574  -2.717 128.952  0.00  0.00    +0.000 A 
ATOM      8  C   UNL     1      -8.679  -3.566 129.012  0.00  0.00    +0.000 A 
ATOM      9  C   UNL     1      -9.257  -3.998 127.841  0.00  0.00    +0.000 A 
ATOM     10  C   UNL     1      -8.711  -3.599 126.624  0.00  0.00    +0.000 A 
ENDROOT
BRANCH   1  16
ATOM     11  C   UNL     1      -5.017   0.223 129.323  0.00  0.00    +0.000 A 
ATOM     12  N   UNL     1      -4.263   0.179 130.401  0.00  0.00    +0.000 NA
ATOM     13  N   UNL     1      -3.768  -1.105 130.523  0.00  0.00    +0.000 NA
ATOM     14  C   UNL     1      -4.241  -1.820 129.524  0.00  0.00    +0.000 A 
ATOM     15 BR   UNL     1      -3.611  -3.550 129.130  0.00  0.00    +0.000 Br
ATOM     16  N   UNL     1      -5.119  -1.054 128.777  0.00  0.00    +0.000 N 
BRANCH  11  17
ATOM     17  S   UNL     1      -6.026   1.567 128.853  0.00  0.00    +0.000 S 
BRANCH  17  18
ATOM     18  C   UNL     1      -7.745   1.113 129.307  0.00  0.00    +0.000 C 
BRANCH  18  19
ATOM     19  C   UNL     1      -8.753   2.048 128.624  0.00  0.00    +0.000 C 
ATOM     20  O   UNL     1      -9.283   3.032 129.138  0.00  0.00    +0.000 OA
BRANCH  19  21
ATOM     21  O   UNL     1      -9.075   1.705 127.351  0.00  0.00    +0.000 OA
ATOM     22  H   UNL     1     -10.020   1.628 127.122  0.00  0.00    +0.000 HD
ENDBRANCH  19  21
ENDBRANCH  18  19
ENDBRANCH  17  18
ENDBRANCH  11  17
ENDBRANCH   1  16
BRANCH   4  23
ATOM     23  C   UNL     1      -7.910  -2.598 123.970  0.00  0.00    +0.000 C 
ATOM     24  C   UNL     1      -8.953  -1.627 123.480  0.00  0.00    +0.000 C 
ATOM     25  C   UNL     1      -7.798  -2.011 122.595  0.00  0.00    +0.000 C 
ENDBRANCH   4  23
TORSDOF 6
ENDMDL
MODEL 7
REMARK VINA RESULT:      -7.0      4.397      5.417
REMARK  Name = Lesinurad
REMARK  6 active torsions:
REMARK  status: ('A' for Active; 'I' for Inactive)
REMARK    1  A    between atoms: O_1  and  C_2
REMARK    2  A    between atoms: C_2  and  C_4
REMARK    3  A    between atoms: C_4  and  S_5
REMARK    4  A    between atoms: S_5  and  C_6
REMARK    5  A    between atoms: N_11  and  C_12
REMARK    6  A    between atoms: C_15  and  C_16
REMARK                            x       y       z     vdW  Elec       q    Type
REMARK                         _______ _______ _______ _____ _____    ______ ____
ROOT
ATOM      1  C   UNL     1      -5.834  -1.429 127.426  0.00  0.00    +0.000 A 
ATOM      2  C   UNL     1      -5.302  -1.130 126.168  0.00  0.00    +0.000 A 
ATOM      3  C   UNL     1      -5.907  -1.637 125.018  0.00  0.00    +0.000 A 
ATOM      4  C   UNL     1      -7.061  -2.444 125.080  0.00  0.00    +0.000 A 
ATOM      5  C   UNL     1      -7.563  -2.795 126.389  0.00  0.00    +0.000 A 
ATOM      6  C   UNL     1      -6.969  -2.276 127.572  0.00  0.00    +0.000 A 
ATOM      7  C   UNL     1      -7.574  -2.604 128.824  0.00  0.00    +0.000 A 
ATOM      8  C   UNL     1      -8.667  -3.464 128.933  0.00  0.00    +0.000 A 
ATOM      9  C   UNL     1      -9.234  -3.977 127.788  0.00  0.00    +0.000 A 
ATOM     10  C   UNL     1      -8.689  -3.646 126.551  0.00  0.00    +0.000 A 
ENDROOT
BRANCH   1  16
ATOM     11  C   UNL     1      -4.980   0.401 128.965  0.00  0.00    +0.000 A 
ATOM     12  N   UNL     1      -4.264   0.430 130.069  0.00  0.00    +0.000 NA
ATOM     13  N   UNL     1      -3.853  -0.859 130.345  0.00  0.00    +0.000 NA
ATOM     14  C   UNL     1      -4.337  -1.649 129.411  0.00  0.00    +0.000 A 
ATOM     15 BR   UNL     1      -3.802  -3.445 129.226  0.00  0.00    +0.000 Br
ATOM     16  N   UNL     1      -5.143  -0.919 128.554  0.00  0.00    +0.000 N 
BRANCH  11  17
ATOM     17  S   UNL     1      -5.890   1.742 128.318  0.00  0.00    +0.000 S 
BRANCH  17  18
ATOM     18  C   UNL     1      -4.901   2.422 126.930  0.00  0.00    +0.000 C 
BRANCH  18  19
ATOM     19  C   UNL     1      -3.485   2.788 127.398  0.00  0.00    +0.000 C 
ATOM     20  O   UNL     1      -3.209   3.460 128.391  0.00  0.00    +0.000 OA
BRANCH  19  21
ATOM     21  O   UNL     1      -2.486   2.328 126.604  0.00  0.00    +0.000 OA
ATOM     22  H   UNL     1      -2.146   1.429 126.769  0.00  0.00    +0.000 HD
ENDBRANCH  19  21
ENDBRANCH  18  19
ENDBRANCH  17  18
ENDBRANCH  11  17
ENDBRANCH   1  16
BRANCH   4  23
ATOM     23  C   UNL     1      -7.890  -2.800 123.842  0.00  0.00    +0.000 C 
ATOM     24  C   UNL     1      -9.103  -2.006 123.433  0.00  0.00    +0.000 C 
ATOM     25  C   UNL     1      -7.935  -2.146 122.494  0.00  0.00    +0.000 C 
ENDBRANCH   4  23
TORSDOF 6
ENDMDL
MODEL 8
REMARK VINA RESULT:      -6.9      8.286     10.817
REMARK  Name = Lesinurad
REMARK  6 active torsions:
REMARK  status: ('A' for Active; 'I' for Inactive)
REMARK    1  A    between atoms: O_1  and  C_2
REMARK    2  A    between atoms: C_2  and  C_4
REMARK    3  A    between atoms: C_4  and  S_5
REMARK    4  A    between atoms: S_5  and  C_6
REMARK    5  A    between atoms: N_11  and  C_12
REMARK    6  A    between atoms: C_15  and  C_16
REMARK                            x       y       z     vdW  Elec       q    Type
REMARK                         _______ _______ _______ _____ _____    ______ ____
ROOT
ATOM      1  C   UNL     1      -8.483   4.670 132.503  0.00  0.00    +0.000 A 
ATOM      2  C   UNL     1      -8.851   4.210 133.771  0.00  0.00    +0.000 A 
ATOM      3  C   UNL     1      -8.019   4.445 134.866  0.00  0.00    +0.000 A 
ATOM      4  C   UNL     1      -6.806   5.152 134.737  0.00  0.00    +0.000 A 
ATOM      5  C   UNL     1      -6.409   5.568 133.412  0.00  0.00    +0.000 A 
ATOM      6  C   UNL     1      -7.251   5.351 132.286  0.00  0.00    +0.000 A 
ATOM      7  C   UNL     1      -6.825   5.864 131.023  0.00  0.00    +0.000 A 
ATOM      8  C   UNL     1      -5.596   6.498 130.840  0.00  0.00    +0.000 A 
ATOM      9  C   UNL     1      -4.776   6.697 131.927  0.00  0.00    +0.000 A 
ATOM     10  C   UNL     1      -5.180   6.239 133.179  0.00  0.00    +0.000 A 
ENDROOT
BRANCH   1  16
ATOM     11  C   UNL     1     -10.505   5.014 131.006  0.00  0.00    +0.000 A 
ATOM     12  N   UNL     1     -11.011   4.385 129.967  0.00  0.00    +0.000 NA
ATOM     13  N   UNL     1     -10.263   3.244 129.751  0.00  0.00    +0.000 NA
ATOM     14  C   UNL     1      -9.309   3.208 130.657  0.00  0.00    +0.000 A 
ATOM     15 BR   UNL     1      -8.221   1.693 130.921  0.00  0.00    +0.000 Br
ATOM     16  N   UNL     1      -9.352   4.356 131.428  0.00  0.00    +0.000 N 
BRANCH  11  17
ATOM     17  S   UNL     1     -10.972   6.605 131.548  0.00  0.00    +0.000 S 
BRANCH  17  18
ATOM     18  C   UNL     1     -11.866   7.391 130.151  0.00  0.00    +0.000 C 
BRANCH  18  19
ATOM     19  C   UNL     1     -10.880   8.054 129.179  0.00  0.00    +0.000 C 
ATOM     20  O   UNL     1      -9.662   7.883 129.163  0.00  0.00    +0.000 OA
BRANCH  19  21
ATOM     21  O   UNL     1     -11.445   8.914 128.295  0.00  0.00    +0.000 OA
ATOM     22  H   UNL     1     -10.902   9.651 127.961  0.00  0.00    +0.000 HD
ENDBRANCH  19  21
ENDBRANCH  18  19
ENDBRANCH  17  18
ENDBRANCH  11  17
ENDBRANCH   1  16
BRANCH   4  23
ATOM     23  C   UNL     1      -6.004   5.646 135.946  0.00  0.00    +0.000 C 
ATOM     24  C   UNL     1      -6.390   6.883 136.714  0.00  0.00    +0.000 C 
ATOM     25  C   UNL     1      -6.314   5.552 137.409  0.00  0.00    +0.000 C 
ENDBRANCH   4  23
TORSDOF 6
ENDMDL
MODEL 9
REMARK VINA RESULT:      -6.8      6.023      7.337
REMARK  Name = Lesinurad
REMARK  6 active torsions:
REMARK  status: ('A' for Active; 'I' for Inactive)
REMARK    1  A    between atoms: O_1  and  C_2
REMARK    2  A    between atoms: C_2  and  C_4
REMARK    3  A    between atoms: C_4  and  S_5
REMARK    4  A    between atoms: S_5  and  C_6
REMARK    5  A    between atoms: N_11  and  C_12
REMARK    6  A    between atoms: C_15  and  C_16
REMARK                            x       y       z     vdW  Elec       q    Type
REMARK                         _______ _______ _______ _____ _____    ______ ____
ROOT
ATOM      1  C   UNL     1      -5.942  -1.257 127.490  0.00  0.00    +0.000 A 
ATOM      2  C   UNL     1      -5.413  -0.918 126.241  0.00  0.00    +0.000 A 
ATOM      3  C   UNL     1      -5.969  -1.452 125.079  0.00  0.00    +0.000 A 
ATOM      4  C   UNL     1      -7.074  -2.328 125.120  0.00  0.00    +0.000 A 
ATOM      5  C   UNL     1      -7.572  -2.718 126.419  0.00  0.00    +0.000 A 
ATOM      6  C   UNL     1      -7.026  -2.173 127.614  0.00  0.00    +0.000 A 
ATOM      7  C   UNL     1      -7.628  -2.546 128.855  0.00  0.00    +0.000 A 
ATOM      8  C   UNL     1      -8.668  -3.471 128.943  0.00  0.00    +0.000 A 
ATOM      9  C   UNL     1      -9.186  -4.009 127.787  0.00  0.00    +0.000 A 
ATOM     10  C   UNL     1      -8.645  -3.636 126.560  0.00  0.00    +0.000 A 
ENDROOT
BRANCH   1  16
ATOM     11  C   UNL     1      -4.478  -1.345 129.562  0.00  0.00    +0.000 A 
ATOM     12  N   UNL     1      -4.093  -0.470 130.467  0.00  0.00    +0.000 NA
ATOM     13  N   UNL     1      -4.737   0.724 130.209  0.00  0.00    +0.000 NA
ATOM     14  C   UNL     1      -5.493   0.556 129.144  0.00  0.00    +0.000 A 
ATOM     15 BR   UNL     1      -6.763   1.832 128.593  0.00  0.00    +0.000 Br
ATOM     16  N   UNL     1      -5.299  -0.715 128.630  0.00  0.00    +0.000 N 
BRANCH  11  17
ATOM     17  S   UNL     1      -3.794  -2.935 129.340  0.00  0.00    +0.000 S 
BRANCH  17  18
ATOM     18  C   UNL     1      -4.677  -4.050 130.499  0.00  0.00    +0.000 C 
BRANCH  18  19
ATOM     19  C   UNL     1      -4.029  -4.012 131.890  0.00  0.00    +0.000 C 
ATOM     20  O   UNL     1      -4.305  -4.755 132.831  0.00  0.00    +0.000 OA
BRANCH  19  21
ATOM     21  O   UNL     1      -3.093  -3.045 132.056  0.00  0.00    +0.000 OA
ATOM     22  H   UNL     1      -2.981  -2.388 131.344  0.00  0.00    +0.000 HD
ENDBRANCH  19  21
ENDBRANCH  18  19
ENDBRANCH  17  18
ENDBRANCH  11  17
ENDBRANCH   1  16
BRANCH   4  23
ATOM     23  C   UNL     1      -7.862  -2.724 123.868  0.00  0.00    +0.000 C 
ATOM     24  C   UNL     1      -9.040  -1.926 123.375  0.00  0.00    +0.000 C 
ATOM     25  C   UNL     1      -7.841  -2.134 122.491  0.00  0.00    +0.000 C 
ENDBRANCH   4  23
TORSDOF 6
ENDMDL
