MODEL 1
REMARK VINA RESULT:     -10.6      0.000      0.000
REMARK  Name = Letermovir
REMARK  10 active torsions:
REMARK  status: ('A' for Active; 'I' for Inactive)
REMARK    1  A    between atoms: C_1  and  O_2
REMARK    2  A    between atoms: O_2  and  C_3
REMARK    3  A    between atoms: C_7  and  N_9
REMARK    4  A    between atoms: C_24  and  C_25
REMARK    5  A    between atoms: C_25  and  C_26
REMARK    6  A    between atoms: C_26  and  O_27
REMARK    7  A    between atoms: N_29  and  C_30
REMARK    8  A    between atoms: C_32  and  C_38
REMARK    9  A    between atoms: C_35  and  O_36
REMARK   10  A    between atoms: O_36  and  C_37
REMARK                            x       y       z     vdW  Elec       q    Type
REMARK                         _______ _______ _______ _____ _____    ______ ____
ROOT
ATOM      1  N   UNL     1      -7.901   2.853 124.316  0.00  0.00    +0.000 N 
ATOM      2  C   UNL     1      -8.235   1.508 124.719  0.00  0.00    +0.000 C 
ATOM      3  C   UNL     1      -7.330   1.174 125.878  0.00  0.00    +0.000 C 
ATOM      4  N   UNL     1      -7.350   2.198 126.996  0.00  0.00    +0.000 N 
ATOM      5  C   UNL     1      -6.800   3.434 126.453  0.00  0.00    +0.000 C 
ATOM      6  C   UNL     1      -7.811   3.863 125.378  0.00  0.00    +0.000 C 
ATOM      7  C   UNL     1      -7.273   1.955 128.369  0.00  0.00    +0.000 C 
ATOM      8  N   UNL     1      -6.442   2.490 129.255  0.00  0.00    +0.000 NA
ATOM      9  C   UNL     1      -6.482   1.939 130.586  0.00  0.00    +0.000 A 
ATOM     10  C   UNL     1      -7.584   2.264 131.304  0.00  0.00    +0.000 A 
ATOM     11  C   UNL     1      -7.662   2.130 132.721  0.00  0.00    +0.000 A 
ATOM     12  C   UNL     1      -6.881   1.181 133.329  0.00  0.00    +0.000 A 
ATOM     13  C   UNL     1      -6.060   0.442 132.493  0.00  0.00    +0.000 A 
ATOM     14  C   UNL     1      -5.849   0.838 131.149  0.00  0.00    +0.000 A 
ATOM     15  F   UNL     1      -5.178  -0.019 130.377  0.00  0.00    +0.000 F 
ATOM     16  C   UNL     1      -8.787   2.163 130.347  0.00  0.00    +0.000 C 
ATOM     17  N   UNL     1      -8.224   1.104 128.869  0.00  0.00    +0.000 N 
ENDROOT
BRANCH   1  22
ATOM     18  C   UNL     1      -6.300   3.884 121.180  0.00  0.00    +0.000 A 
ATOM     19  C   UNL     1      -7.418   3.921 120.346  0.00  0.00    +0.000 A 
ATOM     20  C   UNL     1      -8.669   3.532 120.819  0.00  0.00    +0.000 A 
ATOM     21  C   UNL     1      -8.796   3.092 122.126  0.00  0.00    +0.000 A 
ATOM     22  C   UNL     1      -7.705   3.130 122.995  0.00  0.00    +0.000 A 
ATOM     23  C   UNL     1      -6.445   3.497 122.509  0.00  0.00    +0.000 A 
BRANCH  18  25
ATOM     24  C   UNL     1      -5.312   5.393 119.667  0.00  0.00    +0.000 C 
ATOM     25  O   UNL     1      -5.141   4.379 120.650  0.00  0.00    +0.000 OA
ENDBRANCH  18  25
ENDBRANCH   1  22
BRANCH  17  26
ATOM     26  C   UNL     1      -7.616  -0.419 128.445  0.00  0.00    +0.000 A 
ATOM     27  C   UNL     1      -6.898  -1.283 129.369  0.00  0.00    +0.000 A 
ATOM     28  C   UNL     1      -6.892  -2.859 129.336  0.00  0.00    +0.000 A 
ATOM     29  C   UNL     1      -7.736  -3.633 128.541  0.00  0.00    +0.000 A 
ATOM     30  C   UNL     1      -8.351  -2.924 127.567  0.00  0.00    +0.000 A 
ATOM     31  C   UNL     1      -8.247  -1.429 127.415  0.00  0.00    +0.000 A 
BRANCH  28  32
ATOM     32  C   UNL     1      -5.865  -3.755 130.047  0.00  0.00    +0.000 C 
ATOM     33  F   UNL     1      -6.260  -5.057 130.056  0.00  0.00    +0.000 F 
ATOM     34  F   UNL     1      -4.629  -3.706 129.502  0.00  0.00    +0.000 F 
ATOM     35  F   UNL     1      -5.677  -3.457 131.382  0.00  0.00    +0.000 F 
ENDBRANCH  28  32
BRANCH  31  36
ATOM     36  O   UNL     1      -9.045  -1.406 126.282  0.00  0.00    +0.000 OA
ATOM     37  C   UNL     1      -9.036  -2.334 125.268  0.00  0.00    +0.000 C 
ENDBRANCH  31  36
ENDBRANCH  17  26
BRANCH  16  38
ATOM     38  C   UNL     1      -9.576   3.667 131.015  0.00  0.00    +0.000 C 
BRANCH  38  39
ATOM     39  C   UNL     1     -10.503   4.841 130.496  0.00  0.00    +0.000 C 
ATOM     40  O   UNL     1     -10.324   5.345 129.326  0.00  0.00    +0.000 OA
BRANCH  39  41
ATOM     41  O   UNL     1     -11.573   5.227 131.156  0.00  0.00    +0.000 OA
ATOM     42  H   UNL     1     -11.862   6.142 130.960  0.00  0.00    +0.000 HD
ENDBRANCH  39  41
ENDBRANCH  38  39
ENDBRANCH  16  38
TORSDOF 8
ENDMDL
MODEL 2
REMARK VINA RESULT:     -10.6      3.458      5.849
REMARK  Name = Letermovir
REMARK  10 active torsions:
REMARK  status: ('A' for Active; 'I' for Inactive)
REMARK    1  A    between atoms: C_1  and  O_2
REMARK    2  A    between atoms: O_2  and  C_3
REMARK    3  A    between atoms: C_7  and  N_9
REMARK    4  A    between atoms: C_24  and  C_25
REMARK    5  A    between atoms: C_25  and  C_26
REMARK    6  A    between atoms: C_26  and  O_27
REMARK    7  A    between atoms: N_29  and  C_30
REMARK    8  A    between atoms: C_32  and  C_38
REMARK    9  A    between atoms: C_35  and  O_36
REMARK   10  A    between atoms: O_36  and  C_37
REMARK                            x       y       z     vdW  Elec       q    Type
REMARK                         _______ _______ _______ _____ _____    ______ ____
ROOT
ATOM      1  N   UNL     1      -7.254   2.908 123.302  0.00  0.00    +0.000 N 
ATOM      2  C   UNL     1      -6.213   3.453 124.138  0.00  0.00    +0.000 C 
ATOM      3  C   UNL     1      -6.870   3.841 125.440  0.00  0.00    +0.000 C 
ATOM      4  N   UNL     1      -7.685   2.733 126.077  0.00  0.00    +0.000 N 
ATOM      5  C   UNL     1      -8.799   2.451 125.180  0.00  0.00    +0.000 C 
ATOM      6  C   UNL     1      -8.135   1.901 123.908  0.00  0.00    +0.000 C 
ATOM      7  C   UNL     1      -7.809   2.449 127.439  0.00  0.00    +0.000 C 
ATOM      8  N   UNL     1      -8.918   2.302 128.152  0.00  0.00    +0.000 NA
ATOM      9  C   UNL     1      -8.752   2.165 129.577  0.00  0.00    +0.000 A 
ATOM     10  C   UNL     1      -8.241   0.977 129.979  0.00  0.00    +0.000 A 
ATOM     11  C   UNL     1      -8.325   0.503 131.321  0.00  0.00    +0.000 A 
ATOM     12  C   UNL     1      -8.409   1.425 132.333  0.00  0.00    +0.000 A 
ATOM     13  C   UNL     1      -8.425   2.755 131.944  0.00  0.00    +0.000 A 
ATOM     14  C   UNL     1      -8.620   3.111 130.587  0.00  0.00    +0.000 A 
ATOM     15  F   UNL     1      -8.458   4.401 130.283  0.00  0.00    +0.000 F 
ATOM     16  C   UNL     1      -7.115   0.617 128.992  0.00  0.00    +0.000 C 
ATOM     17  N   UNL     1      -6.630   2.229 128.102  0.00  0.00    +0.000 N 
ENDROOT
BRANCH   1  22
ATOM     18  C   UNL     1      -6.428   4.336 120.025  0.00  0.00    +0.000 A 
ATOM     19  C   UNL     1      -7.705   4.395 119.466  0.00  0.00    +0.000 A 
ATOM     20  C   UNL     1      -8.805   3.892 120.155  0.00  0.00    +0.000 A 
ATOM     21  C   UNL     1      -8.624   3.316 121.401  0.00  0.00    +0.000 A 
ATOM     22  C   UNL     1      -7.367   3.327 122.009  0.00  0.00    +0.000 A 
ATOM     23  C   UNL     1      -6.260   3.810 121.302  0.00  0.00    +0.000 A 
BRANCH  18  25
ATOM     24  C   UNL     1      -5.871   5.935 118.389  0.00  0.00    +0.000 C 
ATOM     25  O   UNL     1      -5.433   4.945 119.313  0.00  0.00    +0.000 OA
ENDBRANCH  18  25
ENDBRANCH   1  22
BRANCH  17  26
ATOM     26  C   UNL     1      -6.053   3.800 128.362  0.00  0.00    +0.000 A 
ATOM     27  C   UNL     1      -6.257   4.536 129.600  0.00  0.00    +0.000 A 
ATOM     28  C   UNL     1      -5.276   5.616 130.196  0.00  0.00    +0.000 A 
ATOM     29  C   UNL     1      -3.989   5.861 129.720  0.00  0.00    +0.000 A 
ATOM     30  C   UNL     1      -3.756   5.313 128.505  0.00  0.00    +0.000 A 
ATOM     31  C   UNL     1      -4.730   4.423 127.779  0.00  0.00    +0.000 A 
BRANCH  28  32
ATOM     32  C   UNL     1      -5.647   6.649 131.274  0.00  0.00    +0.000 C 
ATOM     33  F   UNL     1      -6.663   7.456 130.863  0.00  0.00    +0.000 F 
ATOM     34  F   UNL     1      -6.013   6.099 132.453  0.00  0.00    +0.000 F 
ATOM     35  F   UNL     1      -4.633   7.530 131.592  0.00  0.00    +0.000 F 
ENDBRANCH  28  32
BRANCH  31  36
ATOM     36  O   UNL     1      -3.899   4.274 126.679  0.00  0.00    +0.000 OA
ATOM     37  C   UNL     1      -2.665   3.671 126.674  0.00  0.00    +0.000 C 
ENDBRANCH  31  36
ENDBRANCH  17  26
BRANCH  16  38
ATOM     38  C   UNL     1      -7.582  -1.147 128.941  0.00  0.00    +0.000 C 
BRANCH  38  39
ATOM     39  C   UNL     1      -7.940  -2.241 127.853  0.00  0.00    +0.000 C 
ATOM     40  O   UNL     1      -8.226  -3.444 128.207  0.00  0.00    +0.000 OA
BRANCH  39  41
ATOM     41  O   UNL     1      -8.117  -1.931 126.588  0.00  0.00    +0.000 OA
ATOM     42  H   UNL     1      -7.318  -2.036 126.030  0.00  0.00    +0.000 HD
ENDBRANCH  39  41
ENDBRANCH  38  39
ENDBRANCH  16  38
TORSDOF 8
ENDMDL
MODEL 3
REMARK VINA RESULT:     -10.3      4.455      8.312
REMARK  Name = Letermovir
REMARK  10 active torsions:
REMARK  status: ('A' for Active; 'I' for Inactive)
REMARK    1  A    between atoms: C_1  and  O_2
REMARK    2  A    between atoms: O_2  and  C_3
REMARK    3  A    between atoms: C_7  and  N_9
REMARK    4  A    between atoms: C_24  and  C_25
REMARK    5  A    between atoms: C_25  and  C_26
REMARK    6  A    between atoms: C_26  and  O_27
REMARK    7  A    between atoms: N_29  and  C_30
REMARK    8  A    between atoms: C_32  and  C_38
REMARK    9  A    between atoms: C_35  and  O_36
REMARK   10  A    between atoms: O_36  and  C_37
REMARK                            x       y       z     vdW  Elec       q    Type
REMARK                         _______ _______ _______ _____ _____    ______ ____
ROOT
ATOM      1  N   UNL     1      -4.304   3.611 128.596  0.00  0.00    +0.000 N 
ATOM      2  C   UNL     1      -5.451   4.061 127.843  0.00  0.00    +0.000 C 
ATOM      3  C   UNL     1      -5.490   3.228 126.587  0.00  0.00    +0.000 C 
ATOM      4  N   UNL     1      -5.435   1.733 126.832  0.00  0.00    +0.000 N 
ATOM      5  C   UNL     1      -4.132   1.442 127.417  0.00  0.00    +0.000 C 
ATOM      6  C   UNL     1      -4.154   2.161 128.775  0.00  0.00    +0.000 C 
ATOM      7  C   UNL     1      -6.111   0.733 126.128  0.00  0.00    +0.000 C 
ATOM      8  N   UNL     1      -5.611  -0.358 125.563  0.00  0.00    +0.000 NA
ATOM      9  C   UNL     1      -6.520  -1.141 124.765  0.00  0.00    +0.000 A 
ATOM     10  C   UNL     1      -7.447  -1.832 125.470  0.00  0.00    +0.000 A 
ATOM     11  C   UNL     1      -8.194  -2.918 124.926  0.00  0.00    +0.000 A 
ATOM     12  C   UNL     1      -8.416  -2.942 123.572  0.00  0.00    +0.000 A 
ATOM     13  C   UNL     1      -7.864  -1.899 122.847  0.00  0.00    +0.000 A 
ATOM     14  C   UNL     1      -6.912  -1.031 123.436  0.00  0.00    +0.000 A 
ATOM     15  F   UNL     1      -6.559   0.037 122.717  0.00  0.00    +0.000 F 
ATOM     16  C   UNL     1      -7.947  -0.900 126.588  0.00  0.00    +0.000 C 
ATOM     17  N   UNL     1      -7.474   0.872 126.076  0.00  0.00    +0.000 N 
ENDROOT
BRANCH   1  22
ATOM     18  C   UNL     1      -2.355   5.589 130.993  0.00  0.00    +0.000 A 
ATOM     19  C   UNL     1      -1.855   6.570 130.137  0.00  0.00    +0.000 A 
ATOM     20  C   UNL     1      -2.111   6.516 128.769  0.00  0.00    +0.000 A 
ATOM     21  C   UNL     1      -2.859   5.468 128.257  0.00  0.00    +0.000 A 
ATOM     22  C   UNL     1      -3.437   4.527 129.112  0.00  0.00    +0.000 A 
ATOM     23  C   UNL     1      -3.155   4.571 130.481  0.00  0.00    +0.000 A 
BRANCH  18  25
ATOM     24  C   UNL     1      -0.859   6.337 132.650  0.00  0.00    +0.000 C 
ATOM     25  O   UNL     1      -2.131   5.788 132.327  0.00  0.00    +0.000 OA
ENDBRANCH  18  25
ENDBRANCH   1  22
BRANCH  17  26
ATOM     26  C   UNL     1      -7.681   2.033 124.861  0.00  0.00    +0.000 A 
ATOM     27  C   UNL     1      -6.587   2.567 124.066  0.00  0.00    +0.000 A 
ATOM     28  C   UNL     1      -6.696   3.071 122.576  0.00  0.00    +0.000 A 
ATOM     29  C   UNL     1      -7.810   2.882 121.760  0.00  0.00    +0.000 A 
ATOM     30  C   UNL     1      -8.914   2.502 122.442  0.00  0.00    +0.000 A 
ATOM     31  C   UNL     1      -8.931   2.191 123.916  0.00  0.00    +0.000 A 
BRANCH  28  32
ATOM     32  C   UNL     1      -5.666   3.967 121.867  0.00  0.00    +0.000 C 
ATOM     33  F   UNL     1      -6.255   4.761 120.933  0.00  0.00    +0.000 F 
ATOM     34  F   UNL     1      -4.972   4.768 122.706  0.00  0.00    +0.000 F 
ATOM     35  F   UNL     1      -4.704   3.278 121.156  0.00  0.00    +0.000 F 
ENDBRANCH  28  32
BRANCH  31  36
ATOM     36  O   UNL     1     -10.291   1.926 123.928  0.00  0.00    +0.000 OA
ATOM     37  C   UNL     1     -10.942   1.008 123.139  0.00  0.00    +0.000 C 
ENDBRANCH  31  36
ENDBRANCH  17  26
BRANCH  16  38
ATOM     38  C   UNL     1      -7.986  -2.238 127.829  0.00  0.00    +0.000 C 
BRANCH  38  39
ATOM     39  C   UNL     1      -7.010  -2.887 128.893  0.00  0.00    +0.000 C 
ATOM     40  O   UNL     1      -5.738  -2.720 128.800  0.00  0.00    +0.000 OA
BRANCH  39  41
ATOM     41  O   UNL     1      -7.458  -3.471 129.983  0.00  0.00    +0.000 OA
ATOM     42  H   UNL     1      -6.912  -4.223 130.293  0.00  0.00    +0.000 HD
ENDBRANCH  39  41
ENDBRANCH  38  39
ENDBRANCH  16  38
TORSDOF 8
ENDMDL
MODEL 4
REMARK VINA RESULT:     -10.2      4.860      7.785
REMARK  Name = Letermovir
REMARK  10 active torsions:
REMARK  status: ('A' for Active; 'I' for Inactive)
REMARK    1  A    between atoms: C_1  and  O_2
REMARK    2  A    between atoms: O_2  and  C_3
REMARK    3  A    between atoms: C_7  and  N_9
REMARK    4  A    between atoms: C_24  and  C_25
REMARK    5  A    between atoms: C_25  and  C_26
REMARK    6  A    between atoms: C_26  and  O_27
REMARK    7  A    between atoms: N_29  and  C_30
REMARK    8  A    between atoms: C_32  and  C_38
REMARK    9  A    between atoms: C_35  and  O_36
REMARK   10  A    between atoms: O_36  and  C_37
REMARK                            x       y       z     vdW  Elec       q    Type
REMARK                         _______ _______ _______ _____ _____    ______ ____
ROOT
ATOM      1  N   UNL     1      -7.505  -0.561 128.859  0.00  0.00    +0.000 N 
ATOM      2  C   UNL     1      -7.366   0.828 128.493  0.00  0.00    +0.000 C 
ATOM      3  C   UNL     1      -8.002   1.627 129.603  0.00  0.00    +0.000 C 
ATOM      4  N   UNL     1      -7.493   1.278 130.988  0.00  0.00    +0.000 N 
ATOM      5  C   UNL     1      -7.895  -0.097 131.257  0.00  0.00    +0.000 C 
ATOM      6  C   UNL     1      -7.119  -0.931 130.226  0.00  0.00    +0.000 C 
ATOM      7  C   UNL     1      -7.274   2.152 132.055  0.00  0.00    +0.000 C 
ATOM      8  N   UNL     1      -7.729   2.065 133.298  0.00  0.00    +0.000 NA
ATOM      9  C   UNL     1      -7.472   3.194 134.156  0.00  0.00    +0.000 A 
ATOM     10  C   UNL     1      -6.183   3.328 134.551  0.00  0.00    +0.000 A 
ATOM     11  C   UNL     1      -5.783   4.137 135.655  0.00  0.00    +0.000 A 
ATOM     12  C   UNL     1      -6.566   5.213 135.990  0.00  0.00    +0.000 A 
ATOM     13  C   UNL     1      -7.704   5.400 135.222  0.00  0.00    +0.000 A 
ATOM     14  C   UNL     1      -8.157   4.390 134.339  0.00  0.00    +0.000 A 
ATOM     15  F   UNL     1      -9.161   4.721 133.525  0.00  0.00    +0.000 F 
ATOM     16  C   UNL     1      -5.305   3.025 133.324  0.00  0.00    +0.000 C 
ATOM     17  N   UNL     1      -6.424   3.196 131.793  0.00  0.00    +0.000 N 
ENDROOT
BRANCH   1  22
ATOM     18  C   UNL     1      -8.879  -1.967 125.761  0.00  0.00    +0.000 A 
ATOM     19  C   UNL     1      -9.124  -3.274 126.184  0.00  0.00    +0.000 A 
ATOM     20  C   UNL     1      -8.761  -3.685 127.464  0.00  0.00    +0.000 A 
ATOM     21  C   UNL     1      -8.138  -2.788 128.317  0.00  0.00    +0.000 A 
ATOM     22  C   UNL     1      -7.964  -1.456 127.937  0.00  0.00    +0.000 A 
ATOM     23  C   UNL     1      -8.307  -1.055 126.642  0.00  0.00    +0.000 A 
BRANCH  18  25
ATOM     24  C   UNL     1      -9.088  -2.582 123.498  0.00  0.00    +0.000 C 
ATOM     25  O   UNL     1      -9.363  -1.637 124.525  0.00  0.00    +0.000 OA
ENDBRANCH  18  25
ENDBRANCH   1  22
BRANCH  17  26
ATOM     26  C   UNL     1      -7.418   4.280 130.955  0.00  0.00    +0.000 A 
ATOM     27  C   UNL     1      -8.869   4.180 130.922  0.00  0.00    +0.000 A 
ATOM     28  C   UNL     1      -9.870   5.391 130.792  0.00  0.00    +0.000 A 
ATOM     29  C   UNL     1      -9.502   6.731 130.894  0.00  0.00    +0.000 A 
ATOM     30  C   UNL     1      -8.167   6.928 130.806  0.00  0.00    +0.000 A 
ATOM     31  C   UNL     1      -7.153   5.816 130.729  0.00  0.00    +0.000 A 
BRANCH  28  32
ATOM     32  C   UNL     1     -11.348   5.277 130.384  0.00  0.00    +0.000 C 
ATOM     33  F   UNL     1     -11.603   5.959 129.235  0.00  0.00    +0.000 F 
ATOM     34  F   UNL     1     -11.768   4.004 130.206  0.00  0.00    +0.000 F 
ATOM     35  F   UNL     1     -12.234   5.819 131.294  0.00  0.00    +0.000 F 
ENDBRANCH  28  32
BRANCH  31  36
ATOM     36  O   UNL     1      -6.081   6.690 130.637  0.00  0.00    +0.000 OA
ATOM     37  C   UNL     1      -4.983   6.712 131.462  0.00  0.00    +0.000 C 
ENDBRANCH  31  36
ENDBRANCH  17  26
BRANCH  16  38
ATOM     38  C   UNL     1      -4.082   2.087 134.301  0.00  0.00    +0.000 C 
BRANCH  38  39
ATOM     39  C   UNL     1      -3.631   0.580 134.491  0.00  0.00    +0.000 C 
ATOM     40  O   UNL     1      -4.461  -0.299 134.932  0.00  0.00    +0.000 OA
BRANCH  39  41
ATOM     41  O   UNL     1      -2.468   0.143 134.061  0.00  0.00    +0.000 OA
ATOM     42  H   UNL     1      -2.293   0.324 133.114  0.00  0.00    +0.000 HD
ENDBRANCH  39  41
ENDBRANCH  38  39
ENDBRANCH  16  38
TORSDOF 8
ENDMDL
MODEL 5
REMARK VINA RESULT:      -9.9      3.409      7.543
REMARK  Name = Letermovir
REMARK  10 active torsions:
REMARK  status: ('A' for Active; 'I' for Inactive)
REMARK    1  A    between atoms: C_1  and  O_2
REMARK    2  A    between atoms: O_2  and  C_3
REMARK    3  A    between atoms: C_7  and  N_9
REMARK    4  A    between atoms: C_24  and  C_25
REMARK    5  A    between atoms: C_25  and  C_26
REMARK    6  A    between atoms: C_26  and  O_27
REMARK    7  A    between atoms: N_29  and  C_30
REMARK    8  A    between atoms: C_32  and  C_38
REMARK    9  A    between atoms: C_35  and  O_36
REMARK   10  A    between atoms: O_36  and  C_37
REMARK                            x       y       z     vdW  Elec       q    Type
REMARK                         _______ _______ _______ _____ _____    ______ ____
ROOT
ATOM      1  N   UNL     1      -3.858   3.830 129.297  0.00  0.00    +0.000 N 
ATOM      2  C   UNL     1      -3.734   2.448 128.898  0.00  0.00    +0.000 C 
ATOM      3  C   UNL     1      -5.118   1.991 128.509  0.00  0.00    +0.000 C 
ATOM      4  N   UNL     1      -5.805   2.887 127.497  0.00  0.00    +0.000 N 
ATOM      5  C   UNL     1      -6.019   4.177 128.143  0.00  0.00    +0.000 C 
ATOM      6  C   UNL     1      -4.603   4.717 128.395  0.00  0.00    +0.000 C 
ATOM      7  C   UNL     1      -6.640   2.496 126.448  0.00  0.00    +0.000 C 
ATOM      8  N   UNL     1      -7.859   2.933 126.159  0.00  0.00    +0.000 NA
ATOM      9  C   UNL     1      -8.556   2.240 125.105  0.00  0.00    +0.000 A 
ATOM     10  C   UNL     1      -8.086   2.482 123.858  0.00  0.00    +0.000 A 
ATOM     11  C   UNL     1      -8.827   2.195 122.674  0.00  0.00    +0.000 A 
ATOM     12  C   UNL     1      -9.756   1.186 122.716  0.00  0.00    +0.000 A 
ATOM     13  C   UNL     1      -9.902   0.545 123.935  0.00  0.00    +0.000 A 
ATOM     14  C   UNL     1      -9.328   1.085 125.112  0.00  0.00    +0.000 A 
ATOM     15  F   UNL     1      -9.382   0.318 126.203  0.00  0.00    +0.000 F 
ATOM     16  C   UNL     1      -6.549   2.484 123.950  0.00  0.00    +0.000 C 
ATOM     17  N   UNL     1      -6.097   1.593 125.571  0.00  0.00    +0.000 N 
ENDROOT
BRANCH   1  22
ATOM     18  C   UNL     1      -1.851   5.768 131.679  0.00  0.00    +0.000 A 
ATOM     19  C   UNL     1      -1.919   4.923 132.787  0.00  0.00    +0.000 A 
ATOM     20  C   UNL     1      -2.690   3.764 132.748  0.00  0.00    +0.000 A 
ATOM     21  C   UNL     1      -3.405   3.459 131.601  0.00  0.00    +0.000 A 
ATOM     22  C   UNL     1      -3.278   4.249 130.458  0.00  0.00    +0.000 A 
ATOM     23  C   UNL     1      -2.524   5.426 130.510  0.00  0.00    +0.000 A 
BRANCH  18  25
ATOM     24  C   UNL     1      -0.360   6.966 133.052  0.00  0.00    +0.000 C 
ATOM     25  O   UNL     1      -0.990   6.825 131.784  0.00  0.00    +0.000 OA
ENDBRANCH  18  25
ENDBRANCH   1  22
BRANCH  17  26
ATOM     26  C   UNL     1      -6.258   0.128 126.403  0.00  0.00    +0.000 A 
ATOM     27  C   UNL     1      -6.774   0.025 127.759  0.00  0.00    +0.000 A 
ATOM     28  C   UNL     1      -7.569  -1.202 128.348  0.00  0.00    +0.000 A 
ATOM     29  C   UNL     1      -8.055  -2.264 127.588  0.00  0.00    +0.000 A 
ATOM     30  C   UNL     1      -7.526  -2.318 126.344  0.00  0.00    +0.000 A 
ATOM     31  C   UNL     1      -6.598  -1.277 125.775  0.00  0.00    +0.000 A 
BRANCH  28  32
ATOM     32  C   UNL     1      -7.784  -1.481 129.845  0.00  0.00    +0.000 C 
ATOM     33  F   UNL     1      -8.370  -2.691 130.049  0.00  0.00    +0.000 F 
ATOM     34  F   UNL     1      -6.646  -1.449 130.574  0.00  0.00    +0.000 F 
ATOM     35  F   UNL     1      -8.633  -0.592 130.474  0.00  0.00    +0.000 F 
ENDBRANCH  28  32
BRANCH  31  36
ATOM     36  O   UNL     1      -6.450  -1.948 124.572  0.00  0.00    +0.000 OA
ATOM     37  C   UNL     1      -6.694  -1.431 123.323  0.00  0.00    +0.000 C 
ENDBRANCH  31  36
ENDBRANCH  17  26
BRANCH  16  38
ATOM     38  C   UNL     1      -6.380   3.904 122.817  0.00  0.00    +0.000 C 
BRANCH  38  39
ATOM     39  C   UNL     1      -5.616   4.256 121.475  0.00  0.00    +0.000 C 
ATOM     40  O   UNL     1      -5.946   3.688 120.368  0.00  0.00    +0.000 OA
BRANCH  39  41
ATOM     41  O   UNL     1      -4.748   5.241 121.406  0.00  0.00    +0.000 OA
ATOM     42  H   UNL     1      -3.816   4.969 121.539  0.00  0.00    +0.000 HD
ENDBRANCH  39  41
ENDBRANCH  38  39
ENDBRANCH  16  38
TORSDOF 8
ENDMDL
MODEL 6
REMARK VINA RESULT:      -9.8      3.276      7.953
REMARK  Name = Letermovir
REMARK  10 active torsions:
REMARK  status: ('A' for Active; 'I' for Inactive)
REMARK    1  A    between atoms: C_1  and  O_2
REMARK    2  A    between atoms: O_2  and  C_3
REMARK    3  A    between atoms: C_7  and  N_9
REMARK    4  A    between atoms: C_24  and  C_25
REMARK    5  A    between atoms: C_25  and  C_26
REMARK    6  A    between atoms: C_26  and  O_27
REMARK    7  A    between atoms: N_29  and  C_30
REMARK    8  A    between atoms: C_32  and  C_38
REMARK    9  A    between atoms: C_35  and  O_36
REMARK   10  A    between atoms: O_36  and  C_37
REMARK                            x       y       z     vdW  Elec       q    Type
REMARK                         _______ _______ _______ _____ _____    ______ ____
ROOT
ATOM      1  N   UNL     1      -4.194  -0.087 130.517  0.00  0.00    +0.000 N 
ATOM      2  C   UNL     1      -4.247  -1.095 129.486  0.00  0.00    +0.000 C 
ATOM      3  C   UNL     1      -5.616  -0.994 128.861  0.00  0.00    +0.000 C 
ATOM      4  N   UNL     1      -5.989   0.403 128.407  0.00  0.00    +0.000 N 
ATOM      5  C   UNL     1      -6.075   1.233 129.602  0.00  0.00    +0.000 C 
ATOM      6  C   UNL     1      -4.641   1.263 130.151  0.00  0.00    +0.000 C 
ATOM      7  C   UNL     1      -6.717   0.758 127.268  0.00  0.00    +0.000 C 
ATOM      8  N   UNL     1      -7.790   1.533 127.186  0.00  0.00    +0.000 NA
ATOM      9  C   UNL     1      -8.433   1.605 125.898  0.00  0.00    +0.000 A 
ATOM     10  C   UNL     1      -7.753   2.309 124.961  0.00  0.00    +0.000 A 
ATOM     11  C   UNL     1      -8.351   2.797 123.763  0.00  0.00    +0.000 A 
ATOM     12  C   UNL     1      -9.432   2.122 123.253  0.00  0.00    +0.000 A 
ATOM     13  C   UNL     1      -9.859   1.022 123.979  0.00  0.00    +0.000 A 
ATOM     14  C   UNL     1      -9.380   0.789 125.292  0.00  0.00    +0.000 A 
ATOM     15  F   UNL     1      -9.719  -0.376 125.848  0.00  0.00    +0.000 F 
ATOM     16  C   UNL     1      -6.267   1.932 125.108  0.00  0.00    +0.000 C 
ATOM     17  N   UNL     1      -6.211   0.296 126.081  0.00  0.00    +0.000 N 
ENDROOT
BRANCH   1  22
ATOM     18  C   UNL     1      -2.854  -2.033 133.324  0.00  0.00    +0.000 A 
ATOM     19  C   UNL     1      -3.022  -1.106 134.354  0.00  0.00    +0.000 A 
ATOM     20  C   UNL     1      -3.505   0.171 134.086  0.00  0.00    +0.000 A 
ATOM     21  C   UNL     1      -3.809   0.526 132.782  0.00  0.00    +0.000 A 
ATOM     22  C   UNL     1      -3.727  -0.416 131.755  0.00  0.00    +0.000 A 
ATOM     23  C   UNL     1      -3.216  -1.691 132.025  0.00  0.00    +0.000 A 
BRANCH  18  25
ATOM     24  C   UNL     1      -1.681  -3.345 134.888  0.00  0.00    +0.000 C 
ATOM     25  O   UNL     1      -2.469  -3.289 133.705  0.00  0.00    +0.000 OA
ENDBRANCH  18  25
ENDBRANCH   1  22
BRANCH  17  26
ATOM     26  C   UNL     1      -6.734  -1.314 126.058  0.00  0.00    +0.000 A 
ATOM     27  C   UNL     1      -7.484  -1.930 127.141  0.00  0.00    +0.000 A 
ATOM     28  C   UNL     1      -8.546  -3.085 126.981  0.00  0.00    +0.000 A 
ATOM     29  C   UNL     1      -9.053  -3.525 125.759  0.00  0.00    +0.000 A 
ATOM     30  C   UNL     1      -8.333  -3.097 124.697  0.00  0.00    +0.000 A 
ATOM     31  C   UNL     1      -7.173  -2.141 124.792  0.00  0.00    +0.000 A 
BRANCH  28  32
ATOM     32  C   UNL     1      -9.054  -3.984 128.120  0.00  0.00    +0.000 C 
ATOM     33  F   UNL     1      -8.389  -5.170 128.153  0.00  0.00    +0.000 F 
ATOM     34  F   UNL     1      -8.951  -3.422 129.345  0.00  0.00    +0.000 F 
ATOM     35  F   UNL     1     -10.380  -4.352 128.008  0.00  0.00    +0.000 F 
ENDBRANCH  28  32
BRANCH  31  36
ATOM     36  O   UNL     1      -6.926  -2.177 123.429  0.00  0.00    +0.000 OA
ATOM     37  C   UNL     1      -7.863  -2.038 122.433  0.00  0.00    +0.000 C 
ENDBRANCH  31  36
ENDBRANCH  17  26
BRANCH  16  38
ATOM     38  C   UNL     1      -5.699   3.646 124.848  0.00  0.00    +0.000 C 
BRANCH  38  39
ATOM     39  C   UNL     1      -5.761   5.036 125.605  0.00  0.00    +0.000 C 
ATOM     40  O   UNL     1      -6.179   6.091 124.999  0.00  0.00    +0.000 OA
BRANCH  39  41
ATOM     41  O   UNL     1      -5.552   5.133 126.899  0.00  0.00    +0.000 OA
ATOM     42  H   UNL     1      -6.334   5.417 127.416  0.00  0.00    +0.000 HD
ENDBRANCH  39  41
ENDBRANCH  38  39
ENDBRANCH  16  38
TORSDOF 8
ENDMDL
MODEL 7
REMARK VINA RESULT:      -9.7      4.641      7.054
REMARK  Name = Letermovir
REMARK  10 active torsions:
REMARK  status: ('A' for Active; 'I' for Inactive)
REMARK    1  A    between atoms: C_1  and  O_2
REMARK    2  A    between atoms: O_2  and  C_3
REMARK    3  A    between atoms: C_7  and  N_9
REMARK    4  A    between atoms: C_24  and  C_25
REMARK    5  A    between atoms: C_25  and  C_26
REMARK    6  A    between atoms: C_26  and  O_27
REMARK    7  A    between atoms: N_29  and  C_30
REMARK    8  A    between atoms: C_32  and  C_38
REMARK    9  A    between atoms: C_35  and  O_36
REMARK   10  A    between atoms: O_36  and  C_37
REMARK                            x       y       z     vdW  Elec       q    Type
REMARK                         _______ _______ _______ _____ _____    ______ ____
ROOT
ATOM      1  N   UNL     1      -6.760   3.648 126.753  0.00  0.00    +0.000 N 
ATOM      2  C   UNL     1      -7.798   4.474 127.321  0.00  0.00    +0.000 C 
ATOM      3  C   UNL     1      -7.856   4.137 128.790  0.00  0.00    +0.000 C 
ATOM      4  N   UNL     1      -6.517   4.218 129.498  0.00  0.00    +0.000 N 
ATOM      5  C   UNL     1      -5.666   3.184 128.923  0.00  0.00    +0.000 C 
ATOM      6  C   UNL     1      -5.474   3.616 127.461  0.00  0.00    +0.000 C 
ATOM      7  C   UNL     1      -6.272   4.668 130.797  0.00  0.00    +0.000 C 
ATOM      8  N   UNL     1      -5.613   4.053 131.771  0.00  0.00    +0.000 NA
ATOM      9  C   UNL     1      -5.645   4.684 133.066  0.00  0.00    +0.000 A 
ATOM     10  C   UNL     1      -4.904   5.813 133.168  0.00  0.00    +0.000 A 
ATOM     11  C   UNL     1      -4.515   6.384 134.415  0.00  0.00    +0.000 A 
ATOM     12  C   UNL     1      -5.310   6.159 135.510  0.00  0.00    +0.000 A 
ATOM     13  C   UNL     1      -6.426   5.366 135.298  0.00  0.00    +0.000 A 
ATOM     14  C   UNL     1      -6.571   4.623 134.101  0.00  0.00    +0.000 A 
ATOM     15  F   UNL     1      -7.747   4.020 133.916  0.00  0.00    +0.000 F 
ATOM     16  C   UNL     1      -5.123   6.612 131.870  0.00  0.00    +0.000 C 
ATOM     17  N   UNL     1      -6.715   5.935 131.073  0.00  0.00    +0.000 N 
ENDROOT
BRANCH   1  22
ATOM     18  C   UNL     1      -8.150   2.712 123.489  0.00  0.00    +0.000 A 
ATOM     19  C   UNL     1      -7.661   1.409 123.390  0.00  0.00    +0.000 A 
ATOM     20  C   UNL     1      -6.818   0.891 124.371  0.00  0.00    +0.000 A 
ATOM     21  C   UNL     1      -6.455   1.686 125.446  0.00  0.00    +0.000 A 
ATOM     22  C   UNL     1      -7.004   2.960 125.602  0.00  0.00    +0.000 A 
ATOM     23  C   UNL     1      -7.829   3.485 124.601  0.00  0.00    +0.000 A 
BRANCH  18  25
ATOM     24  C   UNL     1      -8.474   3.459 121.281  0.00  0.00    +0.000 C 
ATOM     25  O   UNL     1      -9.047   3.090 122.529  0.00  0.00    +0.000 OA
ENDBRANCH  18  25
ENDBRANCH   1  22
BRANCH  17  26
ATOM     26  C   UNL     1      -8.370   5.698 131.341  0.00  0.00    +0.000 A 
ATOM     27  C   UNL     1      -9.394   6.642 130.922  0.00  0.00    +0.000 A 
ATOM     28  C   UNL     1     -10.869   6.271 130.507  0.00  0.00    +0.000 A 
ATOM     29  C   UNL     1     -11.324   4.971 130.292  0.00  0.00    +0.000 A 
ATOM     30  C   UNL     1     -10.483   4.025 130.769  0.00  0.00    +0.000 A 
ATOM     31  C   UNL     1      -9.130   4.319 131.364  0.00  0.00    +0.000 A 
BRANCH  28  32
ATOM     32  C   UNL     1     -12.043   7.261 130.431  0.00  0.00    +0.000 C 
ATOM     33  F   UNL     1     -12.588   7.485 131.657  0.00  0.00    +0.000 F 
ATOM     34  F   UNL     1     -11.710   8.462 129.906  0.00  0.00    +0.000 F 
ATOM     35  F   UNL     1     -13.109   6.825 129.670  0.00  0.00    +0.000 F 
ENDBRANCH  28  32
BRANCH  31  36
ATOM     36  O   UNL     1      -8.871   2.986 131.640  0.00  0.00    +0.000 OA
ATOM     37  C   UNL     1      -9.783   2.061 132.086  0.00  0.00    +0.000 C 
ENDBRANCH  31  36
ENDBRANCH  17  26
BRANCH  16  38
ATOM     38  C   UNL     1      -3.368   7.096 131.748  0.00  0.00    +0.000 C 
BRANCH  38  39
ATOM     39  C   UNL     1      -2.038   6.551 131.083  0.00  0.00    +0.000 C 
ATOM     40  O   UNL     1      -1.103   6.048 131.809  0.00  0.00    +0.000 OA
BRANCH  39  41
ATOM     41  O   UNL     1      -1.907   6.442 129.779  0.00  0.00    +0.000 OA
ATOM     42  H   UNL     1      -2.754   6.431 129.287  0.00  0.00    +0.000 HD
ENDBRANCH  39  41
ENDBRANCH  38  39
ENDBRANCH  16  38
TORSDOF 8
ENDMDL
MODEL 8
REMARK VINA RESULT:      -9.7      2.628      7.493
REMARK  Name = Letermovir
REMARK  10 active torsions:
REMARK  status: ('A' for Active; 'I' for Inactive)
REMARK    1  A    between atoms: C_1  and  O_2
REMARK    2  A    between atoms: O_2  and  C_3
REMARK    3  A    between atoms: C_7  and  N_9
REMARK    4  A    between atoms: C_24  and  C_25
REMARK    5  A    between atoms: C_25  and  C_26
REMARK    6  A    between atoms: C_26  and  O_27
REMARK    7  A    between atoms: N_29  and  C_30
REMARK    8  A    between atoms: C_32  and  C_38
REMARK    9  A    between atoms: C_35  and  O_36
REMARK   10  A    between atoms: O_36  and  C_37
REMARK                            x       y       z     vdW  Elec       q    Type
REMARK                         _______ _______ _______ _____ _____    ______ ____
ROOT
ATOM      1  N   UNL     1      -7.460   2.408 130.372  0.00  0.00    +0.000 N 
ATOM      2  C   UNL     1      -6.476   1.364 130.209  0.00  0.00    +0.000 C 
ATOM      3  C   UNL     1      -7.141   0.274 129.406  0.00  0.00    +0.000 C 
ATOM      4  N   UNL     1      -7.781   0.754 128.119  0.00  0.00    +0.000 N 
ATOM      5  C   UNL     1      -8.873   1.646 128.490  0.00  0.00    +0.000 C 
ATOM      6  C   UNL     1      -8.179   2.838 129.166  0.00  0.00    +0.000 C 
ATOM      7  C   UNL     1      -7.826   0.084 126.894  0.00  0.00    +0.000 C 
ATOM      8  N   UNL     1      -8.885  -0.183 126.139  0.00  0.00    +0.000 NA
ATOM      9  C   UNL     1      -8.660  -1.029 124.994  0.00  0.00    +0.000 A 
ATOM     10  C   UNL     1      -7.982  -0.443 123.978  0.00  0.00    +0.000 A 
ATOM     11  C   UNL     1      -7.963  -0.960 122.650  0.00  0.00    +0.000 A 
ATOM     12  C   UNL     1      -8.140  -2.309 122.474  0.00  0.00    +0.000 A 
ATOM     13  C   UNL     1      -8.346  -3.050 123.627  0.00  0.00    +0.000 A 
ATOM     14  C   UNL     1      -8.626  -2.411 124.859  0.00  0.00    +0.000 A 
ATOM     15  F   UNL     1      -8.648  -3.193 125.941  0.00  0.00    +0.000 F 
ATOM     16  C   UNL     1      -6.848   0.383 124.613  0.00  0.00    +0.000 C 
ATOM     17  N   UNL     1      -6.610  -0.283 126.381  0.00  0.00    +0.000 N 
ENDROOT
BRANCH   1  22
ATOM     18  C   UNL     1      -6.829   3.941 133.645  0.00  0.00    +0.000 A 
ATOM     19  C   UNL     1      -8.099   3.818 134.211  0.00  0.00    +0.000 A 
ATOM     20  C   UNL     1      -9.158   3.298 133.471  0.00  0.00    +0.000 A 
ATOM     21  C   UNL     1      -8.947   2.913 132.157  0.00  0.00    +0.000 A 
ATOM     22  C   UNL     1      -7.665   2.951 131.606  0.00  0.00    +0.000 A 
ATOM     23  C   UNL     1      -6.610   3.498 132.344  0.00  0.00    +0.000 A 
BRANCH  18  25
ATOM     24  C   UNL     1      -5.373   3.396 135.413  0.00  0.00    +0.000 C 
ATOM     25  O   UNL     1      -5.838   4.369 134.484  0.00  0.00    +0.000 OA
ENDBRANCH  18  25
ENDBRANCH   1  22
BRANCH  17  26
ATOM     26  C   UNL     1      -6.242  -1.679 127.265  0.00  0.00    +0.000 A 
ATOM     27  C   UNL     1      -4.919  -1.968 127.798  0.00  0.00    +0.000 A 
ATOM     28  C   UNL     1      -4.617  -2.789 129.109  0.00  0.00    +0.000 A 
ATOM     29  C   UNL     1      -5.582  -3.173 130.038  0.00  0.00    +0.000 A 
ATOM     30  C   UNL     1      -6.848  -3.055 129.574  0.00  0.00    +0.000 A 
ATOM     31  C   UNL     1      -7.206  -2.456 128.239  0.00  0.00    +0.000 A 
BRANCH  28  32
ATOM     32  C   UNL     1      -3.258  -3.411 129.470  0.00  0.00    +0.000 C 
ATOM     33  F   UNL     1      -2.898  -4.375 128.580  0.00  0.00    +0.000 F 
ATOM     34  F   UNL     1      -2.248  -2.514 129.534  0.00  0.00    +0.000 F 
ATOM     35  F   UNL     1      -3.234  -4.060 130.689  0.00  0.00    +0.000 F 
ENDBRANCH  28  32
BRANCH  31  36
ATOM     36  O   UNL     1      -8.563  -2.675 128.413  0.00  0.00    +0.000 OA
ATOM     37  C   UNL     1      -9.157  -3.881 128.699  0.00  0.00    +0.000 C 
ENDBRANCH  31  36
ENDBRANCH  17  26
BRANCH  16  38
ATOM     38  C   UNL     1      -7.076   1.777 123.458  0.00  0.00    +0.000 C 
BRANCH  38  39
ATOM     39  C   UNL     1      -8.125   2.935 123.200  0.00  0.00    +0.000 C 
ATOM     40  O   UNL     1      -9.003   2.823 122.266  0.00  0.00    +0.000 OA
BRANCH  39  41
ATOM     41  O   UNL     1      -8.247   3.958 124.016  0.00  0.00    +0.000 OA
ATOM     42  H   UNL     1      -8.529   4.790 123.583  0.00  0.00    +0.000 HD
ENDBRANCH  39  41
ENDBRANCH  38  39
ENDBRANCH  16  38
TORSDOF 8
ENDMDL
MODEL 9
REMARK VINA RESULT:      -9.6      4.342      7.411
REMARK  Name = Letermovir
REMARK  10 active torsions:
REMARK  status: ('A' for Active; 'I' for Inactive)
REMARK    1  A    between atoms: C_1  and  O_2
REMARK    2  A    between atoms: O_2  and  C_3
REMARK    3  A    between atoms: C_7  and  N_9
REMARK    4  A    between atoms: C_24  and  C_25
REMARK    5  A    between atoms: C_25  and  C_26
REMARK    6  A    between atoms: C_26  and  O_27
REMARK    7  A    between atoms: N_29  and  C_30
REMARK    8  A    between atoms: C_32  and  C_38
REMARK    9  A    between atoms: C_35  and  O_36
REMARK   10  A    between atoms: O_36  and  C_37
REMARK                            x       y       z     vdW  Elec       q    Type
REMARK                         _______ _______ _______ _____ _____    ______ ____
ROOT
ATOM      1  N   UNL     1      -9.292   3.903 129.926  0.00  0.00    +0.000 N 
ATOM      2  C   UNL     1      -8.024   3.926 129.238  0.00  0.00    +0.000 C 
ATOM      3  C   UNL     1      -7.059   3.147 130.096  0.00  0.00    +0.000 C 
ATOM      4  N   UNL     1      -7.549   1.766 130.484  0.00  0.00    +0.000 N 
ATOM      5  C   UNL     1      -8.720   1.950 131.332  0.00  0.00    +0.000 C 
ATOM      6  C   UNL     1      -9.762   2.598 130.409  0.00  0.00    +0.000 C 
ATOM      7  C   UNL     1      -6.789   0.600 130.603  0.00  0.00    +0.000 C 
ATOM      8  N   UNL     1      -6.720  -0.237 131.629  0.00  0.00    +0.000 NA
ATOM      9  C   UNL     1      -5.732  -1.282 131.541  0.00  0.00    +0.000 A 
ATOM     10  C   UNL     1      -6.020  -2.265 130.655  0.00  0.00    +0.000 A 
ATOM     11  C   UNL     1      -5.380  -3.539 130.663  0.00  0.00    +0.000 A 
ATOM     12  C   UNL     1      -4.108  -3.625 131.171  0.00  0.00    +0.000 A 
ATOM     13  C   UNL     1      -3.566  -2.445 131.654  0.00  0.00    +0.000 A 
ATOM     14  C   UNL     1      -4.379  -1.303 131.857  0.00  0.00    +0.000 A 
ATOM     15  F   UNL     1      -3.743  -0.171 132.169  0.00  0.00    +0.000 F 
ATOM     16  C   UNL     1      -6.595  -1.582 129.400  0.00  0.00    +0.000 C 
ATOM     17  N   UNL     1      -6.077   0.248 129.486  0.00  0.00    +0.000 N 
ENDROOT
BRANCH   1  22
ATOM     18  C   UNL     1     -10.568   7.297 129.368  0.00  0.00    +0.000 A 
ATOM     19  C   UNL     1     -11.246   7.494 130.571  0.00  0.00    +0.000 A 
ATOM     20  C   UNL     1     -11.331   6.472 131.513  0.00  0.00    +0.000 A 
ATOM     21  C   UNL     1     -10.747   5.246 131.243  0.00  0.00    +0.000 A 
ATOM     22  C   UNL     1      -9.994   5.062 130.082  0.00  0.00    +0.000 A 
ATOM     23  C   UNL     1      -9.933   6.082 129.127  0.00  0.00    +0.000 A 
BRANCH  18  25
ATOM     24  C   UNL     1     -10.942   8.211 127.230  0.00  0.00    +0.000 C 
ATOM     25  O   UNL     1     -10.458   8.392 128.556  0.00  0.00    +0.000 OA
ENDBRANCH  18  25
ENDBRANCH   1  22
BRANCH  17  26
ATOM     26  C   UNL     1      -4.732   1.273 129.566  0.00  0.00    +0.000 A 
ATOM     27  C   UNL     1      -4.158   1.938 128.407  0.00  0.00    +0.000 A 
ATOM     28  C   UNL     1      -3.426   3.334 128.418  0.00  0.00    +0.000 A 
ATOM     29  C   UNL     1      -3.411   4.207 129.505  0.00  0.00    +0.000 A 
ATOM     30  C   UNL     1      -3.813   3.629 130.660  0.00  0.00    +0.000 A 
ATOM     31  C   UNL     1      -4.345   2.223 130.761  0.00  0.00    +0.000 A 
BRANCH  28  32
ATOM     32  C   UNL     1      -2.505   3.859 127.304  0.00  0.00    +0.000 C 
ATOM     33  F   UNL     1      -3.123   3.833 126.092  0.00  0.00    +0.000 F 
ATOM     34  F   UNL     1      -2.064   5.120 127.512  0.00  0.00    +0.000 F 
ATOM     35  F   UNL     1      -1.362   3.110 127.109  0.00  0.00    +0.000 F 
ENDBRANCH  28  32
BRANCH  31  36
ATOM     36  O   UNL     1      -4.514   2.299 132.135  0.00  0.00    +0.000 OA
ATOM     37  C   UNL     1      -4.488   3.447 132.890  0.00  0.00    +0.000 C 
ENDBRANCH  31  36
ENDBRANCH  17  26
BRANCH  16  38
ATOM     38  C   UNL     1      -7.875  -2.862 129.163  0.00  0.00    +0.000 C 
BRANCH  38  39
ATOM     39  C   UNL     1      -8.627  -3.568 127.962  0.00  0.00    +0.000 C 
ATOM     40  O   UNL     1      -9.646  -4.322 128.183  0.00  0.00    +0.000 OA
BRANCH  39  41
ATOM     41  O   UNL     1      -8.351  -3.288 126.707  0.00  0.00    +0.000 OA
ATOM     42  H   UNL     1      -7.754  -3.931 126.271  0.00  0.00    +0.000 HD
ENDBRANCH  39  41
ENDBRANCH  38  39
ENDBRANCH  16  38
TORSDOF 8
ENDMDL
