MODEL 1
REMARK VINA RESULT:      -7.8      0.000      0.000
REMARK  Name = Letrozole
REMARK  5 active torsions:
REMARK  status: ('A' for Active; 'I' for Inactive)
REMARK    1  A    between atoms: C_2  and  C_3
REMARK    2  A    between atoms: C_6  and  C_9
REMARK    3  A    between atoms: C_9  and  N_10
REMARK    4  A    between atoms: C_9  and  C_15
REMARK    5  A    between atoms: C_18  and  C_21
REMARK                            x       y       z     vdW  Elec       q    Type
REMARK                         _______ _______ _______ _____ _____    ______ ____
ROOT
ATOM      1  C   UNL     1      -7.392   0.808 124.312  0.00  0.00    +0.000 C 
ENDROOT
BRANCH   1   5
ATOM      2  C   UNL     1      -5.529   4.162 122.231  0.00  0.00    +0.000 A 
ATOM      3  C   UNL     1      -6.187   3.162 121.509  0.00  0.00    +0.000 A 
ATOM      4  C   UNL     1      -6.821   2.103 122.174  0.00  0.00    +0.000 A 
ATOM      5  C   UNL     1      -6.776   2.015 123.577  0.00  0.00    +0.000 A 
ATOM      6  C   UNL     1      -6.118   3.047 124.274  0.00  0.00    +0.000 A 
ATOM      7  C   UNL     1      -5.528   4.120 123.619  0.00  0.00    +0.000 A 
BRANCH   2   9
ATOM      8  N   UNL     1      -4.246   6.044 120.999  0.00  0.00    +0.000 NA
ATOM      9  C   UNL     1      -4.803   5.204 121.569  0.00  0.00    +0.000 C 
ENDBRANCH   2   9
ENDBRANCH   1   5
BRANCH   1  10
ATOM     10  C   UNL     1      -6.611  -0.513 124.123  0.00  0.00    +0.000 A 
ATOM     11  C   UNL     1      -6.498  -1.086 122.839  0.00  0.00    +0.000 A 
ATOM     12  C   UNL     1      -5.919  -2.346 122.664  0.00  0.00    +0.000 A 
ATOM     13  C   UNL     1      -5.365  -3.020 123.752  0.00  0.00    +0.000 A 
ATOM     14  C   UNL     1      -5.455  -2.470 125.026  0.00  0.00    +0.000 A 
ATOM     15  C   UNL     1      -6.064  -1.231 125.203  0.00  0.00    +0.000 A 
BRANCH  13  16
ATOM     16  C   UNL     1      -4.645  -4.243 123.556  0.00  0.00    +0.000 C 
ATOM     17  N   UNL     1      -4.036  -5.209 123.371  0.00  0.00    +0.000 NA
ENDBRANCH  13  16
ENDBRANCH   1  10
BRANCH   1  18
ATOM     18  N   UNL     1      -8.800   0.661 123.900  0.00  0.00    +0.000 N 
ATOM     19  C   UNL     1      -9.841   1.477 124.251  0.00  0.00    +0.000 A 
ATOM     20  N   UNL     1     -10.889   1.202 123.514  0.00  0.00    +0.000 NA
ATOM     21  C   UNL     1     -10.459   0.154 122.750  0.00  0.00    +0.000 A 
ATOM     22  N   UNL     1      -9.190  -0.218 122.949  0.00  0.00    +0.000 NA
ENDBRANCH   1  18
TORSDOF 5
ENDMDL
MODEL 2
REMARK VINA RESULT:      -7.5      1.861      6.365
REMARK  Name = Letrozole
REMARK  5 active torsions:
REMARK  status: ('A' for Active; 'I' for Inactive)
REMARK    1  A    between atoms: C_2  and  C_3
REMARK    2  A    between atoms: C_6  and  C_9
REMARK    3  A    between atoms: C_9  and  N_10
REMARK    4  A    between atoms: C_9  and  C_15
REMARK    5  A    between atoms: C_18  and  C_21
REMARK                            x       y       z     vdW  Elec       q    Type
REMARK                         _______ _______ _______ _____ _____    ______ ____
ROOT
ATOM      1  C   UNL     1      -8.187   1.388 123.727  0.00  0.00    +0.000 C 
ENDROOT
BRANCH   1   5
ATOM      2  C   UNL     1      -5.822  -2.272 123.967  0.00  0.00    +0.000 A 
ATOM      3  C   UNL     1      -5.625  -1.244 124.894  0.00  0.00    +0.000 A 
ATOM      4  C   UNL     1      -6.409  -0.082 124.845  0.00  0.00    +0.000 A 
ATOM      5  C   UNL     1      -7.382   0.078 123.843  0.00  0.00    +0.000 A 
ATOM      6  C   UNL     1      -7.564  -0.983 122.935  0.00  0.00    +0.000 A 
ATOM      7  C   UNL     1      -6.820  -2.153 123.009  0.00  0.00    +0.000 A 
BRANCH   2   9
ATOM      8  N   UNL     1      -4.323  -4.384 123.950  0.00  0.00    +0.000 NA
ATOM      9  C   UNL     1      -4.975  -3.427 123.945  0.00  0.00    +0.000 C 
ENDBRANCH   2   9
ENDBRANCH   1   5
BRANCH   1  10
ATOM     10  C   UNL     1      -7.675   2.349 122.628  0.00  0.00    +0.000 A 
ATOM     11  C   UNL     1      -8.595   3.084 121.852  0.00  0.00    +0.000 A 
ATOM     12  C   UNL     1      -8.167   3.850 120.764  0.00  0.00    +0.000 A 
ATOM     13  C   UNL     1      -6.805   3.966 120.482  0.00  0.00    +0.000 A 
ATOM     14  C   UNL     1      -5.879   3.259 121.240  0.00  0.00    +0.000 A 
ATOM     15  C   UNL     1      -6.311   2.468 122.301  0.00  0.00    +0.000 A 
BRANCH  13  16
ATOM     16  C   UNL     1      -6.352   4.861 119.460  0.00  0.00    +0.000 C 
ATOM     17  N   UNL     1      -5.964   5.551 118.616  0.00  0.00    +0.000 NA
ENDBRANCH  13  16
ENDBRANCH   1  10
BRANCH   1  18
ATOM     18  N   UNL     1      -8.221   2.051 125.043  0.00  0.00    +0.000 N 
ATOM     19  C   UNL     1      -8.810   1.572 126.181  0.00  0.00    +0.000 A 
ATOM     20  N   UNL     1      -8.435   2.290 127.211  0.00  0.00    +0.000 NA
ATOM     21  C   UNL     1      -7.648   3.251 126.644  0.00  0.00    +0.000 A 
ATOM     22  N   UNL     1      -7.487   3.153 125.319  0.00  0.00    +0.000 NA
ENDBRANCH   1  18
TORSDOF 5
ENDMDL
MODEL 3
REMARK VINA RESULT:      -7.1      2.344      3.010
REMARK  Name = Letrozole
REMARK  5 active torsions:
REMARK  status: ('A' for Active; 'I' for Inactive)
REMARK    1  A    between atoms: C_2  and  C_3
REMARK    2  A    between atoms: C_6  and  C_9
REMARK    3  A    between atoms: C_9  and  N_10
REMARK    4  A    between atoms: C_9  and  C_15
REMARK    5  A    between atoms: C_18  and  C_21
REMARK                            x       y       z     vdW  Elec       q    Type
REMARK                         _______ _______ _______ _____ _____    ______ ____
ROOT
ATOM      1  C   UNL     1      -7.955   0.293 125.271  0.00  0.00    +0.000 C 
ENDROOT
BRANCH   1   5
ATOM      2  C   UNL     1      -5.658   3.691 126.763  0.00  0.00    +0.000 A 
ATOM      3  C   UNL     1      -6.949   3.447 127.243  0.00  0.00    +0.000 A 
ATOM      4  C   UNL     1      -7.676   2.335 126.796  0.00  0.00    +0.000 A 
ATOM      5  C   UNL     1      -7.130   1.467 125.834  0.00  0.00    +0.000 A 
ATOM      6  C   UNL     1      -5.822   1.734 125.383  0.00  0.00    +0.000 A 
ATOM      7  C   UNL     1      -5.083   2.809 125.858  0.00  0.00    +0.000 A 
BRANCH   2   9
ATOM      8  N   UNL     1      -4.386   5.843 127.437  0.00  0.00    +0.000 NA
ATOM      9  C   UNL     1      -4.934   4.868 127.140  0.00  0.00    +0.000 C 
ENDBRANCH   2   9
ENDBRANCH   1   5
BRANCH   1  10
ATOM     10  C   UNL     1      -7.104  -0.908 124.795  0.00  0.00    +0.000 A 
ATOM     11  C   UNL     1      -6.523  -1.776 125.741  0.00  0.00    +0.000 A 
ATOM     12  C   UNL     1      -5.638  -2.783 125.344  0.00  0.00    +0.000 A 
ATOM     13  C   UNL     1      -5.385  -2.998 123.988  0.00  0.00    +0.000 A 
ATOM     14  C   UNL     1      -5.956  -2.160 123.037  0.00  0.00    +0.000 A 
ATOM     15  C   UNL     1      -6.808  -1.136 123.438  0.00  0.00    +0.000 A 
BRANCH  13  16
ATOM     16  C   UNL     1      -4.594  -4.116 123.568  0.00  0.00    +0.000 C 
ATOM     17  N   UNL     1      -3.977  -5.043 123.259  0.00  0.00    +0.000 NA
ENDBRANCH  13  16
ENDBRANCH   1  10
BRANCH   1  18
ATOM     18  N   UNL     1      -8.827   0.792 124.192  0.00  0.00    +0.000 N 
ATOM     19  C   UNL     1      -8.618   1.907 123.425  0.00  0.00    +0.000 A 
ATOM     20  N   UNL     1      -9.448   1.910 122.411  0.00  0.00    +0.000 NA
ATOM     21  C   UNL     1     -10.199   0.790 122.627  0.00  0.00    +0.000 A 
ATOM     22  N   UNL     1      -9.863   0.072 123.705  0.00  0.00    +0.000 NA
ENDBRANCH   1  18
TORSDOF 5
ENDMDL
MODEL 4
REMARK VINA RESULT:      -7.1      8.492     10.186
REMARK  Name = Letrozole
REMARK  5 active torsions:
REMARK  status: ('A' for Active; 'I' for Inactive)
REMARK    1  A    between atoms: C_2  and  C_3
REMARK    2  A    between atoms: C_6  and  C_9
REMARK    3  A    between atoms: C_9  and  N_10
REMARK    4  A    between atoms: C_9  and  C_15
REMARK    5  A    between atoms: C_18  and  C_21
REMARK                            x       y       z     vdW  Elec       q    Type
REMARK                         _______ _______ _______ _____ _____    ______ ____
ROOT
ATOM      1  C   UNL     1      -8.683   5.745 131.628  0.00  0.00    +0.000 C 
ENDROOT
BRANCH   1   5
ATOM      2  C   UNL     1     -11.815   8.041 129.636  0.00  0.00    +0.000 A 
ATOM      3  C   UNL     1     -10.539   7.951 129.070  0.00  0.00    +0.000 A 
ATOM      4  C   UNL     1      -9.541   7.183 129.686  0.00  0.00    +0.000 A 
ATOM      5  C   UNL     1      -9.799   6.518 130.898  0.00  0.00    +0.000 A 
ATOM      6  C   UNL     1     -11.099   6.618 131.431  0.00  0.00    +0.000 A 
ATOM      7  C   UNL     1     -12.102   7.341 130.800  0.00  0.00    +0.000 A 
BRANCH   2   9
ATOM      8  N   UNL     1     -13.608   9.580 128.577  0.00  0.00    +0.000 NA
ATOM      9  C   UNL     1     -12.822   8.889 129.071  0.00  0.00    +0.000 C 
ENDBRANCH   2   9
ENDBRANCH   1   5
BRANCH   1  10
ATOM     10  C   UNL     1      -7.283   5.904 130.990  0.00  0.00    +0.000 A 
ATOM     11  C   UNL     1      -6.771   4.887 130.157  0.00  0.00    +0.000 A 
ATOM     12  C   UNL     1      -5.457   4.942 129.682  0.00  0.00    +0.000 A 
ATOM     13  C   UNL     1      -4.658   6.052 129.958  0.00  0.00    +0.000 A 
ATOM     14  C   UNL     1      -5.146   7.071 130.768  0.00  0.00    +0.000 A 
ATOM     15  C   UNL     1      -6.442   6.997 131.270  0.00  0.00    +0.000 A 
BRANCH  13  16
ATOM     16  C   UNL     1      -3.364   6.180 129.357  0.00  0.00    +0.000 C 
ATOM     17  N   UNL     1      -2.307   6.247 128.894  0.00  0.00    +0.000 NA
ENDBRANCH  13  16
ENDBRANCH   1  10
BRANCH   1  18
ATOM     18  N   UNL     1      -9.067   4.326 131.730  0.00  0.00    +0.000 N 
ATOM     19  C   UNL     1      -8.956   3.529 132.837  0.00  0.00    +0.000 A 
ATOM     20  N   UNL     1      -9.616   2.413 132.648  0.00  0.00    +0.000 NA
ATOM     21  C   UNL     1     -10.077   2.542 131.369  0.00  0.00    +0.000 A 
ATOM     22  N   UNL     1      -9.766   3.692 130.761  0.00  0.00    +0.000 NA
ENDBRANCH   1  18
TORSDOF 5
ENDMDL
MODEL 5
REMARK VINA RESULT:      -6.9      9.659     12.455
REMARK  Name = Letrozole
REMARK  5 active torsions:
REMARK  status: ('A' for Active; 'I' for Inactive)
REMARK    1  A    between atoms: C_2  and  C_3
REMARK    2  A    between atoms: C_6  and  C_9
REMARK    3  A    between atoms: C_9  and  N_10
REMARK    4  A    between atoms: C_9  and  C_15
REMARK    5  A    between atoms: C_18  and  C_21
REMARK                            x       y       z     vdW  Elec       q    Type
REMARK                         _______ _______ _______ _____ _____    ______ ____
ROOT
ATOM      1  C   UNL     1      -3.140   5.805 131.425  0.00  0.00    +0.000 C 
ENDROOT
BRANCH   1   5
ATOM      2  C   UNL     1      -7.401   6.161 132.302  0.00  0.00    +0.000 A 
ATOM      3  C   UNL     1      -6.558   5.464 133.173  0.00  0.00    +0.000 A 
ATOM      4  C   UNL     1      -5.182   5.380 132.916  0.00  0.00    +0.000 A 
ATOM      5  C   UNL     1      -4.635   5.969 131.762  0.00  0.00    +0.000 A 
ATOM      6  C   UNL     1      -5.511   6.675 130.915  0.00  0.00    +0.000 A 
ATOM      7  C   UNL     1      -6.866   6.798 131.190  0.00  0.00    +0.000 A 
BRANCH   2   9
ATOM      8  N   UNL     1      -9.971   6.210 132.614  0.00  0.00    +0.000 NA
ATOM      9  C   UNL     1      -8.819   6.185 132.499  0.00  0.00    +0.000 C 
ENDBRANCH   2   9
ENDBRANCH   1   5
BRANCH   1  10
ATOM     10  C   UNL     1      -2.235   6.914 132.011  0.00  0.00    +0.000 A 
ATOM     11  C   UNL     1      -0.879   6.642 132.287  0.00  0.00    +0.000 A 
ATOM     12  C   UNL     1      -0.078   7.580 132.944  0.00  0.00    +0.000 A 
ATOM     13  C   UNL     1      -0.590   8.839 133.261  0.00  0.00    +0.000 A 
ATOM     14  C   UNL     1      -1.921   9.133 132.989  0.00  0.00    +0.000 A 
ATOM     15  C   UNL     1      -2.726   8.184 132.367  0.00  0.00    +0.000 A 
BRANCH  13  16
ATOM     16  C   UNL     1       0.266   9.852 133.803  0.00  0.00    +0.000 C 
ATOM     17  N   UNL     1       0.929  10.674 134.275  0.00  0.00    +0.000 NA
ENDBRANCH  13  16
ENDBRANCH   1  10
BRANCH   1  18
ATOM     18  N   UNL     1      -2.984   5.705 129.963  0.00  0.00    +0.000 N 
ATOM     19  C   UNL     1      -2.527   6.684 129.123  0.00  0.00    +0.000 A 
ATOM     20  N   UNL     1      -2.283   6.176 127.940  0.00  0.00    +0.000 NA
ATOM     21  C   UNL     1      -2.665   4.872 128.082  0.00  0.00    +0.000 A 
ATOM     22  N   UNL     1      -3.105   4.533 129.299  0.00  0.00    +0.000 NA
ENDBRANCH   1  18
TORSDOF 5
ENDMDL
MODEL 6
REMARK VINA RESULT:      -6.9      2.772      4.759
REMARK  Name = Letrozole
REMARK  5 active torsions:
REMARK  status: ('A' for Active; 'I' for Inactive)
REMARK    1  A    between atoms: C_2  and  C_3
REMARK    2  A    between atoms: C_6  and  C_9
REMARK    3  A    between atoms: C_9  and  N_10
REMARK    4  A    between atoms: C_9  and  C_15
REMARK    5  A    between atoms: C_18  and  C_21
REMARK                            x       y       z     vdW  Elec       q    Type
REMARK                         _______ _______ _______ _____ _____    ______ ____
ROOT
ATOM      1  C   UNL     1      -7.835   2.549 124.117  0.00  0.00    +0.000 C 
ENDROOT
BRANCH   1   5
ATOM      2  C   UNL     1      -7.052   4.077 120.104  0.00  0.00    +0.000 A 
ATOM      3  C   UNL     1      -5.990   3.767 120.960  0.00  0.00    +0.000 A 
ATOM      4  C   UNL     1      -6.236   3.239 122.235  0.00  0.00    +0.000 A 
ATOM      5  C   UNL     1      -7.554   3.044 122.684  0.00  0.00    +0.000 A 
ATOM      6  C   UNL     1      -8.598   3.354 121.791  0.00  0.00    +0.000 A 
ATOM      7  C   UNL     1      -8.357   3.834 120.511  0.00  0.00    +0.000 A 
BRANCH   2   9
ATOM      8  N   UNL     1      -6.650   5.240 117.825  0.00  0.00    +0.000 NA
ATOM      9  C   UNL     1      -6.827   4.698 118.833  0.00  0.00    +0.000 C 
ENDBRANCH   2   9
ENDBRANCH   1   5
BRANCH   1  10
ATOM     10  C   UNL     1      -6.727   2.902 125.137  0.00  0.00    +0.000 A 
ATOM     11  C   UNL     1      -6.550   4.239 125.549  0.00  0.00    +0.000 A 
ATOM     12  C   UNL     1      -5.471   4.604 126.359  0.00  0.00    +0.000 A 
ATOM     13  C   UNL     1      -4.598   3.630 126.843  0.00  0.00    +0.000 A 
ATOM     14  C   UNL     1      -4.759   2.304 126.459  0.00  0.00    +0.000 A 
ATOM     15  C   UNL     1      -5.813   1.949 125.622  0.00  0.00    +0.000 A 
BRANCH  13  16
ATOM     16  C   UNL     1      -3.578   3.977 127.787  0.00  0.00    +0.000 C 
ATOM     17  N   UNL     1      -2.734   4.220 128.540  0.00  0.00    +0.000 NA
ENDBRANCH  13  16
ENDBRANCH   1  10
BRANCH   1  18
ATOM     18  N   UNL     1      -8.089   1.098 124.084  0.00  0.00    +0.000 N 
ATOM     19  C   UNL     1      -9.089   0.431 124.737  0.00  0.00    +0.000 A 
ATOM     20  N   UNL     1      -9.170  -0.798 124.289  0.00  0.00    +0.000 NA
ATOM     21  C   UNL     1      -8.146  -0.862 123.386  0.00  0.00    +0.000 A 
ATOM     22  N   UNL     1      -7.451   0.269 123.225  0.00  0.00    +0.000 NA
ENDBRANCH   1  18
TORSDOF 5
ENDMDL
MODEL 7
REMARK VINA RESULT:      -6.9      5.773      9.002
REMARK  Name = Letrozole
REMARK  5 active torsions:
REMARK  status: ('A' for Active; 'I' for Inactive)
REMARK    1  A    between atoms: C_2  and  C_3
REMARK    2  A    between atoms: C_6  and  C_9
REMARK    3  A    between atoms: C_9  and  N_10
REMARK    4  A    between atoms: C_9  and  C_15
REMARK    5  A    between atoms: C_18  and  C_21
REMARK                            x       y       z     vdW  Elec       q    Type
REMARK                         _______ _______ _______ _____ _____    ______ ____
ROOT
ATOM      1  C   UNL     1      -6.840  -2.663 129.796  0.00  0.00    +0.000 C 
ENDROOT
BRANCH   1   5
ATOM      2  C   UNL     1      -8.543  -3.084 125.800  0.00  0.00    +0.000 A 
ATOM      3  C   UNL     1      -7.319  -2.432 125.979  0.00  0.00    +0.000 A 
ATOM      4  C   UNL     1      -6.749  -2.328 127.256  0.00  0.00    +0.000 A 
ATOM      5  C   UNL     1      -7.415  -2.850 128.379  0.00  0.00    +0.000 A 
ATOM      6  C   UNL     1      -8.638  -3.513 128.160  0.00  0.00    +0.000 A 
ATOM      7  C   UNL     1      -9.183  -3.657 126.891  0.00  0.00    +0.000 A 
BRANCH   2   9
ATOM      8  N   UNL     1      -9.708  -3.112 123.487  0.00  0.00    +0.000 NA
ATOM      9  C   UNL     1      -9.184  -3.125 124.520  0.00  0.00    +0.000 C 
ENDBRANCH   2   9
ENDBRANCH   1   5
BRANCH   1  10
ATOM     10  C   UNL     1      -7.347  -1.394 130.522  0.00  0.00    +0.000 A 
ATOM     11  C   UNL     1      -7.398  -1.362 131.931  0.00  0.00    +0.000 A 
ATOM     12  C   UNL     1      -7.981  -0.285 132.604  0.00  0.00    +0.000 A 
ATOM     13  C   UNL     1      -8.445   0.820 131.889  0.00  0.00    +0.000 A 
ATOM     14  C   UNL     1      -8.395   0.816 130.499  0.00  0.00    +0.000 A 
ATOM     15  C   UNL     1      -7.847  -0.275 129.830  0.00  0.00    +0.000 A 
BRANCH  13  16
ATOM     16  C   UNL     1      -8.910   1.985 132.580  0.00  0.00    +0.000 C 
ATOM     17  N   UNL     1      -9.250   2.925 133.162  0.00  0.00    +0.000 NA
ENDBRANCH  13  16
ENDBRANCH   1  10
BRANCH   1  18
ATOM     18  N   UNL     1      -5.368  -2.686 129.726  0.00  0.00    +0.000 N 
ATOM     19  C   UNL     1      -4.528  -1.614 129.863  0.00  0.00    +0.000 A 
ATOM     20  N   UNL     1      -3.293  -2.032 129.994  0.00  0.00    +0.000 NA
ATOM     21  C   UNL     1      -3.413  -3.387 129.872  0.00  0.00    +0.000 A 
ATOM     22  N   UNL     1      -4.661  -3.839 129.702  0.00  0.00    +0.000 NA
ENDBRANCH   1  18
TORSDOF 5
ENDMDL
MODEL 8
REMARK VINA RESULT:      -6.8      3.205      4.978
REMARK  Name = Letrozole
REMARK  5 active torsions:
REMARK  status: ('A' for Active; 'I' for Inactive)
REMARK    1  A    between atoms: C_2  and  C_3
REMARK    2  A    between atoms: C_6  and  C_9
REMARK    3  A    between atoms: C_9  and  N_10
REMARK    4  A    between atoms: C_9  and  C_15
REMARK    5  A    between atoms: C_18  and  C_21
REMARK                            x       y       z     vdW  Elec       q    Type
REMARK                         _______ _______ _______ _____ _____    ______ ____
ROOT
ATOM      1  C   UNL     1      -8.678  -0.627 125.499  0.00  0.00    +0.000 C 
ENDROOT
BRANCH   1   5
ATOM      2  C   UNL     1      -7.883   1.060 129.445  0.00  0.00    +0.000 A 
ATOM      3  C   UNL     1      -7.515  -0.258 129.154  0.00  0.00    +0.000 A 
ATOM      4  C   UNL     1      -7.733  -0.792 127.876  0.00  0.00    +0.000 A 
ATOM      5  C   UNL     1      -8.354  -0.020 126.878  0.00  0.00    +0.000 A 
ATOM      6  C   UNL     1      -8.698   1.307 127.200  0.00  0.00    +0.000 A 
ATOM      7  C   UNL     1      -8.442   1.853 128.451  0.00  0.00    +0.000 A 
BRANCH   2   9
ATOM      8  N   UNL     1      -7.668   1.996 131.850  0.00  0.00    +0.000 NA
ATOM      9  C   UNL     1      -7.749   1.596 130.766  0.00  0.00    +0.000 C 
ENDBRANCH   2   9
ENDBRANCH   1   5
BRANCH   1  10
ATOM     10  C   UNL     1      -7.597  -1.595 124.963  0.00  0.00    +0.000 A 
ATOM     11  C   UNL     1      -7.938  -2.926 124.647  0.00  0.00    +0.000 A 
ATOM     12  C   UNL     1      -6.955  -3.855 124.295  0.00  0.00    +0.000 A 
ATOM     13  C   UNL     1      -5.625  -3.454 124.169  0.00  0.00    +0.000 A 
ATOM     14  C   UNL     1      -5.266  -2.144 124.465  0.00  0.00    +0.000 A 
ATOM     15  C   UNL     1      -6.243  -1.230 124.850  0.00  0.00    +0.000 A 
BRANCH  13  16
ATOM     16  C   UNL     1      -4.638  -4.365 123.670  0.00  0.00    +0.000 C 
ATOM     17  N   UNL     1      -3.872  -5.133 123.269  0.00  0.00    +0.000 NA
ENDBRANCH  13  16
ENDBRANCH   1  10
BRANCH   1  18
ATOM     18  N   UNL     1      -8.942   0.463 124.543  0.00  0.00    +0.000 N 
ATOM     19  C   UNL     1      -8.006   1.228 123.901  0.00  0.00    +0.000 A 
ATOM     20  N   UNL     1      -8.577   1.922 122.948  0.00  0.00    +0.000 NA
ATOM     21  C   UNL     1      -9.896   1.591 123.077  0.00  0.00    +0.000 A 
ATOM     22  N   UNL     1     -10.174   0.706 124.040  0.00  0.00    +0.000 NA
ENDBRANCH   1  18
TORSDOF 5
ENDMDL
MODEL 9
REMARK VINA RESULT:      -6.8      6.528      9.662
REMARK  Name = Letrozole
REMARK  5 active torsions:
REMARK  status: ('A' for Active; 'I' for Inactive)
REMARK    1  A    between atoms: C_2  and  C_3
REMARK    2  A    between atoms: C_6  and  C_9
REMARK    3  A    between atoms: C_9  and  N_10
REMARK    4  A    between atoms: C_9  and  C_15
REMARK    5  A    between atoms: C_18  and  C_21
REMARK                            x       y       z     vdW  Elec       q    Type
REMARK                         _______ _______ _______ _____ _____    ______ ____
ROOT
ATOM      1  C   UNL     1      -7.762  -2.129 130.666  0.00  0.00    +0.000 C 
ENDROOT
BRANCH   1   5
ATOM      2  C   UNL     1      -5.280  -5.015 132.801  0.00  0.00    +0.000 A 
ATOM      3  C   UNL     1      -6.160  -4.186 133.504  0.00  0.00    +0.000 A 
ATOM      4  C   UNL     1      -6.988  -3.285 132.820  0.00  0.00    +0.000 A 
ATOM      5  C   UNL     1      -6.922  -3.179 131.419  0.00  0.00    +0.000 A 
ATOM      6  C   UNL     1      -6.035  -4.039 130.742  0.00  0.00    +0.000 A 
ATOM      7  C   UNL     1      -5.247  -4.964 131.414  0.00  0.00    +0.000 A 
BRANCH   2   9
ATOM      8  N   UNL     1      -3.611  -6.542 134.062  0.00  0.00    +0.000 NA
ATOM      9  C   UNL     1      -4.366  -5.879 133.485  0.00  0.00    +0.000 C 
ENDBRANCH   2   9
ENDBRANCH   1   5
BRANCH   1  10
ATOM     10  C   UNL     1      -8.021  -2.473 129.180  0.00  0.00    +0.000 A 
ATOM     11  C   UNL     1      -7.600  -1.585 128.169  0.00  0.00    +0.000 A 
ATOM     12  C   UNL     1      -7.944  -1.805 126.832  0.00  0.00    +0.000 A 
ATOM     13  C   UNL     1      -8.641  -2.958 126.468  0.00  0.00    +0.000 A 
ATOM     14  C   UNL     1      -9.056  -3.853 127.447  0.00  0.00    +0.000 A 
ATOM     15  C   UNL     1      -8.743  -3.613 128.782  0.00  0.00    +0.000 A 
BRANCH  13  16
ATOM     16  C   UNL     1      -8.870  -3.259 125.086  0.00  0.00    +0.000 C 
ATOM     17  N   UNL     1      -9.098  -3.504 123.979  0.00  0.00    +0.000 NA
ENDBRANCH  13  16
ENDBRANCH   1  10
BRANCH   1  18
ATOM     18  N   UNL     1      -7.121  -0.809 130.805  0.00  0.00    +0.000 N 
ATOM     19  C   UNL     1      -7.737   0.364 131.144  0.00  0.00    +0.000 A 
ATOM     20  N   UNL     1      -6.836   1.276 131.418  0.00  0.00    +0.000 NA
ATOM     21  C   UNL     1      -5.659   0.626 131.175  0.00  0.00    +0.000 A 
ATOM     22  N   UNL     1      -5.777  -0.651 130.793  0.00  0.00    +0.000 NA
ENDBRANCH   1  18
TORSDOF 5
ENDMDL
