MODEL 1
REMARK VINA RESULT:      -8.2      0.000      0.000
REMARK  Name = Leucovorin
REMARK  11 active torsions:
REMARK  status: ('A' for Active; 'I' for Inactive)
REMARK    1  A    between atoms: C_5  and  C_6
REMARK    2  A    between atoms: C_6  and  N_7
REMARK    3  A    between atoms: N_7  and  C_8
REMARK    4  A    between atoms: C_11  and  C_14
REMARK    5  A    between atoms: N_16  and  CA_17
REMARK    6  A    between atoms: CA_17  and  CB_18
REMARK    7  A    between atoms: CA_17  and  C_23
REMARK    8  A    between atoms: CB_18  and  CG_19
REMARK    9  A    between atoms: CG_19  and  CD_20
REMARK   10  A    between atoms: CD_20  and  OE1_21
REMARK   11  A    between atoms: C_23  and  O_24
REMARK                            x       y       z     vdW  Elec       q    Type
REMARK                         _______ _______ _______ _____ _____    ______ ____
ROOT
ATOM      1  N   UNK A   0      -7.364   0.350 127.778  0.00  0.00    +0.000 N 
ATOM      2  H   UNK A   0      -6.380   0.112 127.785  0.00  0.00    +0.000 HD
ENDROOT
BRANCH   1   3
ATOM      3  C   UNK A   0      -7.702   1.564 128.339  0.00  0.00    +0.000 A 
ATOM      4  C   UNK A   0      -8.555   1.636 129.442  0.00  0.00    +0.000 A 
ATOM      5  C   UNK A   0      -9.005   2.877 129.905  0.00  0.00    +0.000 A 
ATOM      6  C   UNK A   0      -8.541   4.062 129.314  0.00  0.00    +0.000 A 
ATOM      7  C   UNK A   0      -7.623   3.986 128.268  0.00  0.00    +0.000 A 
ATOM      8  C   UNK A   0      -7.202   2.747 127.799  0.00  0.00    +0.000 A 
BRANCH   6   9
ATOM      9  C   UNK A   0      -9.048   5.365 129.827  0.00  0.00    +0.000 C 
ATOM     10  O   UNK A   0      -8.250   6.275 130.032  0.00  0.00    +0.000 OA
ATOM     11  N   GLU A   1     -10.419   5.499 129.997  0.00  0.00    +0.000 N 
ATOM     12  H   GLU A   1     -10.970   4.676 129.872  0.00  0.00    +0.000 HD
BRANCH  11  13
ATOM     13  CA  GLU A   1     -11.079   6.785 130.283  0.00  0.00    +0.000 C 
BRANCH  13  14
ATOM     14  C   GLU A   1     -12.083   6.777 131.469  0.00  0.00    +0.000 C 
ATOM     15  OXT GLU A   1     -13.165   7.352 131.420  0.00  0.00    +0.000 OA
BRANCH  14  16
ATOM     16  O   GLU A   1     -11.758   6.052 132.559  0.00  0.00    +0.000 OA
ATOM     17  H   GLU A   1     -11.425   5.152 132.444  0.00  0.00    +0.000 HD
ENDBRANCH  14  16
ENDBRANCH  13  14
BRANCH  13  18
ATOM     18  CB  GLU A   1     -11.867   7.329 129.061  0.00  0.00    +0.000 C 
BRANCH  18  19
ATOM     19  CG  GLU A   1     -11.029   8.130 128.072  0.00  0.00    +0.000 C 
BRANCH  19  20
ATOM     20  CD  GLU A   1     -10.623   7.503 126.770  0.00  0.00    +0.000 C 
ATOM     21  OE2 GLU A   1     -10.939   7.996 125.690  0.00  0.00    +0.000 OA
BRANCH  20  22
ATOM     22  OE1 GLU A   1      -9.840   6.415 126.842  0.00  0.00    +0.000 OA
ATOM     23  HE1 GLU A   1      -9.426   6.243 127.704  0.00  0.00    +0.000 HD
ENDBRANCH  20  22
ENDBRANCH  19  20
ENDBRANCH  18  19
ENDBRANCH  13  18
ENDBRANCH  11  13
ENDBRANCH   6   9
ENDBRANCH   1   3
BRANCH   1  24
ATOM     24  C   UNK A   0      -8.275  -0.312 126.852  0.00  0.00    +0.000 C 
BRANCH  24  28
ATOM     25  C   UNK A   0      -8.930  -2.218 124.081  0.00  0.00    +0.000 C 
ATOM     26  O   UNK A   0      -9.011  -2.633 122.933  0.00  0.00    +0.000 OA
ATOM     27  N   UNK A   0      -8.300  -1.056 124.482  0.00  0.00    +0.000 N 
ATOM     28  C   UNK A   0      -7.501  -1.029 125.725  0.00  0.00    +0.000 C 
ATOM     29  C   UNK A   0      -6.140  -0.338 125.464  0.00  0.00    +0.000 C 
ATOM     30  N   UNK A   0      -6.360   0.909 124.762  0.00  0.00    +0.000 N 
ATOM     31  C   UNK A   0      -7.401   1.096 123.865  0.00  0.00    +0.000 A 
ATOM     32  C   UNK A   0      -8.324   0.110 123.711  0.00  0.00    +0.000 A 
ATOM     33  C   UNK A   0      -9.482   0.403 122.824  0.00  0.00    +0.000 A 
ATOM     34  O   UNK A   0     -10.494  -0.298 122.753  0.00  0.00    +0.000 OA
ATOM     35  N   UNK A   0      -9.437   1.598 122.184  0.00  0.00    +0.000 N 
ATOM     36  C   UNK A   0      -8.468   2.517 122.418  0.00  0.00    +0.000 A 
ATOM     37  N   UNK A   0      -8.610   3.693 121.777  0.00  0.00    +0.000 N 
ATOM     38  N   UNK A   0      -7.468   2.297 123.204  0.00  0.00    +0.000 NA
ATOM     39  H   UNK A   0      -5.626   1.605 124.705  0.00  0.00    +0.000 HD
ATOM     40  H   UNK A   0     -10.234   1.815 121.611  0.00  0.00    +0.000 HD
ATOM     41  H   UNK A   0      -9.358   3.877 121.127  0.00  0.00    +0.000 HD
ATOM     42  H   UNK A   0      -7.852   4.361 121.842  0.00  0.00    +0.000 HD
ENDBRANCH  24  28
ENDBRANCH   1  24
TORSDOF 11
ENDMDL
MODEL 2
REMARK VINA RESULT:      -8.1      2.430      3.091
REMARK  Name = Leucovorin
REMARK  11 active torsions:
REMARK  status: ('A' for Active; 'I' for Inactive)
REMARK    1  A    between atoms: C_5  and  C_6
REMARK    2  A    between atoms: C_6  and  N_7
REMARK    3  A    between atoms: N_7  and  C_8
REMARK    4  A    between atoms: C_11  and  C_14
REMARK    5  A    between atoms: N_16  and  CA_17
REMARK    6  A    between atoms: CA_17  and  CB_18
REMARK    7  A    between atoms: CA_17  and  C_23
REMARK    8  A    between atoms: CB_18  and  CG_19
REMARK    9  A    between atoms: CG_19  and  CD_20
REMARK   10  A    between atoms: CD_20  and  OE1_21
REMARK   11  A    between atoms: C_23  and  O_24
REMARK                            x       y       z     vdW  Elec       q    Type
REMARK                         _______ _______ _______ _____ _____    ______ ____
ROOT
ATOM      1  N   UNK A   0      -8.077   0.015 130.090  0.00  0.00    +0.000 N 
ATOM      2  H   UNK A   0      -8.093  -0.648 130.855  0.00  0.00    +0.000 HD
ENDROOT
BRANCH   1   3
ATOM      3  C   UNK A   0      -8.532   1.286 130.376  0.00  0.00    +0.000 A 
ATOM      4  C   UNK A   0      -9.223   1.555 131.559  0.00  0.00    +0.000 A 
ATOM      5  C   UNK A   0      -9.806   2.810 131.765  0.00  0.00    +0.000 A 
ATOM      6  C   UNK A   0      -9.635   3.832 130.819  0.00  0.00    +0.000 A 
ATOM      7  C   UNK A   0      -8.871   3.583 129.679  0.00  0.00    +0.000 A 
ATOM      8  C   UNK A   0      -8.318   2.324 129.472  0.00  0.00    +0.000 A 
BRANCH   6   9
ATOM      9  C   UNK A   0     -10.277   5.153 131.066  0.00  0.00    +0.000 C 
ATOM     10  O   UNK A   0     -10.434   5.531 132.224  0.00  0.00    +0.000 OA
ATOM     11  N   GLU A   1     -10.618   5.918 129.960  0.00  0.00    +0.000 N 
ATOM     12  H   GLU A   1     -10.515   5.487 129.066  0.00  0.00    +0.000 HD
BRANCH  11  13
ATOM     13  CA  GLU A   1     -11.053   7.324 130.050  0.00  0.00    +0.000 C 
BRANCH  13  14
ATOM     14  C   GLU A   1     -12.571   7.544 130.296  0.00  0.00    +0.000 C 
ATOM     15  OXT GLU A   1     -13.334   7.922 129.413  0.00  0.00    +0.000 OA
BRANCH  14  16
ATOM     16  O   GLU A   1     -13.057   7.241 131.517  0.00  0.00    +0.000 OA
ATOM     17  H   GLU A   1     -12.896   6.362 131.884  0.00  0.00    +0.000 HD
ENDBRANCH  14  16
ENDBRANCH  13  14
BRANCH  13  18
ATOM     18  CB  GLU A   1     -10.708   8.131 128.768  0.00  0.00    +0.000 C 
BRANCH  18  19
ATOM     19  CG  GLU A   1     -10.388   7.276 127.548  0.00  0.00    +0.000 C 
BRANCH  19  20
ATOM     20  CD  GLU A   1     -11.278   7.346 126.342  0.00  0.00    +0.000 C 
ATOM     21  OE2 GLU A   1     -12.400   6.844 126.339  0.00  0.00    +0.000 OA
BRANCH  20  22
ATOM     22  OE1 GLU A   1     -10.819   8.043 125.291  0.00  0.00    +0.000 OA
ATOM     23  HE1 GLU A   1     -10.822   9.010 125.385  0.00  0.00    +0.000 HD
ENDBRANCH  20  22
ENDBRANCH  19  20
ENDBRANCH  18  19
ENDBRANCH  13  18
ENDBRANCH  11  13
ENDBRANCH   6   9
ENDBRANCH   1   3
BRANCH   1  24
ATOM     24  C   UNK A   0      -7.225  -0.218 128.931  0.00  0.00    +0.000 C 
BRANCH  24  28
ATOM     25  C   UNK A   0      -8.622  -3.281 128.295  0.00  0.00    +0.000 C 
ATOM     26  O   UNK A   0      -8.899  -4.367 127.804  0.00  0.00    +0.000 OA
ATOM     27  N   UNK A   0      -7.626  -2.426 127.865  0.00  0.00    +0.000 N 
ATOM     28  C   UNK A   0      -6.793  -1.697 128.845  0.00  0.00    +0.000 C 
ATOM     29  C   UNK A   0      -5.298  -1.813 128.457  0.00  0.00    +0.000 C 
ATOM     30  N   UNK A   0      -5.140  -1.500 127.052  0.00  0.00    +0.000 N 
ATOM     31  C   UNK A   0      -6.113  -1.776 126.103  0.00  0.00    +0.000 A 
ATOM     32  C   UNK A   0      -7.313  -2.265 126.513  0.00  0.00    +0.000 A 
ATOM     33  C   UNK A   0      -8.361  -2.439 125.471  0.00  0.00    +0.000 A 
ATOM     34  O   UNK A   0      -9.548  -2.664 125.715  0.00  0.00    +0.000 OA
ATOM     35  N   UNK A   0      -7.966  -2.179 124.199  0.00  0.00    +0.000 N 
ATOM     36  C   UNK A   0      -6.739  -1.687 123.900  0.00  0.00    +0.000 A 
ATOM     37  N   UNK A   0      -6.527  -1.393 122.603  0.00  0.00    +0.000 N 
ATOM     38  N   UNK A   0      -5.821  -1.501 124.790  0.00  0.00    +0.000 NA
ATOM     39  H   UNK A   0      -4.223  -1.299 126.668  0.00  0.00    +0.000 HD
ATOM     40  H   UNK A   0      -8.680  -2.262 123.497  0.00  0.00    +0.000 HD
ATOM     41  H   UNK A   0      -7.210  -1.565 121.883  0.00  0.00    +0.000 HD
ATOM     42  H   UNK A   0      -5.590  -1.125 122.326  0.00  0.00    +0.000 HD
ENDBRANCH  24  28
ENDBRANCH   1  24
TORSDOF 11
ENDMDL
MODEL 3
REMARK VINA RESULT:      -7.8      1.609      1.984
REMARK  Name = Leucovorin
REMARK  11 active torsions:
REMARK  status: ('A' for Active; 'I' for Inactive)
REMARK    1  A    between atoms: C_5  and  C_6
REMARK    2  A    between atoms: C_6  and  N_7
REMARK    3  A    between atoms: N_7  and  C_8
REMARK    4  A    between atoms: C_11  and  C_14
REMARK    5  A    between atoms: N_16  and  CA_17
REMARK    6  A    between atoms: CA_17  and  CB_18
REMARK    7  A    between atoms: CA_17  and  C_23
REMARK    8  A    between atoms: CB_18  and  CG_19
REMARK    9  A    between atoms: CG_19  and  CD_20
REMARK   10  A    between atoms: CD_20  and  OE1_21
REMARK   11  A    between atoms: C_23  and  O_24
REMARK                            x       y       z     vdW  Elec       q    Type
REMARK                         _______ _______ _______ _____ _____    ______ ____
ROOT
ATOM      1  N   UNK A   0      -7.140  -0.557 128.287  0.00  0.00    +0.000 N 
ATOM      2  H   UNK A   0      -7.272  -1.250 129.014  0.00  0.00    +0.000 HD
ENDROOT
BRANCH   1   3
ATOM      3  C   UNK A   0      -7.623   0.707 128.555  0.00  0.00    +0.000 A 
ATOM      4  C   UNK A   0      -7.466   1.748 127.637  0.00  0.00    +0.000 A 
ATOM      5  C   UNK A   0      -7.828   3.054 127.984  0.00  0.00    +0.000 A 
ATOM      6  C   UNK A   0      -8.422   3.315 129.228  0.00  0.00    +0.000 A 
ATOM      7  C   UNK A   0      -8.655   2.257 130.106  0.00  0.00    +0.000 A 
ATOM      8  C   UNK A   0      -8.269   0.967 129.761  0.00  0.00    +0.000 A 
BRANCH   6   9
ATOM      9  C   UNK A   0      -8.787   4.718 129.567  0.00  0.00    +0.000 C 
ATOM     10  O   UNK A   0      -8.029   5.626 129.238  0.00  0.00    +0.000 OA
ATOM     11  N   GLU A   1     -10.004   4.931 130.198  0.00  0.00    +0.000 N 
ATOM     12  H   GLU A   1     -10.510   4.120 130.486  0.00  0.00    +0.000 HD
BRANCH  11  13
ATOM     13  CA  GLU A   1     -10.593   6.268 130.395  0.00  0.00    +0.000 C 
BRANCH  13  14
ATOM     14  C   GLU A   1     -11.323   6.488 131.749  0.00  0.00    +0.000 C 
ATOM     15  OXT GLU A   1     -12.537   6.645 131.825  0.00  0.00    +0.000 OA
BRANCH  14  16
ATOM     16  O   GLU A   1     -10.582   6.440 132.874  0.00  0.00    +0.000 OA
ATOM     17  H   GLU A   1      -9.766   5.921 132.879  0.00  0.00    +0.000 HD
ENDBRANCH  14  16
ENDBRANCH  13  14
BRANCH  13  18
ATOM     18  CB  GLU A   1     -11.625   6.627 129.291  0.00  0.00    +0.000 C 
BRANCH  18  19
ATOM     19  CG  GLU A   1     -11.555   8.070 128.804  0.00  0.00    +0.000 C 
BRANCH  19  20
ATOM     20  CD  GLU A   1     -12.824   8.804 128.484  0.00  0.00    +0.000 C 
ATOM     21  OE2 GLU A   1     -13.770   8.246 127.933  0.00  0.00    +0.000 OA
BRANCH  20  22
ATOM     22  OE1 GLU A   1     -12.902  10.081 128.889  0.00  0.00    +0.000 OA
ATOM     23  HE1 GLU A   1     -12.949  10.750 128.186  0.00  0.00    +0.000 HD
ENDBRANCH  20  22
ENDBRANCH  19  20
ENDBRANCH  18  19
ENDBRANCH  13  18
ENDBRANCH  11  13
ENDBRANCH   6   9
ENDBRANCH   1   3
BRANCH   1  24
ATOM     24  C   UNK A   0      -6.130  -0.756 127.256  0.00  0.00    +0.000 C 
BRANCH  24  28
ATOM     25  C   UNK A   0      -9.039  -2.262 126.252  0.00  0.00    +0.000 C 
ATOM     26  O   UNK A   0     -10.006  -2.632 125.600  0.00  0.00    +0.000 OA
ATOM     27  N   UNK A   0      -7.998  -1.481 125.788  0.00  0.00    +0.000 N 
ATOM     28  C   UNK A   0      -6.607  -1.771 126.196  0.00  0.00    +0.000 C 
ATOM     29  C   UNK A   0      -5.679  -1.752 124.957  0.00  0.00    +0.000 C 
ATOM     30  N   UNK A   0      -5.933  -0.555 124.183  0.00  0.00    +0.000 N 
ATOM     31  C   UNK A   0      -7.181   0.043 124.107  0.00  0.00    +0.000 A 
ATOM     32  C   UNK A   0      -8.194  -0.445 124.871  0.00  0.00    +0.000 A 
ATOM     33  C   UNK A   0      -9.482   0.300 124.839  0.00  0.00    +0.000 A 
ATOM     34  O   UNK A   0     -10.410   0.111 125.628  0.00  0.00    +0.000 OA
ATOM     35  N   UNK A   0      -9.532   1.337 123.966  0.00  0.00    +0.000 N 
ATOM     36  C   UNK A   0      -8.455   1.746 123.252  0.00  0.00    +0.000 A 
ATOM     37  N   UNK A   0      -8.636   2.847 122.498  0.00  0.00    +0.000 N 
ATOM     38  N   UNK A   0      -7.318   1.133 123.284  0.00  0.00    +0.000 NA
ATOM     39  H   UNK A   0      -5.276  -0.252 123.472  0.00  0.00    +0.000 HD
ATOM     40  H   UNK A   0     -10.388   1.864 123.966  0.00  0.00    +0.000 HD
ATOM     41  H   UNK A   0      -9.522   3.321 122.424  0.00  0.00    +0.000 HD
ATOM     42  H   UNK A   0      -7.889   3.119 121.870  0.00  0.00    +0.000 HD
ENDBRANCH  24  28
ENDBRANCH   1  24
TORSDOF 11
ENDMDL
MODEL 4
REMARK VINA RESULT:      -7.7      2.419      8.970
REMARK  Name = Leucovorin
REMARK  11 active torsions:
REMARK  status: ('A' for Active; 'I' for Inactive)
REMARK    1  A    between atoms: C_5  and  C_6
REMARK    2  A    between atoms: C_6  and  N_7
REMARK    3  A    between atoms: N_7  and  C_8
REMARK    4  A    between atoms: C_11  and  C_14
REMARK    5  A    between atoms: N_16  and  CA_17
REMARK    6  A    between atoms: CA_17  and  CB_18
REMARK    7  A    between atoms: CA_17  and  C_23
REMARK    8  A    between atoms: CB_18  and  CG_19
REMARK    9  A    between atoms: CG_19  and  CD_20
REMARK   10  A    between atoms: CD_20  and  OE1_21
REMARK   11  A    between atoms: C_23  and  O_24
REMARK                            x       y       z     vdW  Elec       q    Type
REMARK                         _______ _______ _______ _____ _____    ______ ____
ROOT
ATOM      1  N   UNK A   0      -7.732   1.491 131.124  0.00  0.00    +0.000 N 
ATOM      2  H   UNK A   0      -7.159   0.829 131.633  0.00  0.00    +0.000 HD
ENDROOT
BRANCH   1   3
ATOM      3  C   UNK A   0      -7.959   1.203 129.794  0.00  0.00    +0.000 A 
ATOM      4  C   UNK A   0      -8.566   2.134 128.949  0.00  0.00    +0.000 A 
ATOM      5  C   UNK A   0      -8.923   1.773 127.645  0.00  0.00    +0.000 A 
ATOM      6  C   UNK A   0      -8.604   0.500 127.151  0.00  0.00    +0.000 A 
ATOM      7  C   UNK A   0      -7.920  -0.396 127.973  0.00  0.00    +0.000 A 
ATOM      8  C   UNK A   0      -7.593  -0.037 129.275  0.00  0.00    +0.000 A 
BRANCH   6   9
ATOM      9  C   UNK A   0      -9.007   0.148 125.762  0.00  0.00    +0.000 C 
ATOM     10  O   UNK A   0     -10.170  -0.177 125.543  0.00  0.00    +0.000 OA
ATOM     11  N   GLU A   1      -8.046   0.259 124.767  0.00  0.00    +0.000 N 
ATOM     12  H   GLU A   1      -7.114   0.460 125.062  0.00  0.00    +0.000 HD
BRANCH  11  13
ATOM     13  CA  GLU A   1      -8.352   0.159 123.329  0.00  0.00    +0.000 C 
BRANCH  13  14
ATOM     14  C   GLU A   1      -9.497   1.077 122.819  0.00  0.00    +0.000 C 
ATOM     15  OXT GLU A   1      -9.328   2.267 122.573  0.00  0.00    +0.000 OA
BRANCH  14  16
ATOM     16  O   GLU A   1     -10.699   0.509 122.588  0.00  0.00    +0.000 OA
ATOM     17  H   GLU A   1     -11.501   1.029 122.732  0.00  0.00    +0.000 HD
ENDBRANCH  14  16
ENDBRANCH  13  14
BRANCH  13  18
ATOM     18  CB  GLU A   1      -8.745  -1.284 122.908  0.00  0.00    +0.000 C 
BRANCH  18  19
ATOM     19  CG  GLU A   1      -7.945  -2.384 123.596  0.00  0.00    +0.000 C 
BRANCH  19  20
ATOM     20  CD  GLU A   1      -8.656  -3.386 124.457  0.00  0.00    +0.000 C 
ATOM     21  OE2 GLU A   1      -8.094  -4.400 124.865  0.00  0.00    +0.000 OA
BRANCH  20  22
ATOM     22  OE1 GLU A   1      -9.914  -3.089 124.817  0.00  0.00    +0.000 OA
ATOM     23  HE1 GLU A   1     -10.601  -3.710 124.521  0.00  0.00    +0.000 HD
ENDBRANCH  20  22
ENDBRANCH  19  20
ENDBRANCH  18  19
ENDBRANCH  13  18
ENDBRANCH  11  13
ENDBRANCH   6   9
ENDBRANCH   1   3
BRANCH   1  24
ATOM     24  C   UNK A   0      -8.611   2.407 131.840  0.00  0.00    +0.000 C 
BRANCH  24  28
ATOM     25  C   UNK A   0      -6.851   5.036 130.523  0.00  0.00    +0.000 C 
ATOM     26  O   UNK A   0      -6.474   6.156 130.206  0.00  0.00    +0.000 OA
ATOM     27  N   UNK A   0      -7.929   4.742 131.336  0.00  0.00    +0.000 N 
ATOM     28  C   UNK A   0      -7.840   3.651 132.330  0.00  0.00    +0.000 C 
ATOM     29  C   UNK A   0      -8.385   4.135 133.696  0.00  0.00    +0.000 C 
ATOM     30  N   UNK A   0      -9.665   4.784 133.501  0.00  0.00    +0.000 N 
ATOM     31  C   UNK A   0      -9.985   5.491 132.352  0.00  0.00    +0.000 A 
ATOM     32  C   UNK A   0      -9.107   5.493 131.313  0.00  0.00    +0.000 A 
ATOM     33  C   UNK A   0      -9.545   6.170 130.062  0.00  0.00    +0.000 A 
ATOM     34  O   UNK A   0      -8.960   6.072 128.982  0.00  0.00    +0.000 OA
ATOM     35  N   UNK A   0     -10.743   6.802 130.132  0.00  0.00    +0.000 N 
ATOM     36  C   UNK A   0     -11.545   6.732 131.222  0.00  0.00    +0.000 A 
ATOM     37  N   UNK A   0     -12.745   7.334 131.106  0.00  0.00    +0.000 N 
ATOM     38  N   UNK A   0     -11.201   6.126 132.309  0.00  0.00    +0.000 NA
ATOM     39  H   UNK A   0     -10.279   4.961 134.288  0.00  0.00    +0.000 HD
ATOM     40  H   UNK A   0     -11.058   7.232 129.280  0.00  0.00    +0.000 HD
ATOM     41  H   UNK A   0     -13.023   7.847 130.285  0.00  0.00    +0.000 HD
ATOM     42  H   UNK A   0     -13.325   7.395 131.933  0.00  0.00    +0.000 HD
ENDBRANCH  24  28
ENDBRANCH   1  24
TORSDOF 11
ENDMDL
MODEL 5
REMARK VINA RESULT:      -7.7      3.071      9.548
REMARK  Name = Leucovorin
REMARK  11 active torsions:
REMARK  status: ('A' for Active; 'I' for Inactive)
REMARK    1  A    between atoms: C_5  and  C_6
REMARK    2  A    between atoms: C_6  and  N_7
REMARK    3  A    between atoms: N_7  and  C_8
REMARK    4  A    between atoms: C_11  and  C_14
REMARK    5  A    between atoms: N_16  and  CA_17
REMARK    6  A    between atoms: CA_17  and  CB_18
REMARK    7  A    between atoms: CA_17  and  C_23
REMARK    8  A    between atoms: CB_18  and  CG_19
REMARK    9  A    between atoms: CG_19  and  CD_20
REMARK   10  A    between atoms: CD_20  and  OE1_21
REMARK   11  A    between atoms: C_23  and  O_24
REMARK                            x       y       z     vdW  Elec       q    Type
REMARK                         _______ _______ _______ _____ _____    ______ ____
ROOT
ATOM      1  N   UNK A   0      -7.591   1.109 130.560  0.00  0.00    +0.000 N 
ATOM      2  H   UNK A   0      -7.489   0.716 131.488  0.00  0.00    +0.000 HD
ENDROOT
BRANCH   1   3
ATOM      3  C   UNK A   0      -7.690   0.205 129.523  0.00  0.00    +0.000 A 
ATOM      4  C   UNK A   0      -7.597  -1.170 129.752  0.00  0.00    +0.000 A 
ATOM      5  C   UNK A   0      -7.550  -2.062 128.676  0.00  0.00    +0.000 A 
ATOM      6  C   UNK A   0      -7.674  -1.590 127.361  0.00  0.00    +0.000 A 
ATOM      7  C   UNK A   0      -7.852  -0.224 127.142  0.00  0.00    +0.000 A 
ATOM      8  C   UNK A   0      -7.872   0.657 128.218  0.00  0.00    +0.000 A 
BRANCH   6   9
ATOM      9  C   UNK A   0      -7.610  -2.568 126.240  0.00  0.00    +0.000 C 
ATOM     10  O   UNK A   0      -8.517  -3.386 126.111  0.00  0.00    +0.000 OA
ATOM     11  N   GLU A   1      -6.544  -2.466 125.358  0.00  0.00    +0.000 N 
ATOM     12  H   GLU A   1      -5.825  -1.815 125.595  0.00  0.00    +0.000 HD
BRANCH  11  13
ATOM     13  CA  GLU A   1      -6.465  -3.212 124.090  0.00  0.00    +0.000 C 
BRANCH  13  14
ATOM     14  C   GLU A   1      -5.093  -3.874 123.783  0.00  0.00    +0.000 C 
ATOM     15  OXT GLU A   1      -4.914  -5.085 123.858  0.00  0.00    +0.000 OA
BRANCH  14  16
ATOM     16  O   GLU A   1      -4.093  -3.073 123.360  0.00  0.00    +0.000 OA
ATOM     17  H   GLU A   1      -3.797  -3.134 122.442  0.00  0.00    +0.000 HD
ENDBRANCH  14  16
ENDBRANCH  13  14
BRANCH  13  18
ATOM     18  CB  GLU A   1      -6.794  -2.323 122.859  0.00  0.00    +0.000 C 
BRANCH  18  19
ATOM     19  CG  GLU A   1      -7.788  -1.202 123.136  0.00  0.00    +0.000 C 
BRANCH  19  20
ATOM     20  CD  GLU A   1      -9.258  -1.467 122.995  0.00  0.00    +0.000 C 
ATOM     21  OE2 GLU A   1     -10.018  -0.639 122.498  0.00  0.00    +0.000 OA
BRANCH  20  22
ATOM     22  OE1 GLU A   1      -9.694  -2.678 123.375  0.00  0.00    +0.000 OA
ATOM     23  HE1 GLU A   1     -10.650  -2.759 123.529  0.00  0.00    +0.000 HD
ENDBRANCH  20  22
ENDBRANCH  19  20
ENDBRANCH  18  19
ENDBRANCH  13  18
ENDBRANCH  11  13
ENDBRANCH   6   9
ENDBRANCH   1   3
BRANCH   1  24
ATOM     24  C   UNK A   0      -8.055   2.479 130.389  0.00  0.00    +0.000 C 
BRANCH  24  28
ATOM     25  C   UNK A   0      -7.719   5.067 132.609  0.00  0.00    +0.000 C 
ATOM     26  O   UNK A   0      -7.915   6.067 133.287  0.00  0.00    +0.000 OA
ATOM     27  N   UNK A   0      -8.626   4.477 131.751  0.00  0.00    +0.000 N 
ATOM     28  C   UNK A   0      -8.732   3.005 131.673  0.00  0.00    +0.000 C 
ATOM     29  C   UNK A   0     -10.219   2.578 131.727  0.00  0.00    +0.000 C 
ATOM     30  N   UNK A   0     -10.982   3.372 130.787  0.00  0.00    +0.000 N 
ATOM     31  C   UNK A   0     -10.662   4.685 130.474  0.00  0.00    +0.000 A 
ATOM     32  C   UNK A   0      -9.523   5.225 130.984  0.00  0.00    +0.000 A 
ATOM     33  C   UNK A   0      -9.165   6.595 130.529  0.00  0.00    +0.000 A 
ATOM     34  O   UNK A   0      -8.072   7.128 130.730  0.00  0.00    +0.000 OA
ATOM     35  N   UNK A   0     -10.075   7.198 129.723  0.00  0.00    +0.000 N 
ATOM     36  C   UNK A   0     -11.182   6.561 129.266  0.00  0.00    +0.000 A 
ATOM     37  N   UNK A   0     -11.942   7.259 128.400  0.00  0.00    +0.000 N 
ATOM     38  N   UNK A   0     -11.500   5.362 129.624  0.00  0.00    +0.000 NA
ATOM     39  H   UNK A   0     -11.917   3.091 130.513  0.00  0.00    +0.000 HD
ATOM     40  H   UNK A   0      -9.822   8.109 129.386  0.00  0.00    +0.000 HD
ATOM     41  H   UNK A   0     -11.739   8.209 128.135  0.00  0.00    +0.000 HD
ATOM     42  H   UNK A   0     -12.830   6.859 128.122  0.00  0.00    +0.000 HD
ENDBRANCH  24  28
ENDBRANCH   1  24
TORSDOF 11
ENDMDL
MODEL 6
REMARK VINA RESULT:      -7.7      2.697      8.730
REMARK  Name = Leucovorin
REMARK  11 active torsions:
REMARK  status: ('A' for Active; 'I' for Inactive)
REMARK    1  A    between atoms: C_5  and  C_6
REMARK    2  A    between atoms: C_6  and  N_7
REMARK    3  A    between atoms: N_7  and  C_8
REMARK    4  A    between atoms: C_11  and  C_14
REMARK    5  A    between atoms: N_16  and  CA_17
REMARK    6  A    between atoms: CA_17  and  CB_18
REMARK    7  A    between atoms: CA_17  and  C_23
REMARK    8  A    between atoms: CB_18  and  CG_19
REMARK    9  A    between atoms: CG_19  and  CD_20
REMARK   10  A    between atoms: CD_20  and  OE1_21
REMARK   11  A    between atoms: C_23  and  O_24
REMARK                            x       y       z     vdW  Elec       q    Type
REMARK                         _______ _______ _______ _____ _____    ______ ____
ROOT
ATOM      1  N   UNK A   0      -8.169   1.090 131.753  0.00  0.00    +0.000 N 
ATOM      2  H   UNK A   0      -7.978   0.584 132.609  0.00  0.00    +0.000 HD
ENDROOT
BRANCH   1   3
ATOM      3  C   UNK A   0      -7.992   0.390 130.578  0.00  0.00    +0.000 A 
ATOM      4  C   UNK A   0      -7.906   1.050 129.350  0.00  0.00    +0.000 A 
ATOM      5  C   UNK A   0      -7.876   0.319 128.158  0.00  0.00    +0.000 A 
ATOM      6  C   UNK A   0      -7.853  -1.083 128.189  0.00  0.00    +0.000 A 
ATOM      7  C   UNK A   0      -7.852  -1.736 129.421  0.00  0.00    +0.000 A 
ATOM      8  C   UNK A   0      -7.908  -1.001 130.600  0.00  0.00    +0.000 A 
BRANCH   6   9
ATOM      9  C   UNK A   0      -7.830  -1.829 126.900  0.00  0.00    +0.000 C 
ATOM     10  O   UNK A   0      -7.851  -3.056 126.922  0.00  0.00    +0.000 OA
ATOM     11  N   GLU A   1      -7.839  -1.086 125.728  0.00  0.00    +0.000 N 
ATOM     12  H   GLU A   1      -7.747  -0.096 125.822  0.00  0.00    +0.000 HD
BRANCH  11  13
ATOM     13  CA  GLU A   1      -8.039  -1.678 124.394  0.00  0.00    +0.000 C 
BRANCH  13  14
ATOM     14  C   GLU A   1      -6.756  -2.207 123.694  0.00  0.00    +0.000 C 
ATOM     15  OXT GLU A   1      -6.341  -1.741 122.638  0.00  0.00    +0.000 OA
BRANCH  14  16
ATOM     16  O   GLU A   1      -6.055  -3.174 124.321  0.00  0.00    +0.000 OA
ATOM     17  H   GLU A   1      -5.467  -2.933 125.049  0.00  0.00    +0.000 HD
ENDBRANCH  14  16
ENDBRANCH  13  14
BRANCH  13  18
ATOM     18  CB  GLU A   1      -8.688  -0.681 123.395  0.00  0.00    +0.000 C 
BRANCH  18  19
ATOM     19  CG  GLU A   1      -8.550   0.786 123.786  0.00  0.00    +0.000 C 
BRANCH  19  20
ATOM     20  CD  GLU A   1      -9.767   1.555 124.209  0.00  0.00    +0.000 C 
ATOM     21  OE2 GLU A   1     -10.902   1.132 124.001  0.00  0.00    +0.000 OA
BRANCH  20  22
ATOM     22  OE1 GLU A   1      -9.558   2.695 124.886  0.00  0.00    +0.000 OA
ATOM     23  HE1 GLU A   1      -9.798   3.516 124.425  0.00  0.00    +0.000 HD
ENDBRANCH  20  22
ENDBRANCH  19  20
ENDBRANCH  18  19
ENDBRANCH  13  18
ENDBRANCH  11  13
ENDBRANCH   6   9
ENDBRANCH   1   3
BRANCH   1  24
ATOM     24  C   UNK A   0      -8.994   2.291 131.776  0.00  0.00    +0.000 C 
BRANCH  24  28
ATOM     25  C   UNK A   0      -7.120   4.653 130.148  0.00  0.00    +0.000 C 
ATOM     26  O   UNK A   0      -6.690   5.707 129.700  0.00  0.00    +0.000 OA
ATOM     27  N   UNK A   0      -8.199   4.513 130.999  0.00  0.00    +0.000 N 
ATOM     28  C   UNK A   0      -8.152   3.541 132.111  0.00  0.00    +0.000 C 
ATOM     29  C   UNK A   0      -8.651   4.207 133.417  0.00  0.00    +0.000 C 
ATOM     30  N   UNK A   0      -9.897   4.897 133.160  0.00  0.00    +0.000 N 
ATOM     31  C   UNK A   0     -10.197   5.483 131.940  0.00  0.00    +0.000 A 
ATOM     32  C   UNK A   0      -9.337   5.318 130.900  0.00  0.00    +0.000 A 
ATOM     33  C   UNK A   0      -9.758   5.869 129.583  0.00  0.00    +0.000 A 
ATOM     34  O   UNK A   0      -9.196   5.616 128.516  0.00  0.00    +0.000 OA
ATOM     35  N   UNK A   0     -10.920   6.569 129.590  0.00  0.00    +0.000 N 
ATOM     36  C   UNK A   0     -11.708   6.667 130.688  0.00  0.00    +0.000 A 
ATOM     37  N   UNK A   0     -12.876   7.316 130.514  0.00  0.00    +0.000 N 
ATOM     38  N   UNK A   0     -11.379   6.174 131.835  0.00  0.00    +0.000 NA
ATOM     39  H   UNK A   0     -10.489   5.196 133.927  0.00  0.00    +0.000 HD
ATOM     40  H   UNK A   0     -11.225   6.913 128.697  0.00  0.00    +0.000 HD
ATOM     41  H   UNK A   0     -13.140   7.745 129.642  0.00  0.00    +0.000 HD
ATOM     42  H   UNK A   0     -13.440   7.502 131.334  0.00  0.00    +0.000 HD
ENDBRANCH  24  28
ENDBRANCH   1  24
TORSDOF 11
ENDMDL
MODEL 7
REMARK VINA RESULT:      -7.5      4.629      7.499
REMARK  Name = Leucovorin
REMARK  11 active torsions:
REMARK  status: ('A' for Active; 'I' for Inactive)
REMARK    1  A    between atoms: C_5  and  C_6
REMARK    2  A    between atoms: C_6  and  N_7
REMARK    3  A    between atoms: N_7  and  C_8
REMARK    4  A    between atoms: C_11  and  C_14
REMARK    5  A    between atoms: N_16  and  CA_17
REMARK    6  A    between atoms: CA_17  and  CB_18
REMARK    7  A    between atoms: CA_17  and  C_23
REMARK    8  A    between atoms: CB_18  and  CG_19
REMARK    9  A    between atoms: CG_19  and  CD_20
REMARK   10  A    between atoms: CD_20  and  OE1_21
REMARK   11  A    between atoms: C_23  and  O_24
REMARK                            x       y       z     vdW  Elec       q    Type
REMARK                         _______ _______ _______ _____ _____    ______ ____
ROOT
ATOM      1  N   UNK A   0      -9.019  -1.936 124.810  0.00  0.00    +0.000 N 
ATOM      2  H   UNK A   0      -9.489  -2.636 124.250  0.00  0.00    +0.000 HD
ENDROOT
BRANCH   1   3
ATOM      3  C   UNK A   0      -8.477  -2.372 126.002  0.00  0.00    +0.000 A 
ATOM      4  C   UNK A   0      -9.146  -3.303 126.799  0.00  0.00    +0.000 A 
ATOM      5  C   UNK A   0      -8.657  -3.622 128.070  0.00  0.00    +0.000 A 
ATOM      6  C   UNK A   0      -7.450  -3.067 128.523  0.00  0.00    +0.000 A 
ATOM      7  C   UNK A   0      -6.743  -2.203 127.687  0.00  0.00    +0.000 A 
ATOM      8  C   UNK A   0      -7.251  -1.874 126.435  0.00  0.00    +0.000 A 
BRANCH   6   9
ATOM      9  C   UNK A   0      -6.964  -3.421 129.885  0.00  0.00    +0.000 C 
ATOM     10  O   UNK A   0      -6.413  -4.505 130.057  0.00  0.00    +0.000 OA
ATOM     11  N   GLU A   1      -7.114  -2.473 130.887  0.00  0.00    +0.000 N 
ATOM     12  H   GLU A   1      -7.640  -1.656 130.659  0.00  0.00    +0.000 HD
BRANCH  11  13
ATOM     13  CA  GLU A   1      -6.490  -2.593 132.217  0.00  0.00    +0.000 C 
BRANCH  13  14
ATOM     14  C   GLU A   1      -7.392  -2.206 133.421  0.00  0.00    +0.000 C 
ATOM     15  OXT GLU A   1      -8.288  -2.935 133.834  0.00  0.00    +0.000 OA
BRANCH  14  16
ATOM     16  O   GLU A   1      -7.123  -1.049 134.059  0.00  0.00    +0.000 OA
ATOM     17  H   GLU A   1      -7.804  -0.364 134.100  0.00  0.00    +0.000 HD
ENDBRANCH  14  16
ENDBRANCH  13  14
BRANCH  13  18
ATOM     18  CB  GLU A   1      -5.209  -1.725 132.349  0.00  0.00    +0.000 C 
BRANCH  18  19
ATOM     19  CG  GLU A   1      -3.982  -2.296 131.647  0.00  0.00    +0.000 C 
BRANCH  19  20
ATOM     20  CD  GLU A   1      -3.623  -1.808 130.274  0.00  0.00    +0.000 C 
ATOM     21  OE2 GLU A   1      -4.348  -1.033 129.655  0.00  0.00    +0.000 OA
BRANCH  20  22
ATOM     22  OE1 GLU A   1      -2.438  -2.204 129.782  0.00  0.00    +0.000 OA
ATOM     23  HE1 GLU A   1      -2.452  -2.579 128.886  0.00  0.00    +0.000 HD
ENDBRANCH  20  22
ENDBRANCH  19  20
ENDBRANCH  18  19
ENDBRANCH  13  18
ENDBRANCH  11  13
ENDBRANCH   6   9
ENDBRANCH   1   3
BRANCH   1  24
ATOM     24  C   UNK A   0      -8.556  -0.696 124.201  0.00  0.00    +0.000 C 
BRANCH  24  28
ATOM     25  C   UNK A   0      -8.554   1.517 126.817  0.00  0.00    +0.000 C 
ATOM     26  O   UNK A   0      -8.506   2.534 127.496  0.00  0.00    +0.000 OA
ATOM     27  N   UNK A   0      -8.510   1.458 125.438  0.00  0.00    +0.000 N 
ATOM     28  C   UNK A   0      -9.376   0.512 124.702  0.00  0.00    +0.000 C 
ATOM     29  C   UNK A   0     -10.068   1.237 123.522  0.00  0.00    +0.000 C 
ATOM     30  N   UNK A   0      -9.082   1.990 122.775  0.00  0.00    +0.000 N 
ATOM     31  C   UNK A   0      -7.965   2.562 123.364  0.00  0.00    +0.000 A 
ATOM     32  C   UNK A   0      -7.718   2.324 124.679  0.00  0.00    +0.000 A 
ATOM     33  C   UNK A   0      -6.449   2.866 125.236  0.00  0.00    +0.000 A 
ATOM     34  O   UNK A   0      -5.988   2.556 126.336  0.00  0.00    +0.000 OA
ATOM     35  N   UNK A   0      -5.719   3.629 124.384  0.00  0.00    +0.000 N 
ATOM     36  C   UNK A   0      -6.056   3.799 123.082  0.00  0.00    +0.000 A 
ATOM     37  N   UNK A   0      -5.184   4.507 122.339  0.00  0.00    +0.000 N 
ATOM     38  N   UNK A   0      -7.137   3.315 122.568  0.00  0.00    +0.000 NA
ATOM     39  H   UNK A   0      -9.295   2.340 121.848  0.00  0.00    +0.000 HD
ATOM     40  H   UNK A   0      -4.845   3.969 124.745  0.00  0.00    +0.000 HD
ATOM     41  H   UNK A   0      -4.353   4.929 122.723  0.00  0.00    +0.000 HD
ATOM     42  H   UNK A   0      -5.453   4.745 121.393  0.00  0.00    +0.000 HD
ENDBRANCH  24  28
ENDBRANCH   1  24
TORSDOF 11
ENDMDL
MODEL 8
REMARK VINA RESULT:      -7.5      2.021      3.332
REMARK  Name = Leucovorin
REMARK  11 active torsions:
REMARK  status: ('A' for Active; 'I' for Inactive)
REMARK    1  A    between atoms: C_5  and  C_6
REMARK    2  A    between atoms: C_6  and  N_7
REMARK    3  A    between atoms: N_7  and  C_8
REMARK    4  A    between atoms: C_11  and  C_14
REMARK    5  A    between atoms: N_16  and  CA_17
REMARK    6  A    between atoms: CA_17  and  CB_18
REMARK    7  A    between atoms: CA_17  and  C_23
REMARK    8  A    between atoms: CB_18  and  CG_19
REMARK    9  A    between atoms: CG_19  and  CD_20
REMARK   10  A    between atoms: CD_20  and  OE1_21
REMARK   11  A    between atoms: C_23  and  O_24
REMARK                            x       y       z     vdW  Elec       q    Type
REMARK                         _______ _______ _______ _____ _____    ______ ____
ROOT
ATOM      1  N   UNK A   0      -6.534  -1.262 128.349  0.00  0.00    +0.000 N 
ATOM      2  H   UNK A   0      -6.344  -1.955 129.063  0.00  0.00    +0.000 HD
ENDROOT
BRANCH   1   3
ATOM      3  C   UNK A   0      -7.156  -0.106 128.773  0.00  0.00    +0.000 A 
ATOM      4  C   UNK A   0      -7.700  -0.008 130.055  0.00  0.00    +0.000 A 
ATOM      5  C   UNK A   0      -8.455   1.113 130.417  0.00  0.00    +0.000 A 
ATOM      6  C   UNK A   0      -8.607   2.182 129.520  0.00  0.00    +0.000 A 
ATOM      7  C   UNK A   0      -7.989   2.115 128.272  0.00  0.00    +0.000 A 
ATOM      8  C   UNK A   0      -7.262   0.985 127.913  0.00  0.00    +0.000 A 
BRANCH   6   9
ATOM      9  C   UNK A   0      -9.425   3.355 129.935  0.00  0.00    +0.000 C 
ATOM     10  O   UNK A   0     -10.420   3.171 130.629  0.00  0.00    +0.000 OA
ATOM     11  N   GLU A   1      -8.981   4.614 129.556  0.00  0.00    +0.000 N 
ATOM     12  H   GLU A   1      -8.202   4.647 128.932  0.00  0.00    +0.000 HD
BRANCH  11  13
ATOM     13  CA  GLU A   1      -9.557   5.867 130.073  0.00  0.00    +0.000 C 
BRANCH  13  14
ATOM     14  C   GLU A   1     -10.247   6.776 129.018  0.00  0.00    +0.000 C 
ATOM     15  OXT GLU A   1     -10.010   6.690 127.818  0.00  0.00    +0.000 OA
BRANCH  14  16
ATOM     16  O   GLU A   1     -11.183   7.643 129.455  0.00  0.00    +0.000 OA
ATOM     17  H   GLU A   1     -11.570   8.272 128.832  0.00  0.00    +0.000 HD
ENDBRANCH  14  16
ENDBRANCH  13  14
BRANCH  13  18
ATOM     18  CB  GLU A   1      -8.497   6.759 130.776  0.00  0.00    +0.000 C 
BRANCH  18  19
ATOM     19  CG  GLU A   1      -7.858   6.131 132.009  0.00  0.00    +0.000 C 
BRANCH  19  20
ATOM     20  CD  GLU A   1      -8.734   5.557 133.084  0.00  0.00    +0.000 C 
ATOM     21  OE2 GLU A   1      -8.762   4.351 133.317  0.00  0.00    +0.000 OA
BRANCH  20  22
ATOM     22  OE1 GLU A   1      -9.434   6.431 133.824  0.00  0.00    +0.000 OA
ATOM     23  HE1 GLU A   1      -9.734   7.234 133.366  0.00  0.00    +0.000 HD
ENDBRANCH  20  22
ENDBRANCH  19  20
ENDBRANCH  18  19
ENDBRANCH  13  18
ENDBRANCH  11  13
ENDBRANCH   6   9
ENDBRANCH   1   3
BRANCH   1  24
ATOM     24  C   UNK A   0      -5.807  -1.286 127.087  0.00  0.00    +0.000 C 
BRANCH  24  28
ATOM     25  C   UNK A   0      -8.923  -2.509 126.357  0.00  0.00    +0.000 C 
ATOM     26  O   UNK A   0      -9.976  -2.785 125.797  0.00  0.00    +0.000 OA
ATOM     27  N   UNK A   0      -7.860  -1.827 125.798  0.00  0.00    +0.000 N 
ATOM     28  C   UNK A   0      -6.471  -2.247 126.078  0.00  0.00    +0.000 C 
ATOM     29  C   UNK A   0      -5.661  -2.309 124.760  0.00  0.00    +0.000 C 
ATOM     30  N   UNK A   0      -5.872  -1.090 124.008  0.00  0.00    +0.000 N 
ATOM     31  C   UNK A   0      -7.061  -0.377 124.043  0.00  0.00    +0.000 A 
ATOM     32  C   UNK A   0      -8.041  -0.773 124.898  0.00  0.00    +0.000 A 
ATOM     33  C   UNK A   0      -9.251   0.089 124.981  0.00  0.00    +0.000 A 
ATOM     34  O   UNK A   0     -10.117  -0.017 125.851  0.00  0.00    +0.000 OA
ATOM     35  N   UNK A   0      -9.284   1.131 124.112  0.00  0.00    +0.000 N 
ATOM     36  C   UNK A   0      -8.243   1.440 123.302  0.00  0.00    +0.000 A 
ATOM     37  N   UNK A   0      -8.388   2.557 122.563  0.00  0.00    +0.000 N 
ATOM     38  N   UNK A   0      -7.170   0.724 123.232  0.00  0.00    +0.000 NA
ATOM     39  H   UNK A   0      -5.257  -0.846 123.240  0.00  0.00    +0.000 HD
ATOM     40  H   UNK A   0     -10.083   1.735 124.188  0.00  0.00    +0.000 HD
ATOM     41  H   UNK A   0      -9.229   3.112 122.568  0.00  0.00    +0.000 HD
ATOM     42  H   UNK A   0      -7.679   2.761 121.869  0.00  0.00    +0.000 HD
ENDBRANCH  24  28
ENDBRANCH   1  24
TORSDOF 11
ENDMDL
MODEL 9
REMARK VINA RESULT:      -7.4      5.064      6.988
REMARK  Name = Leucovorin
REMARK  11 active torsions:
REMARK  status: ('A' for Active; 'I' for Inactive)
REMARK    1  A    between atoms: C_5  and  C_6
REMARK    2  A    between atoms: C_6  and  N_7
REMARK    3  A    between atoms: N_7  and  C_8
REMARK    4  A    between atoms: C_11  and  C_14
REMARK    5  A    between atoms: N_16  and  CA_17
REMARK    6  A    between atoms: CA_17  and  CB_18
REMARK    7  A    between atoms: CA_17  and  C_23
REMARK    8  A    between atoms: CB_18  and  CG_19
REMARK    9  A    between atoms: CG_19  and  CD_20
REMARK   10  A    between atoms: CD_20  and  OE1_21
REMARK   11  A    between atoms: C_23  and  O_24
REMARK                            x       y       z     vdW  Elec       q    Type
REMARK                         _______ _______ _______ _____ _____    ______ ____
ROOT
ATOM      1  N   UNK A   0      -8.652   0.029 131.296  0.00  0.00    +0.000 N 
ATOM      2  H   UNK A   0      -9.389  -0.579 131.632  0.00  0.00    +0.000 HD
ENDROOT
BRANCH   1   3
ATOM      3  C   UNK A   0      -8.910   1.384 131.347  0.00  0.00    +0.000 A 
ATOM      4  C   UNK A   0      -9.034   2.048 132.569  0.00  0.00    +0.000 A 
ATOM      5  C   UNK A   0      -9.440   3.386 132.605  0.00  0.00    +0.000 A 
ATOM      6  C   UNK A   0      -9.652   4.093 131.412  0.00  0.00    +0.000 A 
ATOM      7  C   UNK A   0      -9.443   3.448 130.193  0.00  0.00    +0.000 A 
ATOM      8  C   UNK A   0      -9.063   2.111 130.169  0.00  0.00    +0.000 A 
BRANCH   6   9
ATOM      9  C   UNK A   0     -10.092   5.513 131.488  0.00  0.00    +0.000 C 
ATOM     10  O   UNK A   0      -9.873   6.150 132.514  0.00  0.00    +0.000 OA
ATOM     11  N   GLU A   1     -10.687   6.063 130.361  0.00  0.00    +0.000 N 
ATOM     12  H   GLU A   1     -10.884   5.439 129.607  0.00  0.00    +0.000 HD
BRANCH  11  13
ATOM     13  CA  GLU A   1     -10.971   7.501 130.214  0.00  0.00    +0.000 C 
BRANCH  13  14
ATOM     14  C   GLU A   1     -12.470   7.902 130.290  0.00  0.00    +0.000 C 
ATOM     15  OXT GLU A   1     -12.975   8.716 129.524  0.00  0.00    +0.000 OA
BRANCH  14  16
ATOM     16  O   GLU A   1     -13.240   7.273 131.201  0.00  0.00    +0.000 OA
ATOM     17  H   GLU A   1     -14.146   7.033 130.966  0.00  0.00    +0.000 HD
ENDBRANCH  14  16
ENDBRANCH  13  14
BRANCH  13  18
ATOM     18  CB  GLU A   1     -10.446   8.072 128.868  0.00  0.00    +0.000 C 
BRANCH  18  19
ATOM     19  CG  GLU A   1     -10.417   7.067 127.722  0.00  0.00    +0.000 C 
BRANCH  19  20
ATOM     20  CD  GLU A   1     -11.338   7.255 126.552  0.00  0.00    +0.000 C 
ATOM     21  OE2 GLU A   1     -12.463   6.761 126.531  0.00  0.00    +0.000 OA
BRANCH  20  22
ATOM     22  OE1 GLU A   1     -10.900   8.045 125.559  0.00  0.00    +0.000 OA
ATOM     23  HE1 GLU A   1     -10.032   7.820 125.185  0.00  0.00    +0.000 HD
ENDBRANCH  20  22
ENDBRANCH  19  20
ENDBRANCH  18  19
ENDBRANCH  13  18
ENDBRANCH  11  13
ENDBRANCH   6   9
ENDBRANCH   1   3
BRANCH   1  24
ATOM     24  C   UNK A   0      -7.282  -0.456 131.201  0.00  0.00    +0.000 C 
BRANCH  24  28
ATOM     25  C   UNK A   0      -5.658  -3.323 130.260  0.00  0.00    +0.000 C 
ATOM     26  O   UNK A   0      -4.943  -4.316 130.240  0.00  0.00    +0.000 OA
ATOM     27  N   UNK A   0      -5.841  -2.476 131.335  0.00  0.00    +0.000 N 
ATOM     28  C   UNK A   0      -7.181  -1.933 131.640  0.00  0.00    +0.000 C 
ATOM     29  C   UNK A   0      -7.480  -2.080 133.152  0.00  0.00    +0.000 C 
ATOM     30  N   UNK A   0      -6.350  -1.591 133.915  0.00  0.00    +0.000 N 
ATOM     31  C   UNK A   0      -5.041  -1.682 133.468  0.00  0.00    +0.000 A 
ATOM     32  C   UNK A   0      -4.804  -2.153 132.215  0.00  0.00    +0.000 A 
ATOM     33  C   UNK A   0      -3.394  -2.126 131.740  0.00  0.00    +0.000 A 
ATOM     34  O   UNK A   0      -3.054  -2.314 130.571  0.00  0.00    +0.000 OA
ATOM     35  N   UNK A   0      -2.479  -1.721 132.657  0.00  0.00    +0.000 N 
ATOM     36  C   UNK A   0      -2.827  -1.264 133.884  0.00  0.00    +0.000 A 
ATOM     37  N   UNK A   0      -1.814  -0.811 134.649  0.00  0.00    +0.000 N 
ATOM     38  N   UNK A   0      -4.046  -1.251 134.310  0.00  0.00    +0.000 NA
ATOM     39  H   UNK A   0      -6.444  -1.393 134.905  0.00  0.00    +0.000 HD
ATOM     40  H   UNK A   0      -1.531  -1.669 132.330  0.00  0.00    +0.000 HD
ATOM     41  H   UNK A   0      -0.850  -0.846 134.358  0.00  0.00    +0.000 HD
ATOM     42  H   UNK A   0      -2.020  -0.562 135.608  0.00  0.00    +0.000 HD
ENDBRANCH  24  28
ENDBRANCH   1  24
TORSDOF 11
ENDMDL
