MODEL 1
REMARK VINA RESULT:      -7.0      0.000      0.000
REMARK  Name = Levacetylmethadol
REMARK  14 active torsions:
REMARK  status: ('A' for Active; 'I' for Inactive)
REMARK    1  A    between atoms: C_1  and  C_2
REMARK    2  A    between atoms: C_2  and  C_3
REMARK    3  A    between atoms: C_3  and  O_4
REMARK    4  A    between atoms: C_3  and  C_8
REMARK    5  A    between atoms: O_4  and  C_5
REMARK    6  A    between atoms: C_5  and  C_6
REMARK    7  A    between atoms: C_8  and  C_9
REMARK    8  A    between atoms: C_8  and  C_15
REMARK    9  A    between atoms: C_8  and  C_21
REMARK   10  A    between atoms: C_9  and  C_10
REMARK   11  A    between atoms: C_10  and  C_11
REMARK   12  A    between atoms: C_10  and  N_12
REMARK   13  A    between atoms: N_12  and  C_13
REMARK   14  A    between atoms: N_12  and  C_14
REMARK                            x       y       z     vdW  Elec       q    Type
REMARK                         _______ _______ _______ _____ _____    ______ ____
ROOT
ATOM      1  C   UNL     1      -6.598  -1.411 125.981  0.00  0.00    +0.000 C 
ENDROOT
BRANCH   1   2
ATOM      2  C   UNL     1      -7.669  -0.306 125.548  0.00  0.00    +0.000 A 
ATOM      3  C   UNL     1      -7.461   0.515 124.436  0.00  0.00    +0.000 A 
ATOM      4  C   UNL     1      -8.442   1.311 123.835  0.00  0.00    +0.000 A 
ATOM      5  C   UNL     1      -9.720   1.282 124.334  0.00  0.00    +0.000 A 
ATOM      6  C   UNL     1      -9.902   0.720 125.582  0.00  0.00    +0.000 A 
ATOM      7  C   UNL     1      -8.840   0.055 126.223  0.00  0.00    +0.000 A 
ENDBRANCH   1   2
BRANCH   1   8
ATOM      8  C   UNL     1      -6.950  -2.147 127.383  0.00  0.00    +0.000 A 
ATOM      9  C   UNL     1      -8.174  -2.742 127.721  0.00  0.00    +0.000 A 
ATOM     10  C   UNL     1      -8.446  -3.249 128.996  0.00  0.00    +0.000 A 
ATOM     11  C   UNL     1      -7.399  -3.554 129.840  0.00  0.00    +0.000 A 
ATOM     12  C   UNL     1      -6.131  -3.140 129.489  0.00  0.00    +0.000 A 
ATOM     13  C   UNL     1      -5.965  -2.307 128.377  0.00  0.00    +0.000 A 
ENDBRANCH   1   8
BRANCH   1  14
ATOM     14  C   UNL     1      -6.383  -2.748 124.924  0.00  0.00    +0.000 C 
BRANCH  14  16
ATOM     15  C   UNL     1      -4.356  -3.490 123.425  0.00  0.00    +0.000 C 
ATOM     16  C   UNL     1      -5.365  -2.417 123.765  0.00  0.00    +0.000 C 
ENDBRANCH  14  16
BRANCH  14  17
ATOM     17  O   UNL     1      -7.482  -3.419 124.199  0.00  0.00    +0.000 OA
BRANCH  17  18
ATOM     18  C   UNL     1      -8.718  -2.968 123.869  0.00  0.00    +0.000 C 
ATOM     19  C   UNL     1      -8.813  -2.298 122.545  0.00  0.00    +0.000 C 
ATOM     20  O   UNL     1      -9.682  -3.145 124.581  0.00  0.00    +0.000 OA
ENDBRANCH  17  18
ENDBRANCH  14  17
ENDBRANCH   1  14
BRANCH   1  21
ATOM     21  C   UNL     1      -5.260  -0.566 126.233  0.00  0.00    +0.000 C 
BRANCH  21  22
ATOM     22  C   UNL     1      -5.377   0.859 126.888  0.00  0.00    +0.000 C 
ATOM     23  C   UNL     1      -4.448   1.853 126.234  0.00  0.00    +0.000 C 
BRANCH  22  24
ATOM     24  N   UNL     1      -5.184   0.984 128.336  0.00  0.00    +0.000 NA
ATOM     25  C   UNL     1      -4.261   2.120 128.584  0.00  0.00    +0.000 C 
ATOM     26  C   UNL     1      -6.476   1.290 128.950  0.00  0.00    +0.000 C 
ENDBRANCH  22  24
ENDBRANCH  21  22
ENDBRANCH   1  21
TORSDOF 9
ENDMDL
MODEL 2
REMARK VINA RESULT:      -6.9      2.729      5.341
REMARK  Name = Levacetylmethadol
REMARK  14 active torsions:
REMARK  status: ('A' for Active; 'I' for Inactive)
REMARK    1  A    between atoms: C_1  and  C_2
REMARK    2  A    between atoms: C_2  and  C_3
REMARK    3  A    between atoms: C_3  and  O_4
REMARK    4  A    between atoms: C_3  and  C_8
REMARK    5  A    between atoms: O_4  and  C_5
REMARK    6  A    between atoms: C_5  and  C_6
REMARK    7  A    between atoms: C_8  and  C_9
REMARK    8  A    between atoms: C_8  and  C_15
REMARK    9  A    between atoms: C_8  and  C_21
REMARK   10  A    between atoms: C_9  and  C_10
REMARK   11  A    between atoms: C_10  and  C_11
REMARK   12  A    between atoms: C_10  and  N_12
REMARK   13  A    between atoms: N_12  and  C_13
REMARK   14  A    between atoms: N_12  and  C_14
REMARK                            x       y       z     vdW  Elec       q    Type
REMARK                         _______ _______ _______ _____ _____    ______ ____
ROOT
ATOM      1  C   UNL     1      -8.015   1.039 125.339  0.00  0.00    +0.000 C 
ENDROOT
BRANCH   1   2
ATOM      2  C   UNL     1      -7.799  -0.531 125.125  0.00  0.00    +0.000 A 
ATOM      3  C   UNL     1      -8.246  -1.463 126.066  0.00  0.00    +0.000 A 
ATOM      4  C   UNL     1      -8.339  -2.842 125.844  0.00  0.00    +0.000 A 
ATOM      5  C   UNL     1      -8.001  -3.342 124.611  0.00  0.00    +0.000 A 
ATOM      6  C   UNL     1      -7.297  -2.513 123.761  0.00  0.00    +0.000 A 
ATOM      7  C   UNL     1      -7.093  -1.161 124.095  0.00  0.00    +0.000 A 
ENDBRANCH   1   2
BRANCH   1   8
ATOM      8  C   UNL     1      -6.636   1.859 125.582  0.00  0.00    +0.000 A 
ATOM      9  C   UNL     1      -6.465   3.245 125.458  0.00  0.00    +0.000 A 
ATOM     10  C   UNL     1      -5.217   3.868 125.563  0.00  0.00    +0.000 A 
ATOM     11  C   UNL     1      -4.182   3.208 126.190  0.00  0.00    +0.000 A 
ATOM     12  C   UNL     1      -4.342   1.872 126.493  0.00  0.00    +0.000 A 
ATOM     13  C   UNL     1      -5.477   1.197 126.031  0.00  0.00    +0.000 A 
ENDBRANCH   1   8
BRANCH   1  14
ATOM     14  C   UNL     1      -8.723   1.914 124.043  0.00  0.00    +0.000 C 
BRANCH  14  16
ATOM     15  C   UNL     1     -10.269   0.427 122.524  0.00  0.00    +0.000 C 
ATOM     16  C   UNL     1     -10.166   1.377 123.695  0.00  0.00    +0.000 C 
ENDBRANCH  14  16
BRANCH  14  17
ATOM     17  O   UNL     1      -8.111   2.061 122.705  0.00  0.00    +0.000 OA
BRANCH  17  18
ATOM     18  C   UNL     1      -7.917   3.170 121.948  0.00  0.00    +0.000 C 
ATOM     19  C   UNL     1      -6.501   3.600 121.811  0.00  0.00    +0.000 C 
ATOM     20  O   UNL     1      -8.828   3.734 121.384  0.00  0.00    +0.000 OA
ENDBRANCH  17  18
ENDBRANCH  14  17
ENDBRANCH   1  14
BRANCH   1  21
ATOM     21  C   UNL     1      -8.845   1.125 126.707  0.00  0.00    +0.000 C 
BRANCH  21  22
ATOM     22  C   UNL     1      -8.174   1.801 127.958  0.00  0.00    +0.000 C 
ATOM     23  C   UNL     1      -7.817   0.786 129.017  0.00  0.00    +0.000 C 
BRANCH  22  24
ATOM     24  N   UNL     1      -8.885   2.890 128.634  0.00  0.00    +0.000 NA
ATOM     25  C   UNL     1      -9.113   2.490 130.046  0.00  0.00    +0.000 C 
ATOM     26  C   UNL     1      -8.034   4.079 128.618  0.00  0.00    +0.000 C 
ENDBRANCH  22  24
ENDBRANCH  21  22
ENDBRANCH   1  21
TORSDOF 9
ENDMDL
MODEL 3
REMARK VINA RESULT:      -6.9      1.503      4.529
REMARK  Name = Levacetylmethadol
REMARK  14 active torsions:
REMARK  status: ('A' for Active; 'I' for Inactive)
REMARK    1  A    between atoms: C_1  and  C_2
REMARK    2  A    between atoms: C_2  and  C_3
REMARK    3  A    between atoms: C_3  and  O_4
REMARK    4  A    between atoms: C_3  and  C_8
REMARK    5  A    between atoms: O_4  and  C_5
REMARK    6  A    between atoms: C_5  and  C_6
REMARK    7  A    between atoms: C_8  and  C_9
REMARK    8  A    between atoms: C_8  and  C_15
REMARK    9  A    between atoms: C_8  and  C_21
REMARK   10  A    between atoms: C_9  and  C_10
REMARK   11  A    between atoms: C_10  and  C_11
REMARK   12  A    between atoms: C_10  and  N_12
REMARK   13  A    between atoms: N_12  and  C_13
REMARK   14  A    between atoms: N_12  and  C_14
REMARK                            x       y       z     vdW  Elec       q    Type
REMARK                         _______ _______ _______ _____ _____    ______ ____
ROOT
ATOM      1  C   UNL     1      -7.378  -1.337 126.034  0.00  0.00    +0.000 C 
ENDROOT
BRANCH   1   2
ATOM      2  C   UNL     1      -7.115  -1.987 127.471  0.00  0.00    +0.000 A 
ATOM      3  C   UNL     1      -8.161  -2.501 128.242  0.00  0.00    +0.000 A 
ATOM      4  C   UNL     1      -7.999  -3.312 129.370  0.00  0.00    +0.000 A 
ATOM      5  C   UNL     1      -6.732  -3.670 129.756  0.00  0.00    +0.000 A 
ATOM      6  C   UNL     1      -5.679  -2.966 129.208  0.00  0.00    +0.000 A 
ATOM      7  C   UNL     1      -5.905  -2.042 128.172  0.00  0.00    +0.000 A 
ENDBRANCH   1   2
BRANCH   1   8
ATOM      8  C   UNL     1      -6.498  -2.004 124.846  0.00  0.00    +0.000 A 
ATOM      9  C   UNL     1      -6.265  -1.453 123.578  0.00  0.00    +0.000 A 
ATOM     10  C   UNL     1      -5.597  -2.143 122.561  0.00  0.00    +0.000 A 
ATOM     11  C   UNL     1      -4.792  -3.213 122.885  0.00  0.00    +0.000 A 
ATOM     12  C   UNL     1      -4.846  -3.710 124.170  0.00  0.00    +0.000 A 
ATOM     13  C   UNL     1      -5.811  -3.216 125.056  0.00  0.00    +0.000 A 
ENDBRANCH   1   8
BRANCH   1  14
ATOM     14  C   UNL     1      -8.971  -1.456 125.403  0.00  0.00    +0.000 C 
BRANCH  14  16
ATOM     15  C   UNL     1      -9.527  -3.317 123.632  0.00  0.00    +0.000 C 
ATOM     16  C   UNL     1      -9.365  -2.952 125.090  0.00  0.00    +0.000 C 
ENDBRANCH  14  16
BRANCH  14  17
ATOM     17  O   UNL     1      -9.442  -0.746 124.195  0.00  0.00    +0.000 OA
BRANCH  17  18
ATOM     18  C   UNL     1      -9.729   0.566 124.007  0.00  0.00    +0.000 C 
ATOM     19  C   UNL     1      -8.708   1.332 123.244  0.00  0.00    +0.000 C 
ATOM     20  O   UNL     1     -10.766   1.063 124.389  0.00  0.00    +0.000 OA
ENDBRANCH  17  18
ENDBRANCH  14  17
ENDBRANCH   1  14
BRANCH   1  21
ATOM     21  C   UNL     1      -6.859   0.170 126.197  0.00  0.00    +0.000 C 
BRANCH  21  22
ATOM     22  C   UNL     1      -7.228   0.960 127.505  0.00  0.00    +0.000 C 
ATOM     23  C   UNL     1      -8.636   1.501 127.453  0.00  0.00    +0.000 C 
BRANCH  22  24
ATOM     24  N   UNL     1      -6.362   2.067 127.925  0.00  0.00    +0.000 NA
ATOM     25  C   UNL     1      -4.950   1.645 127.742  0.00  0.00    +0.000 C 
ATOM     26  C   UNL     1      -6.623   3.214 127.057  0.00  0.00    +0.000 C 
ENDBRANCH  22  24
ENDBRANCH  21  22
ENDBRANCH   1  21
TORSDOF 9
ENDMDL
MODEL 4
REMARK VINA RESULT:      -6.6      1.671      4.588
REMARK  Name = Levacetylmethadol
REMARK  14 active torsions:
REMARK  status: ('A' for Active; 'I' for Inactive)
REMARK    1  A    between atoms: C_1  and  C_2
REMARK    2  A    between atoms: C_2  and  C_3
REMARK    3  A    between atoms: C_3  and  O_4
REMARK    4  A    between atoms: C_3  and  C_8
REMARK    5  A    between atoms: O_4  and  C_5
REMARK    6  A    between atoms: C_5  and  C_6
REMARK    7  A    between atoms: C_8  and  C_9
REMARK    8  A    between atoms: C_8  and  C_15
REMARK    9  A    between atoms: C_8  and  C_21
REMARK   10  A    between atoms: C_9  and  C_10
REMARK   11  A    between atoms: C_10  and  C_11
REMARK   12  A    between atoms: C_10  and  N_12
REMARK   13  A    between atoms: N_12  and  C_13
REMARK   14  A    between atoms: N_12  and  C_14
REMARK                            x       y       z     vdW  Elec       q    Type
REMARK                         _______ _______ _______ _____ _____    ______ ____
ROOT
ATOM      1  C   UNL     1      -7.290  -1.483 125.993  0.00  0.00    +0.000 C 
ENDROOT
BRANCH   1   2
ATOM      2  C   UNL     1      -6.273  -2.017 124.881  0.00  0.00    +0.000 A 
ATOM      3  C   UNL     1      -5.311  -2.987 125.178  0.00  0.00    +0.000 A 
ATOM      4  C   UNL     1      -4.569  -3.695 124.227  0.00  0.00    +0.000 A 
ATOM      5  C   UNL     1      -4.802  -3.465 122.894  0.00  0.00    +0.000 A 
ATOM      6  C   UNL     1      -5.523  -2.335 122.562  0.00  0.00    +0.000 A 
ATOM      7  C   UNL     1      -6.130  -1.559 123.567  0.00  0.00    +0.000 A 
ENDBRANCH   1   2
BRANCH   1   8
ATOM      8  C   UNL     1      -6.971   0.026 126.497  0.00  0.00    +0.000 A 
ATOM      9  C   UNL     1      -7.773   0.802 127.345  0.00  0.00    +0.000 A 
ATOM     10  C   UNL     1      -7.494   2.142 127.638  0.00  0.00    +0.000 A 
ATOM     11  C   UNL     1      -6.218   2.626 127.439  0.00  0.00    +0.000 A 
ATOM     12  C   UNL     1      -5.318   1.842 126.749  0.00  0.00    +0.000 A 
ATOM     13  C   UNL     1      -5.760   0.657 126.151  0.00  0.00    +0.000 A 
ENDBRANCH   1   8
BRANCH   1  14
ATOM     14  C   UNL     1      -8.944  -1.364 125.547  0.00  0.00    +0.000 C 
BRANCH  14  16
ATOM     15  C   UNL     1      -9.535  -3.406 124.001  0.00  0.00    +0.000 C 
ATOM     16  C   UNL     1      -9.606  -2.786 125.378  0.00  0.00    +0.000 C 
ENDBRANCH  14  16
BRANCH  14  17
ATOM     17  O   UNL     1      -9.434  -0.644 124.353  0.00  0.00    +0.000 OA
BRANCH  17  18
ATOM     18  C   UNL     1      -9.688   0.676 124.169  0.00  0.00    +0.000 C 
ATOM     19  C   UNL     1      -8.576   1.453 123.559  0.00  0.00    +0.000 C 
ATOM     20  O   UNL     1     -10.761   1.171 124.436  0.00  0.00    +0.000 OA
ENDBRANCH  17  18
ENDBRANCH  14  17
ENDBRANCH   1  14
BRANCH   1  21
ATOM     21  C   UNL     1      -7.026  -2.448 127.244  0.00  0.00    +0.000 C 
BRANCH  21  22
ATOM     22  C   UNL     1      -6.391  -1.840 128.548  0.00  0.00    +0.000 C 
ATOM     23  C   UNL     1      -4.901  -2.076 128.607  0.00  0.00    +0.000 C 
BRANCH  22  24
ATOM     24  N   UNL     1      -6.937  -2.241 129.849  0.00  0.00    +0.000 NA
ATOM     25  C   UNL     1      -8.110  -3.119 129.608  0.00  0.00    +0.000 C 
ATOM     26  C   UNL     1      -5.918  -3.010 130.562  0.00  0.00    +0.000 C 
ENDBRANCH  22  24
ENDBRANCH  21  22
ENDBRANCH   1  21
TORSDOF 9
ENDMDL
MODEL 5
REMARK VINA RESULT:      -6.6      2.566      5.411
REMARK  Name = Levacetylmethadol
REMARK  14 active torsions:
REMARK  status: ('A' for Active; 'I' for Inactive)
REMARK    1  A    between atoms: C_1  and  C_2
REMARK    2  A    between atoms: C_2  and  C_3
REMARK    3  A    between atoms: C_3  and  O_4
REMARK    4  A    between atoms: C_3  and  C_8
REMARK    5  A    between atoms: O_4  and  C_5
REMARK    6  A    between atoms: C_5  and  C_6
REMARK    7  A    between atoms: C_8  and  C_9
REMARK    8  A    between atoms: C_8  and  C_15
REMARK    9  A    between atoms: C_8  and  C_21
REMARK   10  A    between atoms: C_9  and  C_10
REMARK   11  A    between atoms: C_10  and  C_11
REMARK   12  A    between atoms: C_10  and  N_12
REMARK   13  A    between atoms: N_12  and  C_13
REMARK   14  A    between atoms: N_12  and  C_14
REMARK                            x       y       z     vdW  Elec       q    Type
REMARK                         _______ _______ _______ _____ _____    ______ ____
ROOT
ATOM      1  C   UNL     1      -7.449   0.514 125.393  0.00  0.00    +0.000 C 
ENDROOT
BRANCH   1   2
ATOM      2  C   UNL     1      -6.658  -0.540 124.488  0.00  0.00    +0.000 A 
ATOM      3  C   UNL     1      -5.571  -1.262 124.990  0.00  0.00    +0.000 A 
ATOM      4  C   UNL     1      -4.996  -2.376 124.370  0.00  0.00    +0.000 A 
ATOM      5  C   UNL     1      -5.537  -2.838 123.196  0.00  0.00    +0.000 A 
ATOM      6  C   UNL     1      -6.411  -2.003 122.528  0.00  0.00    +0.000 A 
ATOM      7  C   UNL     1      -6.849  -0.808 123.128  0.00  0.00    +0.000 A 
ENDBRANCH   1   2
BRANCH   1   8
ATOM      8  C   UNL     1      -6.541   1.182 126.560  0.00  0.00    +0.000 A 
ATOM      9  C   UNL     1      -5.293   1.797 126.387  0.00  0.00    +0.000 A 
ATOM     10  C   UNL     1      -4.511   2.242 127.458  0.00  0.00    +0.000 A 
ATOM     11  C   UNL     1      -5.105   2.466 128.682  0.00  0.00    +0.000 A 
ATOM     12  C   UNL     1      -6.399   2.031 128.873  0.00  0.00    +0.000 A 
ATOM     13  C   UNL     1      -7.015   1.256 127.884  0.00  0.00    +0.000 A 
ENDBRANCH   1   8
BRANCH   1  14
ATOM     14  C   UNL     1      -8.086   1.899 124.603  0.00  0.00    +0.000 C 
BRANCH  14  16
ATOM     15  C   UNL     1      -9.874   1.257 122.787  0.00  0.00    +0.000 C 
ATOM     16  C   UNL     1      -9.600   1.700 124.206  0.00  0.00    +0.000 C 
ENDBRANCH  14  16
BRANCH  14  17
ATOM     17  O   UNL     1      -7.514   2.495 123.378  0.00  0.00    +0.000 OA
BRANCH  17  18
ATOM     18  C   UNL     1      -6.583   3.470 123.230  0.00  0.00    +0.000 C 
ATOM     19  C   UNL     1      -5.932   3.523 121.895  0.00  0.00    +0.000 C 
ATOM     20  O   UNL     1      -6.341   4.270 124.106  0.00  0.00    +0.000 OA
ENDBRANCH  17  18
ENDBRANCH  14  17
ENDBRANCH   1  14
BRANCH   1  21
ATOM     21  C   UNL     1      -8.558  -0.376 126.131  0.00  0.00    +0.000 C 
BRANCH  21  22
ATOM     22  C   UNL     1      -8.268  -1.903 126.370  0.00  0.00    +0.000 C 
ATOM     23  C   UNL     1      -9.253  -2.781 125.635  0.00  0.00    +0.000 C 
BRANCH  22  24
ATOM     24  N   UNL     1      -8.200  -2.399 127.748  0.00  0.00    +0.000 NA
ATOM     25  C   UNL     1      -8.781  -3.764 127.779  0.00  0.00    +0.000 C 
ATOM     26  C   UNL     1      -6.794  -2.481 128.141  0.00  0.00    +0.000 C 
ENDBRANCH  22  24
ENDBRANCH  21  22
ENDBRANCH   1  21
TORSDOF 9
ENDMDL
MODEL 6
REMARK VINA RESULT:      -6.4      1.611      2.673
REMARK  Name = Levacetylmethadol
REMARK  14 active torsions:
REMARK  status: ('A' for Active; 'I' for Inactive)
REMARK    1  A    between atoms: C_1  and  C_2
REMARK    2  A    between atoms: C_2  and  C_3
REMARK    3  A    between atoms: C_3  and  O_4
REMARK    4  A    between atoms: C_3  and  C_8
REMARK    5  A    between atoms: O_4  and  C_5
REMARK    6  A    between atoms: C_5  and  C_6
REMARK    7  A    between atoms: C_8  and  C_9
REMARK    8  A    between atoms: C_8  and  C_15
REMARK    9  A    between atoms: C_8  and  C_21
REMARK   10  A    between atoms: C_9  and  C_10
REMARK   11  A    between atoms: C_10  and  C_11
REMARK   12  A    between atoms: C_10  and  N_12
REMARK   13  A    between atoms: N_12  and  C_13
REMARK   14  A    between atoms: N_12  and  C_14
REMARK                            x       y       z     vdW  Elec       q    Type
REMARK                         _______ _______ _______ _____ _____    ______ ____
ROOT
ATOM      1  C   UNL     1      -6.758  -0.065 126.174  0.00  0.00    +0.000 C 
ENDROOT
BRANCH   1   2
ATOM      2  C   UNL     1      -7.576   0.644 124.997  0.00  0.00    +0.000 A 
ATOM      3  C   UNL     1      -8.973   0.682 125.000  0.00  0.00    +0.000 A 
ATOM      4  C   UNL     1      -9.753   1.493 124.169  0.00  0.00    +0.000 A 
ATOM      5  C   UNL     1      -9.128   2.350 123.298  0.00  0.00    +0.000 A 
ATOM      6  C   UNL     1      -7.783   2.144 123.061  0.00  0.00    +0.000 A 
ATOM      7  C   UNL     1      -7.064   1.203 123.821  0.00  0.00    +0.000 A 
ENDBRANCH   1   2
BRANCH   1   8
ATOM      8  C   UNL     1      -7.366   0.215 127.651  0.00  0.00    +0.000 A 
ATOM      9  C   UNL     1      -7.073  -0.506 128.817  0.00  0.00    +0.000 A 
ATOM     10  C   UNL     1      -7.730  -0.285 130.032  0.00  0.00    +0.000 A 
ATOM     11  C   UNL     1      -8.390   0.909 130.237  0.00  0.00    +0.000 A 
ATOM     12  C   UNL     1      -8.572   1.751 129.161  0.00  0.00    +0.000 A 
ATOM     13  C   UNL     1      -8.219   1.313 127.880  0.00  0.00    +0.000 A 
ENDBRANCH   1   8
BRANCH   1  14
ATOM     14  C   UNL     1      -6.675  -1.780 126.145  0.00  0.00    +0.000 C 
BRANCH  14  16
ATOM     15  C   UNL     1      -5.719  -2.705 123.878  0.00  0.00    +0.000 C 
ATOM     16  C   UNL     1      -5.441  -2.290 125.305  0.00  0.00    +0.000 C 
ENDBRANCH  14  16
BRANCH  14  17
ATOM     17  O   UNL     1      -7.765  -2.657 125.669  0.00  0.00    +0.000 OA
BRANCH  17  18
ATOM     18  C   UNL     1      -8.934  -3.004 126.265  0.00  0.00    +0.000 C 
ATOM     19  C   UNL     1      -8.795  -3.631 127.606  0.00  0.00    +0.000 C 
ATOM     20  O   UNL     1     -10.010  -2.772 125.761  0.00  0.00    +0.000 OA
ENDBRANCH  17  18
ENDBRANCH  14  17
ENDBRANCH   1  14
BRANCH   1  21
ATOM     21  C   UNL     1      -5.325   0.651 126.126  0.00  0.00    +0.000 C 
BRANCH  21  22
ATOM     22  C   UNL     1      -5.136   2.018 126.881  0.00  0.00    +0.000 C 
ATOM     23  C   UNL     1      -4.754   3.131 125.936  0.00  0.00    +0.000 C 
BRANCH  22  24
ATOM     24  N   UNL     1      -4.200   2.074 128.008  0.00  0.00    +0.000 NA
ATOM     25  C   UNL     1      -3.108   3.016 127.656  0.00  0.00    +0.000 C 
ATOM     26  C   UNL     1      -4.910   2.598 129.174  0.00  0.00    +0.000 C 
ENDBRANCH  22  24
ENDBRANCH  21  22
ENDBRANCH   1  21
TORSDOF 9
ENDMDL
MODEL 7
REMARK VINA RESULT:      -6.4      6.702      9.195
REMARK  Name = Levacetylmethadol
REMARK  14 active torsions:
REMARK  status: ('A' for Active; 'I' for Inactive)
REMARK    1  A    between atoms: C_1  and  C_2
REMARK    2  A    between atoms: C_2  and  C_3
REMARK    3  A    between atoms: C_3  and  O_4
REMARK    4  A    between atoms: C_3  and  C_8
REMARK    5  A    between atoms: O_4  and  C_5
REMARK    6  A    between atoms: C_5  and  C_6
REMARK    7  A    between atoms: C_8  and  C_9
REMARK    8  A    between atoms: C_8  and  C_15
REMARK    9  A    between atoms: C_8  and  C_21
REMARK   10  A    between atoms: C_9  and  C_10
REMARK   11  A    between atoms: C_10  and  C_11
REMARK   12  A    between atoms: C_10  and  N_12
REMARK   13  A    between atoms: N_12  and  C_13
REMARK   14  A    between atoms: N_12  and  C_14
REMARK                            x       y       z     vdW  Elec       q    Type
REMARK                         _______ _______ _______ _____ _____    ______ ____
ROOT
ATOM      1  C   UNL     1      -7.486   5.719 131.859  0.00  0.00    +0.000 C 
ENDROOT
BRANCH   1   2
ATOM      2  C   UNL     1      -8.927   6.318 131.515  0.00  0.00    +0.000 A 
ATOM      3  C   UNL     1      -9.125   7.157 130.414  0.00  0.00    +0.000 A 
ATOM      4  C   UNL     1     -10.374   7.507 129.890  0.00  0.00    +0.000 A 
ATOM      5  C   UNL     1     -11.506   6.981 130.459  0.00  0.00    +0.000 A 
ATOM      6  C   UNL     1     -11.377   6.391 131.700  0.00  0.00    +0.000 A 
ATOM      7  C   UNL     1     -10.103   6.193 132.263  0.00  0.00    +0.000 A 
ENDBRANCH   1   2
BRANCH   1   8
ATOM      8  C   UNL     1      -7.132   5.739 133.442  0.00  0.00    +0.000 A 
ATOM      9  C   UNL     1      -8.034   5.533 134.494  0.00  0.00    +0.000 A 
ATOM     10  C   UNL     1      -7.681   5.688 135.839  0.00  0.00    +0.000 A 
ATOM     11  C   UNL     1      -6.350   5.648 136.198  0.00  0.00    +0.000 A 
ATOM     12  C   UNL     1      -5.400   5.682 135.200  0.00  0.00    +0.000 A 
ATOM     13  C   UNL     1      -5.802   5.902 133.878  0.00  0.00    +0.000 A 
ENDBRANCH   1   8
BRANCH   1  14
ATOM     14  C   UNL     1      -7.207   4.073 131.455  0.00  0.00    +0.000 C 
BRANCH  14  16
ATOM     15  C   UNL     1      -9.005   3.014 129.857  0.00  0.00    +0.000 C 
ATOM     16  C   UNL     1      -7.687   3.743 129.989  0.00  0.00    +0.000 C 
ENDBRANCH  14  16
BRANCH  14  17
ATOM     17  O   UNL     1      -7.735   2.927 132.226  0.00  0.00    +0.000 OA
BRANCH  17  18
ATOM     18  C   UNL     1      -7.080   1.946 132.895  0.00  0.00    +0.000 C 
ATOM     19  C   UNL     1      -5.692   2.283 133.308  0.00  0.00    +0.000 C 
ATOM     20  O   UNL     1      -7.608   0.894 133.179  0.00  0.00    +0.000 OA
ENDBRANCH  17  18
ENDBRANCH  14  17
ENDBRANCH   1  14
BRANCH   1  21
ATOM     21  C   UNL     1      -6.472   6.738 131.150  0.00  0.00    +0.000 C 
BRANCH  21  22
ATOM     22  C   UNL     1      -5.063   6.209 130.694  0.00  0.00    +0.000 C 
ATOM     23  C   UNL     1      -3.942   7.059 131.245  0.00  0.00    +0.000 C 
BRANCH  22  24
ATOM     24  N   UNL     1      -4.806   6.041 129.261  0.00  0.00    +0.000 NA
ATOM     25  C   UNL     1      -3.773   7.027 128.856  0.00  0.00    +0.000 C 
ATOM     26  C   UNL     1      -4.277   4.695 129.041  0.00  0.00    +0.000 C 
ENDBRANCH  22  24
ENDBRANCH  21  22
ENDBRANCH   1  21
TORSDOF 9
ENDMDL
MODEL 8
REMARK VINA RESULT:      -6.3      2.417      5.267
REMARK  Name = Levacetylmethadol
REMARK  14 active torsions:
REMARK  status: ('A' for Active; 'I' for Inactive)
REMARK    1  A    between atoms: C_1  and  C_2
REMARK    2  A    between atoms: C_2  and  C_3
REMARK    3  A    between atoms: C_3  and  O_4
REMARK    4  A    between atoms: C_3  and  C_8
REMARK    5  A    between atoms: O_4  and  C_5
REMARK    6  A    between atoms: C_5  and  C_6
REMARK    7  A    between atoms: C_8  and  C_9
REMARK    8  A    between atoms: C_8  and  C_15
REMARK    9  A    between atoms: C_8  and  C_21
REMARK   10  A    between atoms: C_9  and  C_10
REMARK   11  A    between atoms: C_10  and  C_11
REMARK   12  A    between atoms: C_10  and  N_12
REMARK   13  A    between atoms: N_12  and  C_13
REMARK   14  A    between atoms: N_12  and  C_14
REMARK                            x       y       z     vdW  Elec       q    Type
REMARK                         _______ _______ _______ _____ _____    ______ ____
ROOT
ATOM      1  C   UNL     1      -6.594  -1.466 126.661  0.00  0.00    +0.000 C 
ENDROOT
BRANCH   1   2
ATOM      2  C   UNL     1      -5.915  -2.029 125.328  0.00  0.00    +0.000 A 
ATOM      3  C   UNL     1      -5.171  -3.212 125.332  0.00  0.00    +0.000 A 
ATOM      4  C   UNL     1      -4.771  -3.909 124.187  0.00  0.00    +0.000 A 
ATOM      5  C   UNL     1      -5.148  -3.437 122.955  0.00  0.00    +0.000 A 
ATOM      6  C   UNL     1      -5.627  -2.144 122.890  0.00  0.00    +0.000 A 
ATOM      7  C   UNL     1      -5.873  -1.418 124.070  0.00  0.00    +0.000 A 
ENDBRANCH   1   2
BRANCH   1   8
ATOM      8  C   UNL     1      -6.257  -2.341 127.985  0.00  0.00    +0.000 A 
ATOM      9  C   UNL     1      -4.991  -2.517 128.561  0.00  0.00    +0.000 A 
ATOM     10  C   UNL     1      -4.758  -3.387 129.631  0.00  0.00    +0.000 A 
ATOM     11  C   UNL     1      -5.816  -3.791 130.418  0.00  0.00    +0.000 A 
ATOM     12  C   UNL     1      -7.096  -3.506 129.993  0.00  0.00    +0.000 A 
ATOM     13  C   UNL     1      -7.289  -2.955 128.721  0.00  0.00    +0.000 A 
ENDBRANCH   1   8
BRANCH   1  14
ATOM     14  C   UNL     1      -6.146   0.115 127.160  0.00  0.00    +0.000 C 
BRANCH  14  16
ATOM     15  C   UNL     1      -6.530   0.803 129.667  0.00  0.00    +0.000 C 
ATOM     16  C   UNL     1      -7.111   0.670 128.278  0.00  0.00    +0.000 C 
ENDBRANCH  14  16
BRANCH  14  17
ATOM     17  O   UNL     1      -6.022   1.271 126.247  0.00  0.00    +0.000 OA
BRANCH  17  18
ATOM     18  C   UNL     1      -5.395   2.461 126.421  0.00  0.00    +0.000 C 
ATOM     19  C   UNL     1      -3.993   2.370 126.908  0.00  0.00    +0.000 C 
ATOM     20  O   UNL     1      -5.924   3.516 126.150  0.00  0.00    +0.000 OA
ENDBRANCH  17  18
ENDBRANCH  14  17
ENDBRANCH   1  14
BRANCH   1  21
ATOM     21  C   UNL     1      -8.164  -1.636 126.388  0.00  0.00    +0.000 C 
BRANCH  21  22
ATOM     22  C   UNL     1      -8.802  -0.899 125.154  0.00  0.00    +0.000 C 
ATOM     23  C   UNL     1      -9.660   0.267 125.581  0.00  0.00    +0.000 C 
BRANCH  22  24
ATOM     24  N   UNL     1      -9.593  -1.683 124.200  0.00  0.00    +0.000 NA
ATOM     25  C   UNL     1      -9.284  -1.196 122.832  0.00  0.00    +0.000 C 
ATOM     26  C   UNL     1      -9.183  -3.084 124.300  0.00  0.00    +0.000 C 
ENDBRANCH  22  24
ENDBRANCH  21  22
ENDBRANCH   1  21
TORSDOF 9
ENDMDL
MODEL 9
REMARK VINA RESULT:      -6.3      2.167      5.175
REMARK  Name = Levacetylmethadol
REMARK  14 active torsions:
REMARK  status: ('A' for Active; 'I' for Inactive)
REMARK    1  A    between atoms: C_1  and  C_2
REMARK    2  A    between atoms: C_2  and  C_3
REMARK    3  A    between atoms: C_3  and  O_4
REMARK    4  A    between atoms: C_3  and  C_8
REMARK    5  A    between atoms: O_4  and  C_5
REMARK    6  A    between atoms: C_5  and  C_6
REMARK    7  A    between atoms: C_8  and  C_9
REMARK    8  A    between atoms: C_8  and  C_15
REMARK    9  A    between atoms: C_8  and  C_21
REMARK   10  A    between atoms: C_9  and  C_10
REMARK   11  A    between atoms: C_10  and  C_11
REMARK   12  A    between atoms: C_10  and  N_12
REMARK   13  A    between atoms: N_12  and  C_13
REMARK   14  A    between atoms: N_12  and  C_14
REMARK                            x       y       z     vdW  Elec       q    Type
REMARK                         _______ _______ _______ _____ _____    ______ ____
ROOT
ATOM      1  C   UNL     1      -7.128   0.676 125.433  0.00  0.00    +0.000 C 
ENDROOT
BRANCH   1   2
ATOM      2  C   UNL     1      -6.509  -0.482 124.521  0.00  0.00    +0.000 A 
ATOM      3  C   UNL     1      -5.459  -1.286 124.974  0.00  0.00    +0.000 A 
ATOM      4  C   UNL     1      -5.038  -2.472 124.364  0.00  0.00    +0.000 A 
ATOM      5  C   UNL     1      -5.707  -2.923 123.253  0.00  0.00    +0.000 A 
ATOM      6  C   UNL     1      -6.547  -2.033 122.614  0.00  0.00    +0.000 A 
ATOM      7  C   UNL     1      -6.826  -0.780 123.191  0.00  0.00    +0.000 A 
ENDBRANCH   1   2
BRANCH   1   8
ATOM      8  C   UNL     1      -6.055   1.353 126.444  0.00  0.00    +0.000 A 
ATOM      9  C   UNL     1      -4.928   2.101 126.076  0.00  0.00    +0.000 A 
ATOM     10  C   UNL     1      -3.979   2.550 127.000  0.00  0.00    +0.000 A 
ATOM     11  C   UNL     1      -4.318   2.628 128.334  0.00  0.00    +0.000 A 
ATOM     12  C   UNL     1      -5.502   2.052 128.746  0.00  0.00    +0.000 A 
ATOM     13  C   UNL     1      -6.243   1.288 127.839  0.00  0.00    +0.000 A 
ENDBRANCH   1   8
BRANCH   1  14
ATOM     14  C   UNL     1      -7.767   2.049 124.625  0.00  0.00    +0.000 C 
BRANCH  14  16
ATOM     15  C   UNL     1      -7.791   4.520 125.522  0.00  0.00    +0.000 C 
ATOM     16  C   UNL     1      -8.333   3.114 125.643  0.00  0.00    +0.000 C 
ENDBRANCH  14  16
BRANCH  14  17
ATOM     17  O   UNL     1      -8.834   1.991 123.603  0.00  0.00    +0.000 OA
BRANCH  17  18
ATOM     18  C   UNL     1      -9.969   1.250 123.563  0.00  0.00    +0.000 C 
ATOM     19  C   UNL     1     -10.107   0.374 122.370  0.00  0.00    +0.000 C 
ATOM     20  O   UNL     1     -10.782   1.264 124.460  0.00  0.00    +0.000 OA
ENDBRANCH  17  18
ENDBRANCH  14  17
ENDBRANCH   1  14
BRANCH   1  21
ATOM     21  C   UNL     1      -8.196  -0.092 126.348  0.00  0.00    +0.000 C 
BRANCH  21  22
ATOM     22  C   UNL     1      -8.113  -1.658 126.457  0.00  0.00    +0.000 C 
ATOM     23  C   UNL     1      -9.234  -2.332 125.704  0.00  0.00    +0.000 C 
BRANCH  22  24
ATOM     24  N   UNL     1      -8.067  -2.268 127.790  0.00  0.00    +0.000 NA
ATOM     25  C   UNL     1      -8.696  -3.611 127.707  0.00  0.00    +0.000 C 
ATOM     26  C   UNL     1      -6.667  -2.432 128.176  0.00  0.00    +0.000 C 
ENDBRANCH  22  24
ENDBRANCH  21  22
ENDBRANCH   1  21
TORSDOF 9
ENDMDL
