MODEL 1
REMARK VINA RESULT:      -8.5      0.000      0.000
REMARK  Name = Levallorphan
REMARK  3 active torsions:
REMARK  status: ('A' for Active; 'I' for Inactive)
REMARK    1  A    between atoms: N_10  and  C_11
REMARK    2  A    between atoms: C_11  and  C_12
REMARK    3  A    between atoms: C_19  and  O_20
REMARK                            x       y       z     vdW  Elec       q    Type
REMARK                         _______ _______ _______ _____ _____    ______ ____
ROOT
ATOM      1  C   UNL     1      -5.339  -1.122 125.081  0.00  0.00    +0.000 C 
ATOM      2  C   UNL     1      -5.089  -2.650 124.786  0.00  0.00    +0.000 C 
ATOM      3  C   UNL     1      -4.935  -3.005 123.348  0.00  0.00    +0.000 C 
ATOM      4  C   UNL     1      -5.952  -2.236 122.560  0.00  0.00    +0.000 C 
ATOM      5  C   UNL     1      -6.868  -1.183 123.317  0.00  0.00    +0.000 C 
ATOM      6  C   UNL     1      -6.769  -0.503 124.944  0.00  0.00    +0.000 C 
ATOM      7  C   UNL     1      -7.586  -0.638 126.909  0.00  0.00    +0.000 C 
ATOM      8  C   UNL     1      -7.479  -1.964 127.636  0.00  0.00    +0.000 C 
ATOM      9  N   UNL     1      -7.067  -2.181 126.345  0.00  0.00    +0.000 NA
ATOM     10  C   UNL     1      -5.609  -0.991 126.474  0.00  0.00    +0.000 C 
ATOM     11  C   UNL     1      -5.723   0.880 126.729  0.00  0.00    +0.000 C 
ATOM     12  C   UNL     1      -6.585   1.668 125.702  0.00  0.00    +0.000 A 
ATOM     13  C   UNL     1      -6.817   0.977 124.561  0.00  0.00    +0.000 A 
ATOM     14  C   UNL     1      -7.413   1.572 123.390  0.00  0.00    +0.000 A 
ATOM     15  C   UNL     1      -8.045   2.789 123.499  0.00  0.00    +0.000 A 
ATOM     16  C   UNL     1      -8.150   3.329 124.765  0.00  0.00    +0.000 A 
ATOM     17  C   UNL     1      -7.426   2.770 125.858  0.00  0.00    +0.000 A 
ENDROOT
BRANCH  15  18
ATOM     18  O   UNL     1      -8.678   3.391 122.451  0.00  0.00    +0.000 OA
ATOM     19  H   UNL     1      -8.278   3.114 121.608  0.00  0.00    +0.000 HD
ENDBRANCH  15  18
BRANCH   9  20
ATOM     20  C   UNL     1      -8.647  -1.852 125.455  0.00  0.00    +0.000 C 
BRANCH  20  21
ATOM     21  C   UNL     1      -9.504  -3.045 124.577  0.00  0.00    +0.000 C 
ATOM     22  C   UNL     1      -9.740  -3.391 123.319  0.00  0.00    +0.000 C 
ENDBRANCH  20  21
ENDBRANCH   9  20
TORSDOF 3
ENDMDL
MODEL 2
REMARK VINA RESULT:      -8.3      2.195      4.110
REMARK  Name = Levallorphan
REMARK  3 active torsions:
REMARK  status: ('A' for Active; 'I' for Inactive)
REMARK    1  A    between atoms: N_10  and  C_11
REMARK    2  A    between atoms: C_11  and  C_12
REMARK    3  A    between atoms: C_19  and  O_20
REMARK                            x       y       z     vdW  Elec       q    Type
REMARK                         _______ _______ _______ _____ _____    ______ ____
ROOT
ATOM      1  C   UNL     1      -8.818  -1.420 125.712  0.00  0.00    +0.000 C 
ATOM      2  C   UNL     1      -9.285  -2.923 125.805  0.00  0.00    +0.000 C 
ATOM      3  C   UNL     1      -9.075  -3.576 127.127  0.00  0.00    +0.000 C 
ATOM      4  C   UNL     1      -7.730  -3.165 127.648  0.00  0.00    +0.000 C 
ATOM      5  C   UNL     1      -6.881  -2.108 126.821  0.00  0.00    +0.000 C 
ATOM      6  C   UNL     1      -7.316  -1.062 125.466  0.00  0.00    +0.000 C 
ATOM      7  C   UNL     1      -7.170  -0.854 123.348  0.00  0.00    +0.000 C 
ATOM      8  C   UNL     1      -7.767  -1.945 122.482  0.00  0.00    +0.000 C 
ATOM      9  N   UNL     1      -7.811  -2.394 123.778  0.00  0.00    +0.000 NA
ATOM     10  C   UNL     1      -8.955  -1.010 124.355  0.00  0.00    +0.000 C 
ATOM     11  C   UNL     1      -8.530   0.833 124.404  0.00  0.00    +0.000 C 
ATOM     12  C   UNL     1      -7.255   1.228 125.201  0.00  0.00    +0.000 A 
ATOM     13  C   UNL     1      -6.844   0.266 126.060  0.00  0.00    +0.000 A 
ATOM     14  C   UNL     1      -5.814   0.481 127.047  0.00  0.00    +0.000 A 
ATOM     15  C   UNL     1      -5.002   1.586 126.944  0.00  0.00    +0.000 A 
ATOM     16  C   UNL     1      -5.168   2.384 125.830  0.00  0.00    +0.000 A 
ATOM     17  C   UNL     1      -6.287   2.204 124.965  0.00  0.00    +0.000 A 
ENDROOT
BRANCH  15  18
ATOM     18  O   UNL     1      -3.972   1.831 127.804  0.00  0.00    +0.000 OA
ATOM     19  H   UNL     1      -3.457   2.601 127.507  0.00  0.00    +0.000 HD
ENDBRANCH  15  18
BRANCH   9  20
ATOM     20  C   UNL     1      -6.005  -2.512 124.128  0.00  0.00    +0.000 C 
BRANCH  20  21
ATOM     21  C   UNL     1      -5.142  -3.989 124.161  0.00  0.00    +0.000 C 
ATOM     22  C   UNL     1      -4.136  -4.580 123.530  0.00  0.00    +0.000 C 
ENDBRANCH  20  21
ENDBRANCH   9  20
TORSDOF 3
ENDMDL
MODEL 3
REMARK VINA RESULT:      -8.2      1.456      3.376
REMARK  Name = Levallorphan
REMARK  3 active torsions:
REMARK  status: ('A' for Active; 'I' for Inactive)
REMARK    1  A    between atoms: N_10  and  C_11
REMARK    2  A    between atoms: C_11  and  C_12
REMARK    3  A    between atoms: C_19  and  O_20
REMARK                            x       y       z     vdW  Elec       q    Type
REMARK                         _______ _______ _______ _____ _____    ______ ____
ROOT
ATOM      1  C   UNL     1      -8.096  -0.676 126.149  0.00  0.00    +0.000 C 
ATOM      2  C   UNL     1      -7.558  -1.958 126.892  0.00  0.00    +0.000 C 
ATOM      3  C   UNL     1      -6.321  -1.757 127.696  0.00  0.00    +0.000 C 
ATOM      4  C   UNL     1      -5.386  -0.885 126.914  0.00  0.00    +0.000 C 
ATOM      5  C   UNL     1      -5.879  -0.287 125.528  0.00  0.00    +0.000 C 
ATOM      6  C   UNL     1      -7.480  -0.224 124.785  0.00  0.00    +0.000 C 
ATOM      7  C   UNL     1      -8.726  -1.145 123.319  0.00  0.00    +0.000 C 
ATOM      8  C   UNL     1      -9.039  -2.620 123.476  0.00  0.00    +0.000 C 
ATOM      9  N   UNL     1      -8.082  -2.313 124.410  0.00  0.00    +0.000 NA
ATOM     10  C   UNL     1      -9.183  -1.082 125.322  0.00  0.00    +0.000 C 
ATOM     11  C   UNL     1      -9.840   0.548 124.623  0.00  0.00    +0.000 C 
ATOM     12  C   UNL     1      -8.781   1.541 124.066  0.00  0.00    +0.000 A 
ATOM     13  C   UNL     1      -7.526   1.279 124.502  0.00  0.00    +0.000 A 
ATOM     14  C   UNL     1      -6.416   2.176 124.287  0.00  0.00    +0.000 A 
ATOM     15  C   UNL     1      -6.537   3.190 123.366  0.00  0.00    +0.000 A 
ATOM     16  C   UNL     1      -7.701   3.227 122.626  0.00  0.00    +0.000 A 
ATOM     17  C   UNL     1      -8.814   2.407 122.974  0.00  0.00    +0.000 A 
ENDROOT
BRANCH  15  18
ATOM     18  O   UNL     1      -5.517   4.045 123.068  0.00  0.00    +0.000 OA
ATOM     19  H   UNL     1      -5.867   4.920 122.826  0.00  0.00    +0.000 HD
ENDBRANCH  15  18
BRANCH   9  20
ATOM     20  C   UNL     1      -6.682  -1.880 123.291  0.00  0.00    +0.000 C 
BRANCH  20  21
ATOM     21  C   UNL     1      -5.270  -2.832 123.130  0.00  0.00    +0.000 C 
ATOM     22  C   UNL     1      -4.652  -3.827 123.753  0.00  0.00    +0.000 C 
ENDBRANCH  20  21
ENDBRANCH   9  20
TORSDOF 3
ENDMDL
MODEL 4
REMARK VINA RESULT:      -7.9      2.886      4.966
REMARK  Name = Levallorphan
REMARK  3 active torsions:
REMARK  status: ('A' for Active; 'I' for Inactive)
REMARK    1  A    between atoms: N_10  and  C_11
REMARK    2  A    between atoms: C_11  and  C_12
REMARK    3  A    between atoms: C_19  and  O_20
REMARK                            x       y       z     vdW  Elec       q    Type
REMARK                         _______ _______ _______ _____ _____    ______ ____
ROOT
ATOM      1  C   UNL     1      -9.006  -1.321 124.973  0.00  0.00    +0.000 C 
ATOM      2  C   UNL     1      -9.161  -1.766 123.468  0.00  0.00    +0.000 C 
ATOM      3  C   UNL     1      -9.586  -3.177 123.261  0.00  0.00    +0.000 C 
ATOM      4  C   UNL     1      -8.844  -4.042 124.236  0.00  0.00    +0.000 C 
ATOM      5  C   UNL     1      -7.895  -3.349 125.303  0.00  0.00    +0.000 C 
ATOM      6  C   UNL     1      -7.708  -1.658 125.777  0.00  0.00    +0.000 C 
ATOM      7  C   UNL     1      -6.476   0.066 125.525  0.00  0.00    +0.000 C 
ATOM      8  C   UNL     1      -6.293   0.611 124.123  0.00  0.00    +0.000 C 
ATOM      9  N   UNL     1      -6.950  -0.587 124.003  0.00  0.00    +0.000 NA
ATOM     10  C   UNL     1      -8.456  -0.006 124.978  0.00  0.00    +0.000 C 
ATOM     11  C   UNL     1      -8.475   0.473 126.808  0.00  0.00    +0.000 C 
ATOM     12  C   UNL     1      -7.937  -0.588 127.808  0.00  0.00    +0.000 A 
ATOM     13  C   UNL     1      -7.889  -1.836 127.285  0.00  0.00    +0.000 A 
ATOM     14  C   UNL     1      -7.622  -3.011 128.079  0.00  0.00    +0.000 A 
ATOM     15  C   UNL     1      -7.105  -2.866 129.346  0.00  0.00    +0.000 A 
ATOM     16  C   UNL     1      -6.783  -1.586 129.748  0.00  0.00    +0.000 A 
ATOM     17  C   UNL     1      -7.196  -0.456 128.983  0.00  0.00    +0.000 A 
ENDROOT
BRANCH  15  18
ATOM     18  O   UNL     1      -6.775  -3.928 130.136  0.00  0.00    +0.000 OA
ATOM     19  H   UNL     1      -6.227  -3.636 130.886  0.00  0.00    +0.000 HD
ENDBRANCH  15  18
BRANCH   9  20
ATOM     20  C   UNL     1      -5.639  -1.725 124.625  0.00  0.00    +0.000 C 
BRANCH  20  21
ATOM     21  C   UNL     1      -4.868  -2.901 123.653  0.00  0.00    +0.000 C 
ATOM     22  C   UNL     1      -4.508  -4.176 123.713  0.00  0.00    +0.000 C 
ENDBRANCH  20  21
ENDBRANCH   9  20
TORSDOF 3
ENDMDL
MODEL 5
REMARK VINA RESULT:      -7.7      1.736      2.143
REMARK  Name = Levallorphan
REMARK  3 active torsions:
REMARK  status: ('A' for Active; 'I' for Inactive)
REMARK    1  A    between atoms: N_10  and  C_11
REMARK    2  A    between atoms: C_11  and  C_12
REMARK    3  A    between atoms: C_19  and  O_20
REMARK                            x       y       z     vdW  Elec       q    Type
REMARK                         _______ _______ _______ _____ _____    ______ ____
ROOT
ATOM      1  C   UNL     1      -5.598  -1.207 124.932  0.00  0.00    +0.000 C 
ATOM      2  C   UNL     1      -4.910  -2.582 125.279  0.00  0.00    +0.000 C 
ATOM      3  C   UNL     1      -5.114  -3.667 124.280  0.00  0.00    +0.000 C 
ATOM      4  C   UNL     1      -6.542  -3.627 123.824  0.00  0.00    +0.000 C 
ATOM      5  C   UNL     1      -7.482  -2.463 124.358  0.00  0.00    +0.000 C 
ATOM      6  C   UNL     1      -7.115  -0.973 125.232  0.00  0.00    +0.000 C 
ATOM      7  C   UNL     1      -7.131  -0.073 127.165  0.00  0.00    +0.000 C 
ATOM      8  C   UNL     1      -6.307  -0.721 128.260  0.00  0.00    +0.000 C 
ATOM      9  N   UNL     1      -6.291  -1.576 127.187  0.00  0.00    +0.000 NA
ATOM     10  C   UNL     1      -5.425  -0.344 126.052  0.00  0.00    +0.000 C 
ATOM     11  C   UNL     1      -6.137   1.304 125.456  0.00  0.00    +0.000 C 
ATOM     12  C   UNL     1      -7.514   1.245 124.738  0.00  0.00    +0.000 A 
ATOM     13  C   UNL     1      -7.833   0.004 124.299  0.00  0.00    +0.000 A 
ATOM     14  C   UNL     1      -8.956  -0.258 123.432  0.00  0.00    +0.000 A 
ATOM     15  C   UNL     1      -9.921   0.708 123.267  0.00  0.00    +0.000 A 
ATOM     16  C   UNL     1      -9.798   1.852 124.029  0.00  0.00    +0.000 A 
ATOM     17  C   UNL     1      -8.603   2.116 124.760  0.00  0.00    +0.000 A 
ENDROOT
BRANCH  15  18
ATOM     18  O   UNL     1     -11.038   0.516 122.509  0.00  0.00    +0.000 OA
ATOM     19  H   UNL     1     -11.088   1.184 121.803  0.00  0.00    +0.000 HD
ENDBRANCH  15  18
BRANCH   9  20
ATOM     20  C   UNL     1      -8.078  -2.027 127.122  0.00  0.00    +0.000 C 
BRANCH  20  21
ATOM     21  C   UNL     1      -8.674  -3.589 127.484  0.00  0.00    +0.000 C 
ATOM     22  C   UNL     1      -9.415  -4.194 128.402  0.00  0.00    +0.000 C 
ENDBRANCH  20  21
ENDBRANCH   9  20
TORSDOF 3
ENDMDL
MODEL 6
REMARK VINA RESULT:      -7.3      9.771     11.934
REMARK  Name = Levallorphan
REMARK  3 active torsions:
REMARK  status: ('A' for Active; 'I' for Inactive)
REMARK    1  A    between atoms: N_10  and  C_11
REMARK    2  A    between atoms: C_11  and  C_12
REMARK    3  A    between atoms: C_19  and  O_20
REMARK                            x       y       z     vdW  Elec       q    Type
REMARK                         _______ _______ _______ _____ _____    ______ ____
ROOT
ATOM      1  C   UNL     1      -1.720   6.620 130.921  0.00  0.00    +0.000 C 
ATOM      2  C   UNL     1      -2.441   5.787 129.793  0.00  0.00    +0.000 C 
ATOM      3  C   UNL     1      -2.998   6.586 128.667  0.00  0.00    +0.000 C 
ATOM      4  C   UNL     1      -3.644   7.815 129.234  0.00  0.00    +0.000 C 
ATOM      5  C   UNL     1      -3.536   8.083 130.795  0.00  0.00    +0.000 C 
ATOM      6  C   UNL     1      -2.545   7.327 132.046  0.00  0.00    +0.000 C 
ATOM      7  C   UNL     1      -2.584   5.905 133.635  0.00  0.00    +0.000 C 
ATOM      8  C   UNL     1      -2.961   4.474 133.302  0.00  0.00    +0.000 C 
ATOM      9  N   UNL     1      -3.195   5.223 132.176  0.00  0.00    +0.000 NA
ATOM     10  C   UNL     1      -1.387   5.721 131.974  0.00  0.00    +0.000 C 
ATOM     11  C   UNL     1      -0.392   6.794 133.173  0.00  0.00    +0.000 C 
ATOM     12  C   UNL     1      -0.988   8.188 133.514  0.00  0.00    +0.000 A 
ATOM     13  C   UNL     1      -1.923   8.599 132.625  0.00  0.00    +0.000 A 
ATOM     14  C   UNL     1      -2.466   9.936 132.616  0.00  0.00    +0.000 A 
ATOM     15  C   UNL     1      -2.269  10.751 133.706  0.00  0.00    +0.000 A 
ATOM     16  C   UNL     1      -1.634  10.194 134.798  0.00  0.00    +0.000 A 
ATOM     17  C   UNL     1      -0.999   8.921 134.701  0.00  0.00    +0.000 A 
ENDROOT
BRANCH  15  18
ATOM     18  O   UNL     1      -2.795  12.006 133.796  0.00  0.00    +0.000 OA
ATOM     19  H   UNL     1      -3.482  12.038 134.485  0.00  0.00    +0.000 HD
ENDBRANCH  15  18
BRANCH   9  20
ATOM     20  C   UNL     1      -4.547   6.310 132.799  0.00  0.00    +0.000 C 
BRANCH  20  21
ATOM     21  C   UNL     1      -6.166   6.210 132.258  0.00  0.00    +0.000 C 
ATOM     22  C   UNL     1      -6.939   6.704 131.300  0.00  0.00    +0.000 C 
ENDBRANCH  20  21
ENDBRANCH   9  20
TORSDOF 3
ENDMDL
MODEL 7
REMARK VINA RESULT:      -7.3      2.814      5.265
REMARK  Name = Levallorphan
REMARK  3 active torsions:
REMARK  status: ('A' for Active; 'I' for Inactive)
REMARK    1  A    between atoms: N_10  and  C_11
REMARK    2  A    between atoms: C_11  and  C_12
REMARK    3  A    between atoms: C_19  and  O_20
REMARK                            x       y       z     vdW  Elec       q    Type
REMARK                         _______ _______ _______ _____ _____    ______ ____
ROOT
ATOM      1  C   UNL     1      -7.484  -2.848 124.711  0.00  0.00    +0.000 C 
ATOM      2  C   UNL     1      -7.059  -2.378 123.267  0.00  0.00    +0.000 C 
ATOM      3  C   UNL     1      -5.637  -2.631 122.907  0.00  0.00    +0.000 C 
ATOM      4  C   UNL     1      -4.782  -2.302 124.094  0.00  0.00    +0.000 C 
ATOM      5  C   UNL     1      -5.491  -1.880 125.451  0.00  0.00    +0.000 C 
ATOM      6  C   UNL     1      -7.179  -1.962 125.963  0.00  0.00    +0.000 C 
ATOM      7  C   UNL     1      -8.949  -0.800 126.221  0.00  0.00    +0.000 C 
ATOM      8  C   UNL     1      -9.525  -0.098 125.007  0.00  0.00    +0.000 C 
ATOM      9  N   UNL     1      -8.306  -0.607 124.636  0.00  0.00    +0.000 NA
ATOM     10  C   UNL     1      -8.816  -2.397 124.935  0.00  0.00    +0.000 C 
ATOM     11  C   UNL     1      -9.264  -3.158 126.609  0.00  0.00    +0.000 C 
ATOM     12  C   UNL     1      -8.206  -3.018 127.739  0.00  0.00    +0.000 A 
ATOM     13  C   UNL     1      -6.969  -2.718 127.276  0.00  0.00    +0.000 A 
ATOM     14  C   UNL     1      -5.791  -2.740 128.109  0.00  0.00    +0.000 A 
ATOM     15  C   UNL     1      -5.933  -2.773 129.477  0.00  0.00    +0.000 A 
ATOM     16  C   UNL     1      -7.217  -2.687 129.975  0.00  0.00    +0.000 A 
ATOM     17  C   UNL     1      -8.344  -2.808 129.111  0.00  0.00    +0.000 A 
ENDROOT
BRANCH  15  18
ATOM     18  O   UNL     1      -4.871  -2.741 130.331  0.00  0.00    +0.000 OA
ATOM     19  H   UNL     1      -4.871  -1.913 130.842  0.00  0.00    +0.000 HD
ENDBRANCH  15  18
BRANCH   9  20
ATOM     20  C   UNL     1      -7.205   0.394 125.724  0.00  0.00    +0.000 C 
BRANCH  20  21
ATOM     21  C   UNL     1      -6.189   1.644 125.149  0.00  0.00    +0.000 C 
ATOM     22  C   UNL     1      -5.515   2.687 125.617  0.00  0.00    +0.000 C 
ENDBRANCH  20  21
ENDBRANCH   9  20
TORSDOF 3
ENDMDL
MODEL 8
REMARK VINA RESULT:      -7.2      2.656      5.267
REMARK  Name = Levallorphan
REMARK  3 active torsions:
REMARK  status: ('A' for Active; 'I' for Inactive)
REMARK    1  A    between atoms: N_10  and  C_11
REMARK    2  A    between atoms: C_11  and  C_12
REMARK    3  A    between atoms: C_19  and  O_20
REMARK                            x       y       z     vdW  Elec       q    Type
REMARK                         _______ _______ _______ _____ _____    ______ ____
ROOT
ATOM      1  C   UNL     1      -8.106  -0.792 128.709  0.00  0.00    +0.000 C 
ATOM      2  C   UNL     1      -7.620   0.422 129.591  0.00  0.00    +0.000 C 
ATOM      3  C   UNL     1      -8.321   1.712 129.342  0.00  0.00    +0.000 C 
ATOM      4  C   UNL     1      -8.503   1.873 127.862  0.00  0.00    +0.000 C 
ATOM      5  C   UNL     1      -8.052   0.690 126.904  0.00  0.00    +0.000 C 
ATOM      6  C   UNL     1      -7.583  -0.978 127.247  0.00  0.00    +0.000 C 
ATOM      7  C   UNL     1      -5.904  -2.277 127.455  0.00  0.00    +0.000 C 
ATOM      8  C   UNL     1      -4.873  -1.945 128.515  0.00  0.00    +0.000 C 
ATOM      9  N   UNL     1      -5.733  -0.878 128.445  0.00  0.00    +0.000 NA
ATOM     10  C   UNL     1      -7.236  -1.889 128.971  0.00  0.00    +0.000 C 
ATOM     11  C   UNL     1      -8.013  -3.312 127.996  0.00  0.00    +0.000 C 
ATOM     12  C   UNL     1      -8.435  -2.999 126.533  0.00  0.00    +0.000 A 
ATOM     13  C   UNL     1      -8.545  -1.673 126.282  0.00  0.00    +0.000 A 
ATOM     14  C   UNL     1      -9.117  -1.148 125.066  0.00  0.00    +0.000 A 
ATOM     15  C   UNL     1      -9.293  -1.984 123.988  0.00  0.00    +0.000 A 
ATOM     16  C   UNL     1      -8.815  -3.273 124.110  0.00  0.00    +0.000 A 
ATOM     17  C   UNL     1      -8.389  -3.775 125.374  0.00  0.00    +0.000 A 
ENDROOT
BRANCH  15  18
ATOM     18  O   UNL     1      -9.775  -1.552 122.788  0.00  0.00    +0.000 OA
ATOM     19  H   UNL     1      -9.970  -2.308 122.207  0.00  0.00    +0.000 HD
ENDBRANCH  15  18
BRANCH   9  20
ATOM     20  C   UNL     1      -5.373  -0.299 126.732  0.00  0.00    +0.000 C 
BRANCH  20  21
ATOM     21  C   UNL     1      -4.756   1.254 126.368  0.00  0.00    +0.000 C 
ATOM     22  C   UNL     1      -4.703   2.466 126.905  0.00  0.00    +0.000 C 
ENDBRANCH  20  21
ENDBRANCH   9  20
TORSDOF 3
ENDMDL
MODEL 9
REMARK VINA RESULT:      -7.2      7.327      9.664
REMARK  Name = Levallorphan
REMARK  3 active torsions:
REMARK  status: ('A' for Active; 'I' for Inactive)
REMARK    1  A    between atoms: N_10  and  C_11
REMARK    2  A    between atoms: C_11  and  C_12
REMARK    3  A    between atoms: C_19  and  O_20
REMARK                            x       y       z     vdW  Elec       q    Type
REMARK                         _______ _______ _______ _____ _____    ______ ____
ROOT
ATOM      1  C   UNL     1      -5.648   6.085 133.348  0.00  0.00    +0.000 C 
ATOM      2  C   UNL     1      -4.083   5.895 133.355  0.00  0.00    +0.000 C 
ATOM      3  C   UNL     1      -3.311   6.932 132.615  0.00  0.00    +0.000 C 
ATOM      4  C   UNL     1      -4.033   7.236 131.337  0.00  0.00    +0.000 C 
ATOM      5  C   UNL     1      -5.434   6.539 131.067  0.00  0.00    +0.000 C 
ATOM      6  C   UNL     1      -6.505   5.618 132.127  0.00  0.00    +0.000 C 
ATOM      7  C   UNL     1      -7.116   3.641 132.645  0.00  0.00    +0.000 C 
ATOM      8  C   UNL     1      -6.061   2.678 133.151  0.00  0.00    +0.000 C 
ATOM      9  N   UNL     1      -5.402   3.797 132.707  0.00  0.00    +0.000 NA
ATOM     10  C   UNL     1      -6.223   4.937 133.966  0.00  0.00    +0.000 C 
ATOM     11  C   UNL     1      -8.066   5.356 134.047  0.00  0.00    +0.000 C 
ATOM     12  C   UNL     1      -8.704   5.931 132.751  0.00  0.00    +0.000 A 
ATOM     13  C   UNL     1      -7.789   6.410 131.875  0.00  0.00    +0.000 A 
ATOM     14  C   UNL     1      -8.147   7.172 130.704  0.00  0.00    +0.000 A 
ATOM     15  C   UNL     1      -9.454   7.178 130.276  0.00  0.00    +0.000 A 
ATOM     16  C   UNL     1     -10.338   6.364 130.955  0.00  0.00    +0.000 A 
ATOM     17  C   UNL     1      -9.964   5.745 132.183  0.00  0.00    +0.000 A 
ENDROOT
BRANCH  15  18
ATOM     18  O   UNL     1      -9.861   7.829 129.149  0.00  0.00    +0.000 OA
ATOM     19  H   UNL     1     -10.191   8.718 129.370  0.00  0.00    +0.000 HD
ENDBRANCH  15  18
BRANCH   9  20
ATOM     20  C   UNL     1      -5.810   3.707 130.911  0.00  0.00    +0.000 C 
BRANCH  20  21
ATOM     21  C   UNL     1      -4.651   3.395 129.693  0.00  0.00    +0.000 C 
ATOM     22  C   UNL     1      -3.482   3.860 129.274  0.00  0.00    +0.000 C 
ENDBRANCH  20  21
ENDBRANCH   9  20
TORSDOF 3
ENDMDL
