MODEL 1
REMARK VINA RESULT:      -6.2      0.000      0.000
REMARK  Name = Levamisole
REMARK  1 active torsions:
REMARK  status: ('A' for Active; 'I' for Inactive)
REMARK    1  A    between atoms: C_5  and  C_9
REMARK                            x       y       z     vdW  Elec       q    Type
REMARK                         _______ _______ _______ _____ _____    ______ ____
ROOT
ATOM      1  C   UNL     1      -7.517   4.511 130.891  0.00  0.00    +0.000 C 
ATOM      2  C   UNL     1      -8.836   3.966 130.313  0.00  0.00    +0.000 C 
ATOM      3  N   UNL     1      -9.867   4.875 130.698  0.00  0.00    +0.000 N 
ATOM      4  C   UNL     1     -11.257   4.847 130.376  0.00  0.00    +0.000 C 
ATOM      5  C   UNL     1     -11.748   6.180 131.045  0.00  0.00    +0.000 C 
ATOM      6  N   UNL     1     -10.515   6.816 131.685  0.00  0.00    +0.000 NA
ATOM      7  C   UNL     1      -9.568   5.988 131.389  0.00  0.00    +0.000 C 
ATOM      8  S   UNL     1      -7.887   6.091 131.765  0.00  0.00    +0.000 S 
ENDROOT
BRANCH   5   9
ATOM      9  C   UNL     1     -12.451   7.080 130.038  0.00  0.00    +0.000 A 
ATOM     10  C   UNL     1     -13.046   6.540 128.881  0.00  0.00    +0.000 A 
ATOM     11  C   UNL     1     -13.549   7.378 127.882  0.00  0.00    +0.000 A 
ATOM     12  C   UNL     1     -13.547   8.758 128.063  0.00  0.00    +0.000 A 
ATOM     13  C   UNL     1     -13.029   9.302 129.235  0.00  0.00    +0.000 A 
ATOM     14  C   UNL     1     -12.485   8.469 130.213  0.00  0.00    +0.000 A 
ENDBRANCH   5   9
TORSDOF 1
ENDMDL
MODEL 2
REMARK VINA RESULT:      -5.8      1.963      2.590
REMARK  Name = Levamisole
REMARK  1 active torsions:
REMARK  status: ('A' for Active; 'I' for Inactive)
REMARK    1  A    between atoms: C_5  and  C_9
REMARK                            x       y       z     vdW  Elec       q    Type
REMARK                         _______ _______ _______ _____ _____    ______ ____
ROOT
ATOM      1  C   UNL     1      -9.260   2.716 133.027  0.00  0.00    +0.000 C 
ATOM      2  C   UNL     1      -8.955   4.211 133.237  0.00  0.00    +0.000 C 
ATOM      3  N   UNL     1      -9.106   4.850 131.970  0.00  0.00    +0.000 N 
ATOM      4  C   UNL     1      -8.980   6.232 131.639  0.00  0.00    +0.000 C 
ATOM      5  C   UNL     1      -9.366   6.213 130.117  0.00  0.00    +0.000 C 
ATOM      6  N   UNL     1      -9.675   4.757 129.772  0.00  0.00    +0.000 NA
ATOM      7  C   UNL     1      -9.503   4.144 130.897  0.00  0.00    +0.000 C 
ATOM      8  S   UNL     1      -9.711   2.470 131.257  0.00  0.00    +0.000 S 
ENDROOT
BRANCH   5   9
ATOM      9  C   UNL     1     -10.514   7.170 129.824  0.00  0.00    +0.000 A 
ATOM     10  C   UNL     1     -11.625   7.248 130.685  0.00  0.00    +0.000 A 
ATOM     11  C   UNL     1     -12.747   8.005 130.334  0.00  0.00    +0.000 A 
ATOM     12  C   UNL     1     -12.738   8.764 129.166  0.00  0.00    +0.000 A 
ATOM     13  C   UNL     1     -11.616   8.755 128.343  0.00  0.00    +0.000 A 
ATOM     14  C   UNL     1     -10.514   7.963 128.670  0.00  0.00    +0.000 A 
ENDBRANCH   5   9
TORSDOF 1
ENDMDL
MODEL 3
REMARK VINA RESULT:      -5.7      2.506      5.307
REMARK  Name = Levamisole
REMARK  1 active torsions:
REMARK  status: ('A' for Active; 'I' for Inactive)
REMARK    1  A    between atoms: C_5  and  C_9
REMARK                            x       y       z     vdW  Elec       q    Type
REMARK                         _______ _______ _______ _____ _____    ______ ____
ROOT
ATOM      1  C   UNL     1     -11.882   8.211 127.816  0.00  0.00    +0.000 C 
ATOM      2  C   UNL     1     -10.435   7.979 128.290  0.00  0.00    +0.000 C 
ATOM      3  N   UNL     1     -10.511   7.411 129.597  0.00  0.00    +0.000 N 
ATOM      4  C   UNL     1      -9.455   6.972 130.449  0.00  0.00    +0.000 C 
ATOM      5  C   UNL     1     -10.268   6.388 131.660  0.00  0.00    +0.000 C 
ATOM      6  N   UNL     1     -11.743   6.582 131.317  0.00  0.00    +0.000 NA
ATOM      7  C   UNL     1     -11.705   7.138 130.150  0.00  0.00    +0.000 C 
ATOM      8  S   UNL     1     -13.018   7.612 129.136  0.00  0.00    +0.000 S 
ENDROOT
BRANCH   5   9
ATOM      9  C   UNL     1      -9.886   4.941 131.937  0.00  0.00    +0.000 A 
ATOM     10  C   UNL     1     -10.140   3.933 130.987  0.00  0.00    +0.000 A 
ATOM     11  C   UNL     1      -9.938   2.587 131.304  0.00  0.00    +0.000 A 
ATOM     12  C   UNL     1      -9.397   2.235 132.538  0.00  0.00    +0.000 A 
ATOM     13  C   UNL     1      -9.071   3.227 133.459  0.00  0.00    +0.000 A 
ATOM     14  C   UNL     1      -9.315   4.568 133.160  0.00  0.00    +0.000 A 
ENDBRANCH   5   9
TORSDOF 1
ENDMDL
MODEL 4
REMARK VINA RESULT:      -5.6      2.343      5.393
REMARK  Name = Levamisole
REMARK  1 active torsions:
REMARK  status: ('A' for Active; 'I' for Inactive)
REMARK    1  A    between atoms: C_5  and  C_9
REMARK                            x       y       z     vdW  Elec       q    Type
REMARK                         _______ _______ _______ _____ _____    ______ ____
ROOT
ATOM      1  C   UNL     1     -13.485   8.746 127.978  0.00  0.00    +0.000 C 
ATOM      2  C   UNL     1     -13.220   8.937 129.483  0.00  0.00    +0.000 C 
ATOM      3  N   UNL     1     -12.603   7.739 129.953  0.00  0.00    +0.000 N 
ATOM      4  C   UNL     1     -12.119   7.430 131.259  0.00  0.00    +0.000 C 
ATOM      5  C   UNL     1     -11.498   6.008 131.020  0.00  0.00    +0.000 C 
ATOM      6  N   UNL     1     -11.720   5.686 129.544  0.00  0.00    +0.000 NA
ATOM      7  C   UNL     1     -12.320   6.741 129.099  0.00  0.00    +0.000 C 
ATOM      8  S   UNL     1     -12.847   7.087 127.493  0.00  0.00    +0.000 S 
ENDROOT
BRANCH   5   9
ATOM      9  C   UNL     1     -10.037   5.963 131.446  0.00  0.00    +0.000 A 
ATOM     10  C   UNL     1      -9.630   5.185 132.548  0.00  0.00    +0.000 A 
ATOM     11  C   UNL     1      -8.323   5.269 133.035  0.00  0.00    +0.000 A 
ATOM     12  C   UNL     1      -7.382   6.058 132.377  0.00  0.00    +0.000 A 
ATOM     13  C   UNL     1      -7.752   6.774 131.242  0.00  0.00    +0.000 A 
ATOM     14  C   UNL     1      -9.069   6.727 130.782  0.00  0.00    +0.000 A 
ENDBRANCH   5   9
TORSDOF 1
ENDMDL
MODEL 5
REMARK VINA RESULT:      -5.4      9.019     10.704
REMARK  Name = Levamisole
REMARK  1 active torsions:
REMARK  status: ('A' for Active; 'I' for Inactive)
REMARK    1  A    between atoms: C_5  and  C_9
REMARK                            x       y       z     vdW  Elec       q    Type
REMARK                         _______ _______ _______ _____ _____    ______ ____
ROOT
ATOM      1  C   UNL     1      -8.950   2.029 123.139  0.00  0.00    +0.000 C 
ATOM      2  C   UNL     1      -9.669   0.670 123.225  0.00  0.00    +0.000 C 
ATOM      3  N   UNL     1      -8.749  -0.253 123.805  0.00  0.00    +0.000 N 
ATOM      4  C   UNL     1      -8.943  -1.626 124.139  0.00  0.00    +0.000 C 
ATOM      5  C   UNL     1      -7.565  -1.970 124.810  0.00  0.00    +0.000 C 
ATOM      6  N   UNL     1      -6.736  -0.688 124.766  0.00  0.00    +0.000 NA
ATOM      7  C   UNL     1      -7.533   0.160 124.203  0.00  0.00    +0.000 C 
ATOM      8  S   UNL     1      -7.266   1.829 123.859  0.00  0.00    +0.000 S 
ENDROOT
BRANCH   5   9
ATOM      9  C   UNL     1      -7.756  -2.531 126.213  0.00  0.00    +0.000 A 
ATOM     10  C   UNL     1      -8.720  -3.526 126.466  0.00  0.00    +0.000 A 
ATOM     11  C   UNL     1      -9.006  -3.924 127.776  0.00  0.00    +0.000 A 
ATOM     12  C   UNL     1      -8.273  -3.402 128.839  0.00  0.00    +0.000 A 
ATOM     13  C   UNL     1      -7.266  -2.472 128.595  0.00  0.00    +0.000 A 
ATOM     14  C   UNL     1      -7.012  -2.040 127.292  0.00  0.00    +0.000 A 
ENDBRANCH   5   9
TORSDOF 1
ENDMDL
MODEL 6
REMARK VINA RESULT:      -5.2     10.127     10.852
REMARK  Name = Levamisole
REMARK  1 active torsions:
REMARK  status: ('A' for Active; 'I' for Inactive)
REMARK    1  A    between atoms: C_5  and  C_9
REMARK                            x       y       z     vdW  Elec       q    Type
REMARK                         _______ _______ _______ _____ _____    ______ ____
ROOT
ATOM      1  C   UNL     1      -5.168  -4.037 130.284  0.00  0.00    +0.000 C 
ATOM      2  C   UNL     1      -6.659  -3.791 129.988  0.00  0.00    +0.000 C 
ATOM      3  N   UNL     1      -6.722  -2.926 128.854  0.00  0.00    +0.000 N 
ATOM      4  C   UNL     1      -7.868  -2.439 128.158  0.00  0.00    +0.000 C 
ATOM      5  C   UNL     1      -7.191  -1.638 126.989  0.00  0.00    +0.000 C 
ATOM      6  N   UNL     1      -5.683  -1.786 127.186  0.00  0.00    +0.000 NA
ATOM      7  C   UNL     1      -5.595  -2.533 128.237  0.00  0.00    +0.000 C 
ATOM      8  S   UNL     1      -4.179  -3.135 129.018  0.00  0.00    +0.000 S 
ENDROOT
BRANCH   5   9
ATOM      9  C   UNL     1      -7.683  -2.118 125.630  0.00  0.00    +0.000 A 
ATOM     10  C   UNL     1      -7.056  -1.691 124.444  0.00  0.00    +0.000 A 
ATOM     11  C   UNL     1      -7.604  -2.002 123.196  0.00  0.00    +0.000 A 
ATOM     12  C   UNL     1      -8.731  -2.815 123.113  0.00  0.00    +0.000 A 
ATOM     13  C   UNL     1      -9.318  -3.306 124.276  0.00  0.00    +0.000 A 
ATOM     14  C   UNL     1      -8.799  -2.958 125.524  0.00  0.00    +0.000 A 
ENDBRANCH   5   9
TORSDOF 1
ENDMDL
MODEL 7
REMARK VINA RESULT:      -5.0      8.010      9.945
REMARK  Name = Levamisole
REMARK  1 active torsions:
REMARK  status: ('A' for Active; 'I' for Inactive)
REMARK    1  A    between atoms: C_5  and  C_9
REMARK                            x       y       z     vdW  Elec       q    Type
REMARK                         _______ _______ _______ _____ _____    ______ ____
ROOT
ATOM      1  C   UNL     1      -7.913   2.435 123.181  0.00  0.00    +0.000 C 
ATOM      2  C   UNL     1      -7.065   1.154 123.290  0.00  0.00    +0.000 C 
ATOM      3  N   UNL     1      -7.102   0.745 124.657  0.00  0.00    +0.000 N 
ATOM      4  C   UNL     1      -6.516  -0.404 125.267  0.00  0.00    +0.000 C 
ATOM      5  C   UNL     1      -7.036  -0.259 126.741  0.00  0.00    +0.000 C 
ATOM      6  N   UNL     1      -7.887   1.009 126.773  0.00  0.00    +0.000 NA
ATOM      7  C   UNL     1      -7.836   1.429 125.551  0.00  0.00    +0.000 C 
ATOM      8  S   UNL     1      -8.602   2.806 124.849  0.00  0.00    +0.000 S 
ENDROOT
BRANCH   5   9
ATOM      9  C   UNL     1      -7.780  -1.509 127.193  0.00  0.00    +0.000 A 
ATOM     10  C   UNL     1      -7.656  -1.985 128.512  0.00  0.00    +0.000 A 
ATOM     11  C   UNL     1      -8.207  -3.215 128.881  0.00  0.00    +0.000 A 
ATOM     12  C   UNL     1      -8.964  -3.943 127.965  0.00  0.00    +0.000 A 
ATOM     13  C   UNL     1      -9.157  -3.448 126.679  0.00  0.00    +0.000 A 
ATOM     14  C   UNL     1      -8.568  -2.242 126.296  0.00  0.00    +0.000 A 
ENDBRANCH   5   9
TORSDOF 1
ENDMDL
MODEL 8
REMARK VINA RESULT:      -5.0      7.633      9.192
REMARK  Name = Levamisole
REMARK  1 active torsions:
REMARK  status: ('A' for Active; 'I' for Inactive)
REMARK    1  A    between atoms: C_5  and  C_9
REMARK                            x       y       z     vdW  Elec       q    Type
REMARK                         _______ _______ _______ _____ _____    ______ ____
ROOT
ATOM      1  C   UNL     1      -3.942   2.839 126.758  0.00  0.00    +0.000 C 
ATOM      2  C   UNL     1      -2.781   3.849 126.789  0.00  0.00    +0.000 C 
ATOM      3  N   UNL     1      -3.186   4.925 127.634  0.00  0.00    +0.000 N 
ATOM      4  C   UNL     1      -2.454   6.085 128.026  0.00  0.00    +0.000 C 
ATOM      5  C   UNL     1      -3.469   6.762 129.014  0.00  0.00    +0.000 C 
ATOM      6  N   UNL     1      -4.697   5.854 129.055  0.00  0.00    +0.000 NA
ATOM      7  C   UNL     1      -4.374   4.886 128.260  0.00  0.00    +0.000 C 
ATOM      8  S   UNL     1      -5.281   3.476 127.852  0.00  0.00    +0.000 S 
ENDROOT
BRANCH   5   9
ATOM      9  C   UNL     1      -2.838   7.002 130.379  0.00  0.00    +0.000 A 
ATOM     10  C   UNL     1      -3.380   7.951 131.267  0.00  0.00    +0.000 A 
ATOM     11  C   UNL     1      -2.710   8.286 132.448  0.00  0.00    +0.000 A 
ATOM     12  C   UNL     1      -1.542   7.616 132.801  0.00  0.00    +0.000 A 
ATOM     13  C   UNL     1      -1.035   6.622 131.968  0.00  0.00    +0.000 A 
ATOM     14  C   UNL     1      -1.678   6.320 130.766  0.00  0.00    +0.000 A 
ENDBRANCH   5   9
TORSDOF 1
ENDMDL
MODEL 9
REMARK VINA RESULT:      -4.9      7.547      9.905
REMARK  Name = Levamisole
REMARK  1 active torsions:
REMARK  status: ('A' for Active; 'I' for Inactive)
REMARK    1  A    between atoms: C_5  and  C_9
REMARK                            x       y       z     vdW  Elec       q    Type
REMARK                         _______ _______ _______ _____ _____    ______ ____
ROOT
ATOM      1  C   UNL     1      -7.854   3.343 125.025  0.00  0.00    +0.000 C 
ATOM      2  C   UNL     1      -8.970   2.288 124.911  0.00  0.00    +0.000 C 
ATOM      3  N   UNL     1      -8.353   1.010 125.057  0.00  0.00    +0.000 N 
ATOM      4  C   UNL     1      -8.955  -0.283 125.074  0.00  0.00    +0.000 C 
ATOM      5  C   UNL     1      -7.707  -1.193 125.359  0.00  0.00    +0.000 C 
ATOM      6  N   UNL     1      -6.509  -0.252 125.472  0.00  0.00    +0.000 NA
ATOM      7  C   UNL     1      -7.034   0.917 125.300  0.00  0.00    +0.000 C 
ATOM      8  S   UNL     1      -6.266   2.461 125.333  0.00  0.00    +0.000 S 
ENDROOT
BRANCH   5   9
ATOM      9  C   UNL     1      -7.924  -2.062 126.591  0.00  0.00    +0.000 A 
ATOM     10  C   UNL     1      -8.762  -3.192 126.536  0.00  0.00    +0.000 A 
ATOM     11  C   UNL     1      -9.087  -3.895 127.700  0.00  0.00    +0.000 A 
ATOM     12  C   UNL     1      -8.511  -3.534 128.916  0.00  0.00    +0.000 A 
ATOM     13  C   UNL     1      -7.623  -2.464 128.971  0.00  0.00    +0.000 A 
ATOM     14  C   UNL     1      -7.333  -1.734 127.817  0.00  0.00    +0.000 A 
ENDBRANCH   5   9
TORSDOF 1
ENDMDL
