MODEL 1
REMARK VINA RESULT:      -6.0      0.000      0.000
REMARK  Name = Levamlodipine
REMARK  14 active torsions:
REMARK  status: ('A' for Active; 'I' for Inactive)
REMARK    1  A    between atoms: C_1  and  C_2
REMARK    2  A    between atoms: C_2  and  O_3
REMARK    3  A    between atoms: O_3  and  C_4
REMARK    4  A    between atoms: C_4  and  C_6
REMARK    5  A    between atoms: C_7  and  C_8
REMARK    6  A    between atoms: C_8  and  O_9
REMARK    7  A    between atoms: O_9  and  C_10
REMARK    8  A    between atoms: C_10  and  C_11
REMARK    9  A    between atoms: C_11  and  N_12
REMARK   10  A    between atoms: C_14  and  C_15
REMARK   11  A    between atoms: C_16  and  C_25
REMARK   12  A    between atoms: C_17  and  C_18
REMARK   13  A    between atoms: C_25  and  O_27
REMARK   14  A    between atoms: O_27  and  C_28
REMARK                            x       y       z     vdW  Elec       q    Type
REMARK                         _______ _______ _______ _____ _____    ______ ____
ROOT
ATOM      1  C   UNL     1      -7.907   0.319 126.785  0.00  0.00    +0.000 C 
ATOM      2  C   UNL     1      -7.763   1.279 127.728  0.00  0.00    +0.000 C 
ATOM      3  N   UNL     1      -7.506   0.897 129.048  0.00  0.00    +0.000 N 
ATOM      4  C   UNL     1      -7.090  -0.380 129.419  0.00  0.00    +0.000 C 
ATOM      5  C   UNL     1      -6.410  -0.508 130.762  0.00  0.00    +0.000 C 
ATOM      6  C   UNL     1      -7.257  -1.432 128.578  0.00  0.00    +0.000 C 
ATOM      7  C   UNL     1      -7.905  -1.165 127.201  0.00  0.00    +0.000 C 
ATOM      8  H   UNL     1      -7.334   1.644 129.717  0.00  0.00    +0.000 HD
ENDROOT
BRANCH   7   9
ATOM      9  C   UNL     1      -7.284  -2.005 126.108  0.00  0.00    +0.000 A 
ATOM     10  C   UNL     1      -5.934  -1.785 125.766  0.00  0.00    +0.000 A 
ATOM     11  C   UNL     1      -5.351  -2.522 124.743  0.00  0.00    +0.000 A 
ATOM     12  C   UNL     1      -6.098  -3.496 124.081  0.00  0.00    +0.000 A 
ATOM     13  C   UNL     1      -7.432  -3.718 124.414  0.00  0.00    +0.000 A 
ATOM     14  C   UNL     1      -8.033  -2.968 125.410  0.00  0.00    +0.000 A 
ATOM     15 CL   UNL     1      -9.716  -3.262 125.701  0.00  0.00    +0.000 Cl
ENDBRANCH   7   9
BRANCH   1  16
ATOM     16  C   UNL     1      -8.009   0.628 125.321  0.00  0.00    +0.000 C 
ATOM     17  O   UNL     1      -7.083   1.094 124.666  0.00  0.00    +0.000 OA
BRANCH  16  18
ATOM     18  O   UNL     1      -9.283   0.423 124.857  0.00  0.00    +0.000 OA
BRANCH  18  20
ATOM     19  C   UNL     1      -9.359  -0.899 122.806  0.00  0.00    +0.000 C 
ATOM     20  C   UNL     1      -9.446   0.496 123.427  0.00  0.00    +0.000 C 
ENDBRANCH  18  20
ENDBRANCH  16  18
ENDBRANCH   1  16
BRANCH   6  21
ATOM     21  C   UNL     1      -6.717  -2.785 128.969  0.00  0.00    +0.000 C 
ATOM     22  O   UNL     1      -7.403  -3.719 129.384  0.00  0.00    +0.000 OA
BRANCH  21  23
ATOM     23  O   UNL     1      -5.376  -2.893 128.838  0.00  0.00    +0.000 OA
ATOM     24  C   UNL     1      -4.752  -3.724 129.824  0.00  0.00    +0.000 C 
ENDBRANCH  21  23
ENDBRANCH   6  21
BRANCH   2  25
ATOM     25  C   UNL     1      -7.854   2.775 127.468  0.00  0.00    +0.000 C 
BRANCH  25  26
ATOM     26  O   UNL     1      -6.589   3.324 127.128  0.00  0.00    +0.000 OA
BRANCH  26  27
ATOM     27  C   UNL     1      -6.677   4.353 126.158  0.00  0.00    +0.000 C 
BRANCH  27  28
ATOM     28  C   UNL     1      -8.073   4.349 125.537  0.00  0.00    +0.000 C 
BRANCH  28  29
ATOM     29  N   UNL     1      -8.748   5.622 125.740  0.00  0.00    +0.000 NA
ATOM     30  H   UNL     1      -9.658   5.587 125.288  0.00  0.00    +0.000 HD
ATOM     31  H   UNL     1      -8.213   6.354 125.274  0.00  0.00    +0.000 HD
ENDBRANCH  28  29
ENDBRANCH  27  28
ENDBRANCH  26  27
ENDBRANCH  25  26
ENDBRANCH   2  25
TORSDOF 11
ENDMDL
MODEL 2
REMARK VINA RESULT:      -6.0      3.047      5.578
REMARK  Name = Levamlodipine
REMARK  14 active torsions:
REMARK  status: ('A' for Active; 'I' for Inactive)
REMARK    1  A    between atoms: C_1  and  C_2
REMARK    2  A    between atoms: C_2  and  O_3
REMARK    3  A    between atoms: O_3  and  C_4
REMARK    4  A    between atoms: C_4  and  C_6
REMARK    5  A    between atoms: C_7  and  C_8
REMARK    6  A    between atoms: C_8  and  O_9
REMARK    7  A    between atoms: O_9  and  C_10
REMARK    8  A    between atoms: C_10  and  C_11
REMARK    9  A    between atoms: C_11  and  N_12
REMARK   10  A    between atoms: C_14  and  C_15
REMARK   11  A    between atoms: C_16  and  C_25
REMARK   12  A    between atoms: C_17  and  C_18
REMARK   13  A    between atoms: C_25  and  O_27
REMARK   14  A    between atoms: O_27  and  C_28
REMARK                            x       y       z     vdW  Elec       q    Type
REMARK                         _______ _______ _______ _____ _____    ______ ____
ROOT
ATOM      1  C   UNL     1      -6.425   1.980 125.003  0.00  0.00    +0.000 C 
ATOM      2  C   UNL     1      -6.762   2.390 123.758  0.00  0.00    +0.000 C 
ATOM      3  N   UNL     1      -7.631   1.602 122.999  0.00  0.00    +0.000 N 
ATOM      4  C   UNL     1      -8.416   0.580 123.529  0.00  0.00    +0.000 C 
ATOM      5  C   UNL     1      -9.616   0.155 122.718  0.00  0.00    +0.000 C 
ATOM      6  C   UNL     1      -8.121   0.041 124.740  0.00  0.00    +0.000 C 
ATOM      7  C   UNL     1      -6.905   0.605 125.509  0.00  0.00    +0.000 C 
ATOM      8  H   UNL     1      -7.919   1.974 122.097  0.00  0.00    +0.000 HD
ENDROOT
BRANCH   7   9
ATOM      9  C   UNL     1      -7.153   0.663 127.000  0.00  0.00    +0.000 A 
ATOM     10  C   UNL     1      -8.099   1.583 127.496  0.00  0.00    +0.000 A 
ATOM     11  C   UNL     1      -8.320   1.677 128.864  0.00  0.00    +0.000 A 
ATOM     12  C   UNL     1      -7.624   0.840 129.735  0.00  0.00    +0.000 A 
ATOM     13  C   UNL     1      -6.688  -0.070 129.251  0.00  0.00    +0.000 A 
ATOM     14  C   UNL     1      -6.435  -0.151 127.893  0.00  0.00    +0.000 A 
ATOM     15 CL   UNL     1      -5.199  -1.258 127.393  0.00  0.00    +0.000 Cl
ENDBRANCH   7   9
BRANCH   1  16
ATOM     16  C   UNL     1      -5.643   2.834 125.957  0.00  0.00    +0.000 C 
ATOM     17  O   UNL     1      -6.085   3.867 126.449  0.00  0.00    +0.000 OA
BRANCH  16  18
ATOM     18  O   UNL     1      -4.363   2.367 126.110  0.00  0.00    +0.000 OA
BRANCH  18  20
ATOM     19  C   UNL     1      -2.158   3.106 126.854  0.00  0.00    +0.000 C 
ATOM     20  C   UNL     1      -3.630   2.909 127.225  0.00  0.00    +0.000 C 
ENDBRANCH  18  20
ENDBRANCH  16  18
ENDBRANCH   1  16
BRANCH   6  21
ATOM     21  C   UNL     1      -9.037  -1.002 125.329  0.00  0.00    +0.000 C 
ATOM     22  O   UNL     1     -10.135  -0.765 125.831  0.00  0.00    +0.000 OA
BRANCH  21  23
ATOM     23  O   UNL     1      -8.536  -2.256 125.277  0.00  0.00    +0.000 OA
ATOM     24  C   UNL     1      -9.233  -3.133 124.384  0.00  0.00    +0.000 C 
ENDBRANCH  21  23
ENDBRANCH   6  21
BRANCH   2  25
ATOM     25  C   UNL     1      -6.267   3.669 123.100  0.00  0.00    +0.000 C 
BRANCH  25  26
ATOM     26  O   UNL     1      -6.634   3.727 121.730  0.00  0.00    +0.000 OA
BRANCH  26  27
ATOM     27  C   UNL     1      -5.551   4.067 120.882  0.00  0.00    +0.000 C 
BRANCH  27  28
ATOM     28  C   UNL     1      -4.526   4.883 121.668  0.00  0.00    +0.000 C 
BRANCH  28  29
ATOM     29  N   UNL     1      -4.260   6.162 121.026  0.00  0.00    +0.000 NA
ATOM     30  H   UNL     1      -4.399   6.061 120.024  0.00  0.00    +0.000 HD
ATOM     31  H   UNL     1      -3.280   6.401 121.168  0.00  0.00    +0.000 HD
ENDBRANCH  28  29
ENDBRANCH  27  28
ENDBRANCH  26  27
ENDBRANCH  25  26
ENDBRANCH   2  25
TORSDOF 11
ENDMDL
MODEL 3
REMARK VINA RESULT:      -5.9      2.362      4.445
REMARK  Name = Levamlodipine
REMARK  14 active torsions:
REMARK  status: ('A' for Active; 'I' for Inactive)
REMARK    1  A    between atoms: C_1  and  C_2
REMARK    2  A    between atoms: C_2  and  O_3
REMARK    3  A    between atoms: O_3  and  C_4
REMARK    4  A    between atoms: C_4  and  C_6
REMARK    5  A    between atoms: C_7  and  C_8
REMARK    6  A    between atoms: C_8  and  O_9
REMARK    7  A    between atoms: O_9  and  C_10
REMARK    8  A    between atoms: C_10  and  C_11
REMARK    9  A    between atoms: C_11  and  N_12
REMARK   10  A    between atoms: C_14  and  C_15
REMARK   11  A    between atoms: C_16  and  C_25
REMARK   12  A    between atoms: C_17  and  C_18
REMARK   13  A    between atoms: C_25  and  O_27
REMARK   14  A    between atoms: O_27  and  C_28
REMARK                            x       y       z     vdW  Elec       q    Type
REMARK                         _______ _______ _______ _____ _____    ______ ____
ROOT
ATOM      1  C   UNL     1      -6.863   0.350 125.770  0.00  0.00    +0.000 C 
ATOM      2  C   UNL     1      -7.242   0.901 124.593  0.00  0.00    +0.000 C 
ATOM      3  N   UNL     1      -7.037   0.181 123.413  0.00  0.00    +0.000 N 
ATOM      4  C   UNL     1      -6.748  -1.181 123.375  0.00  0.00    +0.000 C 
ATOM      5  C   UNL     1      -7.022  -1.897 122.074  0.00  0.00    +0.000 C 
ATOM      6  C   UNL     1      -6.287  -1.820 124.480  0.00  0.00    +0.000 C 
ATOM      7  C   UNL     1      -6.110  -0.995 125.775  0.00  0.00    +0.000 C 
ATOM      8  H   UNL     1      -7.397   0.593 122.555  0.00  0.00    +0.000 HD
ENDROOT
BRANCH   7   9
ATOM      9  C   UNL     1      -6.480  -1.787 127.009  0.00  0.00    +0.000 A 
ATOM     10  C   UNL     1      -5.475  -2.083 127.953  0.00  0.00    +0.000 A 
ATOM     11  C   UNL     1      -5.784  -2.837 129.078  0.00  0.00    +0.000 A 
ATOM     12  C   UNL     1      -7.093  -3.273 129.279  0.00  0.00    +0.000 A 
ATOM     13  C   UNL     1      -8.090  -2.985 128.350  0.00  0.00    +0.000 A 
ATOM     14  C   UNL     1      -7.788  -2.261 127.209  0.00  0.00    +0.000 A 
ATOM     15 CL   UNL     1      -9.075  -2.020 126.074  0.00  0.00    +0.000 Cl
ENDBRANCH   7   9
BRANCH   1  16
ATOM     16  C   UNL     1      -7.196   0.962 127.099  0.00  0.00    +0.000 C 
ATOM     17  O   UNL     1      -8.336   1.006 127.551  0.00  0.00    +0.000 OA
BRANCH  16  18
ATOM     18  O   UNL     1      -6.094   1.546 127.668  0.00  0.00    +0.000 OA
BRANCH  18  20
ATOM     19  C   UNL     1      -4.610   1.118 129.560  0.00  0.00    +0.000 C 
ATOM     20  C   UNL     1      -6.026   1.481 129.106  0.00  0.00    +0.000 C 
ENDBRANCH  18  20
ENDBRANCH  16  18
ENDBRANCH   1  16
BRANCH   6  21
ATOM     21  C   UNL     1      -6.067  -3.311 124.436  0.00  0.00    +0.000 C 
ATOM     22  O   UNL     1      -6.966  -4.151 124.397  0.00  0.00    +0.000 OA
BRANCH  21  23
ATOM     23  O   UNL     1      -4.763  -3.668 124.460  0.00  0.00    +0.000 OA
ATOM     24  C   UNL     1      -4.436  -4.767 123.601  0.00  0.00    +0.000 C 
ENDBRANCH  21  23
ENDBRANCH   6  21
BRANCH   2  25
ATOM     25  C   UNL     1      -7.892   2.268 124.442  0.00  0.00    +0.000 C 
BRANCH  25  26
ATOM     26  O   UNL     1      -7.179   3.087 123.527  0.00  0.00    +0.000 OA
BRANCH  26  27
ATOM     27  C   UNL     1      -5.986   3.619 124.076  0.00  0.00    +0.000 C 
BRANCH  27  28
ATOM     28  C   UNL     1      -6.320   4.432 125.327  0.00  0.00    +0.000 C 
BRANCH  28  29
ATOM     29  N   UNL     1      -6.423   5.852 125.024  0.00  0.00    +0.000 NA
ATOM     30  H   UNL     1      -6.347   5.979 124.018  0.00  0.00    +0.000 HD
ATOM     31  H   UNL     1      -5.631   6.334 125.446  0.00  0.00    +0.000 HD
ENDBRANCH  28  29
ENDBRANCH  27  28
ENDBRANCH  26  27
ENDBRANCH  25  26
ENDBRANCH   2  25
TORSDOF 11
ENDMDL
MODEL 4
REMARK VINA RESULT:      -5.9      2.148      3.734
REMARK  Name = Levamlodipine
REMARK  14 active torsions:
REMARK  status: ('A' for Active; 'I' for Inactive)
REMARK    1  A    between atoms: C_1  and  C_2
REMARK    2  A    between atoms: C_2  and  O_3
REMARK    3  A    between atoms: O_3  and  C_4
REMARK    4  A    between atoms: C_4  and  C_6
REMARK    5  A    between atoms: C_7  and  C_8
REMARK    6  A    between atoms: C_8  and  O_9
REMARK    7  A    between atoms: O_9  and  C_10
REMARK    8  A    between atoms: C_10  and  C_11
REMARK    9  A    between atoms: C_11  and  N_12
REMARK   10  A    between atoms: C_14  and  C_15
REMARK   11  A    between atoms: C_16  and  C_25
REMARK   12  A    between atoms: C_17  and  C_18
REMARK   13  A    between atoms: C_25  and  O_27
REMARK   14  A    between atoms: O_27  and  C_28
REMARK                            x       y       z     vdW  Elec       q    Type
REMARK                         _______ _______ _______ _____ _____    ______ ____
ROOT
ATOM      1  C   UNL     1      -7.633  -0.953 126.387  0.00  0.00    +0.000 C 
ATOM      2  C   UNL     1      -7.894   0.161 125.665  0.00  0.00    +0.000 C 
ATOM      3  N   UNL     1      -8.242   1.336 126.337  0.00  0.00    +0.000 N 
ATOM      4  C   UNL     1      -8.053   1.535 127.702  0.00  0.00    +0.000 C 
ATOM      5  C   UNL     1      -8.026   2.966 128.183  0.00  0.00    +0.000 C 
ATOM      6  C   UNL     1      -7.860   0.479 128.533  0.00  0.00    +0.000 C 
ATOM      7  C   UNL     1      -7.841  -0.938 127.914  0.00  0.00    +0.000 C 
ATOM      8  H   UNL     1      -8.363   2.172 125.768  0.00  0.00    +0.000 HD
ENDROOT
BRANCH   7   9
ATOM      9  C   UNL     1      -6.824  -1.836 128.582  0.00  0.00    +0.000 A 
ATOM     10  C   UNL     1      -5.467  -1.452 128.570  0.00  0.00    +0.000 A 
ATOM     11  C   UNL     1      -4.511  -2.278 129.148  0.00  0.00    +0.000 A 
ATOM     12  C   UNL     1      -4.904  -3.466 129.762  0.00  0.00    +0.000 A 
ATOM     13  C   UNL     1      -6.242  -3.850 129.777  0.00  0.00    +0.000 A 
ATOM     14  C   UNL     1      -7.201  -3.053 129.176  0.00  0.00    +0.000 A 
ATOM     15 CL   UNL     1      -8.827  -3.651 129.177  0.00  0.00    +0.000 Cl
ENDBRANCH   7   9
BRANCH   1  16
ATOM     16  C   UNL     1      -7.085  -2.209 125.776  0.00  0.00    +0.000 C 
ATOM     17  O   UNL     1      -5.935  -2.306 125.361  0.00  0.00    +0.000 OA
BRANCH  16  18
ATOM     18  O   UNL     1      -8.056  -3.168 125.652  0.00  0.00    +0.000 OA
BRANCH  18  20
ATOM     19  C   UNL     1      -9.417  -3.224 123.626  0.00  0.00    +0.000 C 
ATOM     20  C   UNL     1      -8.181  -3.765 124.347  0.00  0.00    +0.000 C 
ENDBRANCH  18  20
ENDBRANCH  16  18
ENDBRANCH   1  16
BRANCH   6  21
ATOM     21  C   UNL     1      -7.570   0.727 129.992  0.00  0.00    +0.000 C 
ATOM     22  O   UNL     1      -6.513   1.182 130.428  0.00  0.00    +0.000 OA
BRANCH  21  23
ATOM     23  O   UNL     1      -8.588   0.386 130.813  0.00  0.00    +0.000 OA
ATOM     24  C   UNL     1      -8.228  -0.537 131.848  0.00  0.00    +0.000 C 
ENDBRANCH  21  23
ENDBRANCH   6  21
BRANCH   2  25
ATOM     25  C   UNL     1      -7.834   0.248 124.147  0.00  0.00    +0.000 C 
BRANCH  25  26
ATOM     26  O   UNL     1      -6.777   1.091 123.714  0.00  0.00    +0.000 OA
BRANCH  26  27
ATOM     27  C   UNL     1      -7.229   2.191 122.943  0.00  0.00    +0.000 C 
BRANCH  27  28
ATOM     28  C   UNL     1      -7.020   3.484 123.731  0.00  0.00    +0.000 C 
BRANCH  28  29
ATOM     29  N   UNL     1      -8.246   3.905 124.394  0.00  0.00    +0.000 NA
ATOM     30  H   UNL     1      -8.679   3.094 124.828  0.00  0.00    +0.000 HD
ATOM     31  H   UNL     1      -8.897   4.248 123.689  0.00  0.00    +0.000 HD
ENDBRANCH  28  29
ENDBRANCH  27  28
ENDBRANCH  26  27
ENDBRANCH  25  26
ENDBRANCH   2  25
TORSDOF 11
ENDMDL
MODEL 5
REMARK VINA RESULT:      -5.9      1.742      2.210
REMARK  Name = Levamlodipine
REMARK  14 active torsions:
REMARK  status: ('A' for Active; 'I' for Inactive)
REMARK    1  A    between atoms: C_1  and  C_2
REMARK    2  A    between atoms: C_2  and  O_3
REMARK    3  A    between atoms: O_3  and  C_4
REMARK    4  A    between atoms: C_4  and  C_6
REMARK    5  A    between atoms: C_7  and  C_8
REMARK    6  A    between atoms: C_8  and  O_9
REMARK    7  A    between atoms: O_9  and  C_10
REMARK    8  A    between atoms: C_10  and  C_11
REMARK    9  A    between atoms: C_11  and  N_12
REMARK   10  A    between atoms: C_14  and  C_15
REMARK   11  A    between atoms: C_16  and  C_25
REMARK   12  A    between atoms: C_17  and  C_18
REMARK   13  A    between atoms: C_25  and  O_27
REMARK   14  A    between atoms: O_27  and  C_28
REMARK                            x       y       z     vdW  Elec       q    Type
REMARK                         _______ _______ _______ _____ _____    ______ ____
ROOT
ATOM      1  C   UNL     1      -8.017   1.079 126.089  0.00  0.00    +0.000 C 
ATOM      2  C   UNL     1      -7.565   2.124 126.821  0.00  0.00    +0.000 C 
ATOM      3  N   UNL     1      -7.226   1.915 128.160  0.00  0.00    +0.000 N 
ATOM      4  C   UNL     1      -7.030   0.656 128.724  0.00  0.00    +0.000 C 
ATOM      5  C   UNL     1      -6.225   0.602 130.000  0.00  0.00    +0.000 C 
ATOM      6  C   UNL     1      -7.509  -0.456 128.111  0.00  0.00    +0.000 C 
ATOM      7  C   UNL     1      -8.260  -0.281 126.772  0.00  0.00    +0.000 C 
ATOM      8  H   UNL     1      -6.824   2.705 128.661  0.00  0.00    +0.000 HD
ENDROOT
BRANCH   7   9
ATOM      9  C   UNL     1      -7.962  -1.404 125.803  0.00  0.00    +0.000 A 
ATOM     10  C   UNL     1      -9.012  -2.261 125.414  0.00  0.00    +0.000 A 
ATOM     11  C   UNL     1      -8.756  -3.319 124.551  0.00  0.00    +0.000 A 
ATOM     12  C   UNL     1      -7.467  -3.508 124.053  0.00  0.00    +0.000 A 
ATOM     13  C   UNL     1      -6.426  -2.666 124.435  0.00  0.00    +0.000 A 
ATOM     14  C   UNL     1      -6.662  -1.628 125.319  0.00  0.00    +0.000 A 
ATOM     15 CL   UNL     1      -5.290  -0.681 125.796  0.00  0.00    +0.000 Cl
ENDBRANCH   7   9
BRANCH   1  16
ATOM     16  C   UNL     1      -8.240   1.160 124.608  0.00  0.00    +0.000 C 
ATOM     17  O   UNL     1      -7.325   1.228 123.794  0.00  0.00    +0.000 OA
BRANCH  16  18
ATOM     18  O   UNL     1      -9.575   1.254 124.310  0.00  0.00    +0.000 OA
BRANCH  18  20
ATOM     19  C   UNL     1     -10.138  -0.252 122.472  0.00  0.00    +0.000 C 
ATOM     20  C   UNL     1      -9.908   1.197 122.909  0.00  0.00    +0.000 C 
ENDBRANCH  18  20
ENDBRANCH  16  18
ENDBRANCH   1  16
BRANCH   6  21
ATOM     21  C   UNL     1      -7.206  -1.813 128.697  0.00  0.00    +0.000 C 
ATOM     22  O   UNL     1      -6.117  -2.380 128.622  0.00  0.00    +0.000 OA
BRANCH  21  23
ATOM     23  O   UNL     1      -8.263  -2.384 129.318  0.00  0.00    +0.000 OA
ATOM     24  C   UNL     1      -8.637  -3.662 128.790  0.00  0.00    +0.000 C 
ENDBRANCH  21  23
ENDBRANCH   6  21
BRANCH   2  25
ATOM     25  C   UNL     1      -7.388   3.541 126.296  0.00  0.00    +0.000 C 
BRANCH  25  26
ATOM     26  O   UNL     1      -6.100   3.730 125.729  0.00  0.00    +0.000 OA
BRANCH  26  27
ATOM     27  C   UNL     1      -6.065   4.775 124.773  0.00  0.00    +0.000 C 
BRANCH  27  28
ATOM     28  C   UNL     1      -5.632   4.212 123.420  0.00  0.00    +0.000 C 
BRANCH  28  29
ATOM     29  N   UNL     1      -6.781   3.855 122.601  0.00  0.00    +0.000 NA
ATOM     30  H   UNL     1      -7.624   4.200 123.051  0.00  0.00    +0.000 HD
ATOM     31  H   UNL     1      -6.855   2.839 122.568  0.00  0.00    +0.000 HD
ENDBRANCH  28  29
ENDBRANCH  27  28
ENDBRANCH  26  27
ENDBRANCH  25  26
ENDBRANCH   2  25
TORSDOF 11
ENDMDL
MODEL 6
REMARK VINA RESULT:      -5.8      1.806      2.292
REMARK  Name = Levamlodipine
REMARK  14 active torsions:
REMARK  status: ('A' for Active; 'I' for Inactive)
REMARK    1  A    between atoms: C_1  and  C_2
REMARK    2  A    between atoms: C_2  and  O_3
REMARK    3  A    between atoms: O_3  and  C_4
REMARK    4  A    between atoms: C_4  and  C_6
REMARK    5  A    between atoms: C_7  and  C_8
REMARK    6  A    between atoms: C_8  and  O_9
REMARK    7  A    between atoms: O_9  and  C_10
REMARK    8  A    between atoms: C_10  and  C_11
REMARK    9  A    between atoms: C_11  and  N_12
REMARK   10  A    between atoms: C_14  and  C_15
REMARK   11  A    between atoms: C_16  and  C_25
REMARK   12  A    between atoms: C_17  and  C_18
REMARK   13  A    between atoms: C_25  and  O_27
REMARK   14  A    between atoms: O_27  and  C_28
REMARK                            x       y       z     vdW  Elec       q    Type
REMARK                         _______ _______ _______ _____ _____    ______ ____
ROOT
ATOM      1  C   UNL     1      -7.852   0.109 127.644  0.00  0.00    +0.000 C 
ATOM      2  C   UNL     1      -7.608   1.002 128.632  0.00  0.00    +0.000 C 
ATOM      3  N   UNL     1      -6.971   0.563 129.796  0.00  0.00    +0.000 N 
ATOM      4  C   UNL     1      -6.298  -0.652 129.902  0.00  0.00    +0.000 C 
ATOM      5  C   UNL     1      -5.287  -0.772 131.017  0.00  0.00    +0.000 C 
ATOM      6  C   UNL     1      -6.525  -1.646 129.007  0.00  0.00    +0.000 C 
ATOM      7  C   UNL     1      -7.535  -1.382 127.868  0.00  0.00    +0.000 C 
ATOM      8  H   UNL     1      -6.741   1.273 130.488  0.00  0.00    +0.000 HD
ENDROOT
BRANCH   7   9
ATOM      9  C   UNL     1      -7.102  -2.018 126.566  0.00  0.00    +0.000 A 
ATOM     10  C   UNL     1      -5.846  -1.673 126.026  0.00  0.00    +0.000 A 
ATOM     11  C   UNL     1      -5.441  -2.219 124.814  0.00  0.00    +0.000 A 
ATOM     12  C   UNL     1      -6.268  -3.128 124.156  0.00  0.00    +0.000 A 
ATOM     13  C   UNL     1      -7.510  -3.472 124.684  0.00  0.00    +0.000 A 
ATOM     14  C   UNL     1      -7.939  -2.910 125.874  0.00  0.00    +0.000 A 
ATOM     15 CL   UNL     1      -9.529  -3.340 126.412  0.00  0.00    +0.000 Cl
ENDBRANCH   7   9
BRANCH   1  16
ATOM     16  C   UNL     1      -8.369   0.512 126.294  0.00  0.00    +0.000 C 
ATOM     17  O   UNL     1      -9.475   0.186 125.874  0.00  0.00    +0.000 OA
BRANCH  16  18
ATOM     18  O   UNL     1      -7.414   1.182 125.575  0.00  0.00    +0.000 OA
BRANCH  18  20
ATOM     19  C   UNL     1      -7.168   0.554 123.228  0.00  0.00    +0.000 C 
ATOM     20  C   UNL     1      -7.781   1.538 124.228  0.00  0.00    +0.000 C 
ENDBRANCH  18  20
ENDBRANCH  16  18
ENDBRANCH   1  16
BRANCH   6  21
ATOM     21  C   UNL     1      -5.718  -2.918 129.093  0.00  0.00    +0.000 C 
ATOM     22  O   UNL     1      -4.564  -3.043 128.686  0.00  0.00    +0.000 OA
BRANCH  21  23
ATOM     23  O   UNL     1      -6.388  -3.949 129.656  0.00  0.00    +0.000 OA
ATOM     24  C   UNL     1      -5.652  -4.651 130.665  0.00  0.00    +0.000 C 
ENDBRANCH  21  23
ENDBRANCH   6  21
BRANCH   2  25
ATOM     25  C   UNL     1      -7.973   2.477 128.581  0.00  0.00    +0.000 C 
BRANCH  25  26
ATOM     26  O   UNL     1      -9.255   2.718 129.143  0.00  0.00    +0.000 OA
BRANCH  26  27
ATOM     27  C   UNL     1      -9.192   3.326 130.421  0.00  0.00    +0.000 C 
BRANCH  27  28
ATOM     28  C   UNL     1     -10.217   4.458 130.496  0.00  0.00    +0.000 C 
BRANCH  28  29
ATOM     29  N   UNL     1     -11.567   3.968 130.258  0.00  0.00    +0.000 NA
ATOM     30  H   UNL     1     -12.203   4.432 130.901  0.00  0.00    +0.000 HD
ATOM     31  H   UNL     1     -11.597   2.973 130.477  0.00  0.00    +0.000 HD
ENDBRANCH  28  29
ENDBRANCH  27  28
ENDBRANCH  26  27
ENDBRANCH  25  26
ENDBRANCH   2  25
TORSDOF 11
ENDMDL
MODEL 7
REMARK VINA RESULT:      -5.8      2.575      4.897
REMARK  Name = Levamlodipine
REMARK  14 active torsions:
REMARK  status: ('A' for Active; 'I' for Inactive)
REMARK    1  A    between atoms: C_1  and  C_2
REMARK    2  A    between atoms: C_2  and  O_3
REMARK    3  A    between atoms: O_3  and  C_4
REMARK    4  A    between atoms: C_4  and  C_6
REMARK    5  A    between atoms: C_7  and  C_8
REMARK    6  A    between atoms: C_8  and  O_9
REMARK    7  A    between atoms: O_9  and  C_10
REMARK    8  A    between atoms: C_10  and  C_11
REMARK    9  A    between atoms: C_11  and  N_12
REMARK   10  A    between atoms: C_14  and  C_15
REMARK   11  A    between atoms: C_16  and  C_25
REMARK   12  A    between atoms: C_17  and  C_18
REMARK   13  A    between atoms: C_25  and  O_27
REMARK   14  A    between atoms: O_27  and  C_28
REMARK                            x       y       z     vdW  Elec       q    Type
REMARK                         _______ _______ _______ _____ _____    ______ ____
ROOT
ATOM      1  C   UNL     1      -7.852  -1.300 126.861  0.00  0.00    +0.000 C 
ATOM      2  C   UNL     1      -8.196  -0.166 126.206  0.00  0.00    +0.000 C 
ATOM      3  N   UNL     1      -8.511   0.975 126.950  0.00  0.00    +0.000 N 
ATOM      4  C   UNL     1      -8.211   1.128 128.302  0.00  0.00    +0.000 C 
ATOM      5  C   UNL     1      -8.173   2.540 128.833  0.00  0.00    +0.000 C 
ATOM      6  C   UNL     1      -7.926   0.047 129.072  0.00  0.00    +0.000 C 
ATOM      7  C   UNL     1      -7.930  -1.345 128.400  0.00  0.00    +0.000 C 
ATOM      8  H   UNL     1      -8.696   1.827 126.426  0.00  0.00    +0.000 HD
ENDROOT
BRANCH   7   9
ATOM      9  C   UNL     1      -6.842  -2.243 128.945  0.00  0.00    +0.000 A 
ATOM     10  C   UNL     1      -7.209  -3.434 129.602  0.00  0.00    +0.000 A 
ATOM     11  C   UNL     1      -6.228  -4.258 130.140  0.00  0.00    +0.000 A 
ATOM     12  C   UNL     1      -4.885  -3.914 129.999  0.00  0.00    +0.000 A 
ATOM     13  C   UNL     1      -4.515  -2.738 129.351  0.00  0.00    +0.000 A 
ATOM     14  C   UNL     1      -5.484  -1.892 128.840  0.00  0.00    +0.000 A 
ATOM     15 CL   UNL     1      -4.932  -0.416 128.120  0.00  0.00    +0.000 Cl
ENDBRANCH   7   9
BRANCH   1  16
ATOM     16  C   UNL     1      -7.331  -2.518 126.158  0.00  0.00    +0.000 C 
ATOM     17  O   UNL     1      -7.983  -3.550 126.031  0.00  0.00    +0.000 OA
BRANCH  16  18
ATOM     18  O   UNL     1      -6.022  -2.358 125.787  0.00  0.00    +0.000 OA
BRANCH  18  20
ATOM     19  C   UNL     1      -4.932  -3.722 124.081  0.00  0.00    +0.000 C 
ATOM     20  C   UNL     1      -5.755  -2.466 124.375  0.00  0.00    +0.000 C 
ENDBRANCH  18  20
ENDBRANCH  16  18
ENDBRANCH   1  16
BRANCH   6  21
ATOM     21  C   UNL     1      -7.518   0.248 130.510  0.00  0.00    +0.000 C 
ATOM     22  O   UNL     1      -6.460   0.762 130.872  0.00  0.00    +0.000 OA
BRANCH  21  23
ATOM     23  O   UNL     1      -8.428  -0.208 131.400  0.00  0.00    +0.000 OA
ATOM     24  C   UNL     1      -9.362   0.781 131.849  0.00  0.00    +0.000 C 
ENDBRANCH  21  23
ENDBRANCH   6  21
BRANCH   2  25
ATOM     25  C   UNL     1      -8.267  -0.023 124.694  0.00  0.00    +0.000 C 
BRANCH  25  26
ATOM     26  O   UNL     1      -9.470  -0.569 124.173  0.00  0.00    +0.000 OA
BRANCH  26  27
ATOM     27  C   UNL     1      -9.333  -1.039 122.844  0.00  0.00    +0.000 C 
BRANCH  27  28
ATOM     28  C   UNL     1      -8.974  -2.525 122.865  0.00  0.00    +0.000 C 
BRANCH  28  29
ATOM     29  N   UNL     1      -9.937  -3.292 123.643  0.00  0.00    +0.000 NA
ATOM     30  H   UNL     1      -9.754  -4.283 123.506  0.00  0.00    +0.000 HD
ATOM     31  H   UNL     1     -10.871  -3.109 123.279  0.00  0.00    +0.000 HD
ENDBRANCH  28  29
ENDBRANCH  27  28
ENDBRANCH  26  27
ENDBRANCH  25  26
ENDBRANCH   2  25
TORSDOF 11
ENDMDL
MODEL 8
REMARK VINA RESULT:      -5.7      2.241      5.596
REMARK  Name = Levamlodipine
REMARK  14 active torsions:
REMARK  status: ('A' for Active; 'I' for Inactive)
REMARK    1  A    between atoms: C_1  and  C_2
REMARK    2  A    between atoms: C_2  and  O_3
REMARK    3  A    between atoms: O_3  and  C_4
REMARK    4  A    between atoms: C_4  and  C_6
REMARK    5  A    between atoms: C_7  and  C_8
REMARK    6  A    between atoms: C_8  and  O_9
REMARK    7  A    between atoms: O_9  and  C_10
REMARK    8  A    between atoms: C_10  and  C_11
REMARK    9  A    between atoms: C_11  and  N_12
REMARK   10  A    between atoms: C_14  and  C_15
REMARK   11  A    between atoms: C_16  and  C_25
REMARK   12  A    between atoms: C_17  and  C_18
REMARK   13  A    between atoms: C_25  and  O_27
REMARK   14  A    between atoms: O_27  and  C_28
REMARK                            x       y       z     vdW  Elec       q    Type
REMARK                         _______ _______ _______ _____ _____    ______ ____
ROOT
ATOM      1  C   UNL     1      -5.753  -0.450 127.319  0.00  0.00    +0.000 C 
ATOM      2  C   UNL     1      -5.519   0.702 127.990  0.00  0.00    +0.000 C 
ATOM      3  N   UNL     1      -5.650   1.917 127.312  0.00  0.00    +0.000 N 
ATOM      4  C   UNL     1      -6.294   2.055 126.084  0.00  0.00    +0.000 C 
ATOM      5  C   UNL     1      -6.768   3.442 125.719  0.00  0.00    +0.000 C 
ATOM      6  C   UNL     1      -6.512   0.974 125.294  0.00  0.00    +0.000 C 
ATOM      7  C   UNL     1      -6.041  -0.406 125.805  0.00  0.00    +0.000 C 
ATOM      8  H   UNL     1      -5.535   2.765 127.863  0.00  0.00    +0.000 HD
ENDROOT
BRANCH   7   9
ATOM      9  C   UNL     1      -7.005  -1.510 125.432  0.00  0.00    +0.000 A 
ATOM     10  C   UNL     1      -8.329  -1.448 125.914  0.00  0.00    +0.000 A 
ATOM     11  C   UNL     1      -9.223  -2.467 125.611  0.00  0.00    +0.000 A 
ATOM     12  C   UNL     1      -8.812  -3.530 124.808  0.00  0.00    +0.000 A 
ATOM     13  C   UNL     1      -7.506  -3.598 124.330  0.00  0.00    +0.000 A 
ATOM     14  C   UNL     1      -6.596  -2.605 124.651  0.00  0.00    +0.000 A 
ATOM     15 CL   UNL     1      -4.975  -2.815 124.076  0.00  0.00    +0.000 Cl
ENDBRANCH   7   9
BRANCH   1  16
ATOM     16  C   UNL     1      -5.809  -1.788 127.996  0.00  0.00    +0.000 C 
ATOM     17  O   UNL     1      -4.991  -2.679 127.790  0.00  0.00    +0.000 OA
BRANCH  16  18
ATOM     18  O   UNL     1      -6.934  -1.908 128.770  0.00  0.00    +0.000 OA
BRANCH  18  20
ATOM     19  C   UNL     1      -8.670  -3.620 128.902  0.00  0.00    +0.000 C 
ATOM     20  C   UNL     1      -7.228  -3.237 129.242  0.00  0.00    +0.000 C 
ENDBRANCH  18  20
ENDBRANCH  16  18
ENDBRANCH   1  16
BRANCH   6  21
ATOM     21  C   UNL     1      -7.289   1.138 124.012  0.00  0.00    +0.000 C 
ATOM     22  O   UNL     1      -6.796   1.094 122.885  0.00  0.00    +0.000 OA
BRANCH  21  23
ATOM     23  O   UNL     1      -8.609   1.360 124.201  0.00  0.00    +0.000 OA
ATOM     24  C   UNL     1      -9.448   0.857 123.155  0.00  0.00    +0.000 C 
ENDBRANCH  21  23
ENDBRANCH   6  21
BRANCH   2  25
ATOM     25  C   UNL     1      -5.118   0.789 129.454  0.00  0.00    +0.000 C 
BRANCH  25  26
ATOM     26  O   UNL     1      -4.043  -0.088 129.755  0.00  0.00    +0.000 OA
BRANCH  26  27
ATOM     27  C   UNL     1      -4.173  -0.707 131.023  0.00  0.00    +0.000 C 
BRANCH  27  28
ATOM     28  C   UNL     1      -3.283  -1.949 131.076  0.00  0.00    +0.000 C 
BRANCH  28  29
ATOM     29  N   UNL     1      -2.649  -2.202 129.791  0.00  0.00    +0.000 NA
ATOM     30  H   UNL     1      -2.771  -3.183 129.552  0.00  0.00    +0.000 HD
ATOM     31  H   UNL     1      -1.647  -2.041 129.884  0.00  0.00    +0.000 HD
ENDBRANCH  28  29
ENDBRANCH  27  28
ENDBRANCH  26  27
ENDBRANCH  25  26
ENDBRANCH   2  25
TORSDOF 11
ENDMDL
MODEL 9
REMARK VINA RESULT:      -5.6      2.359      4.966
REMARK  Name = Levamlodipine
REMARK  14 active torsions:
REMARK  status: ('A' for Active; 'I' for Inactive)
REMARK    1  A    between atoms: C_1  and  C_2
REMARK    2  A    between atoms: C_2  and  O_3
REMARK    3  A    between atoms: O_3  and  C_4
REMARK    4  A    between atoms: C_4  and  C_6
REMARK    5  A    between atoms: C_7  and  C_8
REMARK    6  A    between atoms: C_8  and  O_9
REMARK    7  A    between atoms: O_9  and  C_10
REMARK    8  A    between atoms: C_10  and  C_11
REMARK    9  A    between atoms: C_11  and  N_12
REMARK   10  A    between atoms: C_14  and  C_15
REMARK   11  A    between atoms: C_16  and  C_25
REMARK   12  A    between atoms: C_17  and  C_18
REMARK   13  A    between atoms: C_25  and  O_27
REMARK   14  A    between atoms: O_27  and  C_28
REMARK                            x       y       z     vdW  Elec       q    Type
REMARK                         _______ _______ _______ _____ _____    ______ ____
ROOT
ATOM      1  C   UNL     1      -6.712   0.579 126.658  0.00  0.00    +0.000 C 
ATOM      2  C   UNL     1      -6.846   1.551 127.590  0.00  0.00    +0.000 C 
ATOM      3  N   UNL     1      -6.991   2.876 127.169  0.00  0.00    +0.000 N 
ATOM      4  C   UNL     1      -7.307   3.246 125.864  0.00  0.00    +0.000 C 
ATOM      5  C   UNL     1      -7.886   4.627 125.672  0.00  0.00    +0.000 C 
ATOM      6  C   UNL     1      -7.137   2.372 124.839  0.00  0.00    +0.000 C 
ATOM      7  C   UNL     1      -6.600   0.961 125.169  0.00  0.00    +0.000 C 
ATOM      8  H   UNL     1      -7.160   3.571 127.893  0.00  0.00    +0.000 HD
ENDROOT
BRANCH   7   9
ATOM      9  C   UNL     1      -7.245  -0.106 124.313  0.00  0.00    +0.000 A 
ATOM     10  C   UNL     1      -6.431  -0.870 123.451  0.00  0.00    +0.000 A 
ATOM     11  C   UNL     1      -7.005  -1.833 122.632  0.00  0.00    +0.000 A 
ATOM     12  C   UNL     1      -8.380  -2.058 122.689  0.00  0.00    +0.000 A 
ATOM     13  C   UNL     1      -9.189  -1.306 123.537  0.00  0.00    +0.000 A 
ATOM     14  C   UNL     1      -8.634  -0.321 124.335  0.00  0.00    +0.000 A 
ATOM     15 CL   UNL     1      -9.729   0.613 125.299  0.00  0.00    +0.000 Cl
ENDBRANCH   7   9
BRANCH   1  16
ATOM     16  C   UNL     1      -6.726  -0.882 126.998  0.00  0.00    +0.000 C 
ATOM     17  O   UNL     1      -5.761  -1.620 126.828  0.00  0.00    +0.000 OA
BRANCH  16  18
ATOM     18  O   UNL     1      -7.970  -1.285 127.411  0.00  0.00    +0.000 OA
BRANCH  18  20
ATOM     19  C   UNL     1      -9.005  -3.339 126.593  0.00  0.00    +0.000 C 
ATOM     20  C   UNL     1      -8.117  -2.696 127.661  0.00  0.00    +0.000 C 
ENDBRANCH  18  20
ENDBRANCH  16  18
ENDBRANCH   1  16
BRANCH   6  21
ATOM     21  C   UNL     1      -7.570   2.768 123.450  0.00  0.00    +0.000 C 
ATOM     22  O   UNL     1      -8.728   3.034 123.127  0.00  0.00    +0.000 OA
BRANCH  21  23
ATOM     23  O   UNL     1      -6.559   2.794 122.553  0.00  0.00    +0.000 OA
ATOM     24  C   UNL     1      -5.808   4.014 122.545  0.00  0.00    +0.000 C 
ENDBRANCH  21  23
ENDBRANCH   6  21
BRANCH   2  25
ATOM     25  C   UNL     1      -6.859   1.318 129.093  0.00  0.00    +0.000 C 
BRANCH  25  26
ATOM     26  O   UNL     1      -7.334   2.458 129.794  0.00  0.00    +0.000 OA
BRANCH  26  27
ATOM     27  C   UNL     1      -8.517   2.200 130.530  0.00  0.00    +0.000 C 
BRANCH  27  28
ATOM     28  C   UNL     1      -9.590   3.216 130.140  0.00  0.00    +0.000 C 
BRANCH  28  29
ATOM     29  N   UNL     1      -9.097   4.151 129.139  0.00  0.00    +0.000 NA
ATOM     30  H   UNL     1      -8.080   4.141 129.154  0.00  0.00    +0.000 HD
ATOM     31  H   UNL     1      -9.388   5.092 129.399  0.00  0.00    +0.000 HD
ENDBRANCH  28  29
ENDBRANCH  27  28
ENDBRANCH  26  27
ENDBRANCH  25  26
ENDBRANCH   2  25
TORSDOF 11
ENDMDL
