MODEL 1
REMARK VINA RESULT:      -5.6      0.000      0.000
REMARK  Name = Levetiracetam
REMARK  4 active torsions:
REMARK  status: ('A' for Active; 'I' for Inactive)
REMARK    1  A    between atoms: C_1  and  C_2
REMARK    2  A    between atoms: C_2  and  C_3
REMARK    3  A    between atoms: C_3  and  N_4
REMARK    4  A    between atoms: C_3  and  C_10
REMARK                            x       y       z     vdW  Elec       q    Type
REMARK                         _______ _______ _______ _____ _____    ______ ____
ROOT
ATOM      1  C   UNL     1     -12.454   8.580 128.891  0.00  0.00    +0.000 C 
ENDROOT
BRANCH   1   2
ATOM      2  N   UNL     1     -11.855   7.623 129.855  0.00  0.00    +0.000 N 
ATOM      3  C   UNL     1     -12.499   7.064 131.030  0.00  0.00    +0.000 C 
ATOM      4  C   UNL     1     -11.349   6.504 131.855  0.00  0.00    +0.000 C 
ATOM      5  C   UNL     1     -10.300   6.198 130.808  0.00  0.00    +0.000 C 
ATOM      6  C   UNL     1     -10.472   7.398 129.934  0.00  0.00    +0.000 C 
ATOM      7  O   UNL     1      -9.570   7.966 129.356  0.00  0.00    +0.000 OA
ENDBRANCH   1   2
BRANCH   1   8
ATOM      8  C   UNL     1     -13.177   9.856 129.420  0.00  0.00    +0.000 C 
ATOM      9  N   UNL     1     -13.884  10.618 128.542  0.00  0.00    +0.000 N 
ATOM     10  O   UNL     1     -13.126  10.214 130.597  0.00  0.00    +0.000 OA
ATOM     11  H   UNL     1     -13.742  10.547 127.553  0.00  0.00    +0.000 HD
ATOM     12  H   UNL     1     -14.269  11.488 128.887  0.00  0.00    +0.000 HD
ENDBRANCH   1   8
BRANCH   1  14
ATOM     13  C   UNL     1     -12.768   7.051 126.820  0.00  0.00    +0.000 C 
ATOM     14  C   UNL     1     -13.449   7.866 127.930  0.00  0.00    +0.000 C 
ENDBRANCH   1  14
TORSDOF 3
ENDMDL
MODEL 2
REMARK VINA RESULT:      -5.4      2.821      4.872
REMARK  Name = Levetiracetam
REMARK  4 active torsions:
REMARK  status: ('A' for Active; 'I' for Inactive)
REMARK    1  A    between atoms: C_1  and  C_2
REMARK    2  A    between atoms: C_2  and  C_3
REMARK    3  A    between atoms: C_3  and  N_4
REMARK    4  A    between atoms: C_3  and  C_10
REMARK                            x       y       z     vdW  Elec       q    Type
REMARK                         _______ _______ _______ _____ _____    ______ ____
ROOT
ATOM      1  C   UNL     1      -9.733   5.923 130.129  0.00  0.00    +0.000 C 
ENDROOT
BRANCH   1   2
ATOM      2  N   UNL     1     -10.456   6.968 129.361  0.00  0.00    +0.000 N 
ATOM      3  C   UNL     1     -11.581   7.758 129.827  0.00  0.00    +0.000 C 
ATOM      4  C   UNL     1     -12.177   8.344 128.554  0.00  0.00    +0.000 C 
ATOM      5  C   UNL     1     -10.990   8.391 127.616  0.00  0.00    +0.000 C 
ATOM      6  C   UNL     1     -10.351   7.086 127.967  0.00  0.00    +0.000 C 
ATOM      7  O   UNL     1      -9.786   6.359 127.177  0.00  0.00    +0.000 OA
ENDBRANCH   1   2
BRANCH   1   8
ATOM      8  C   UNL     1     -10.508   4.677 130.653  0.00  0.00    +0.000 C 
ATOM      9  N   UNL     1     -10.174   4.161 131.867  0.00  0.00    +0.000 N 
ATOM     10  O   UNL     1     -11.403   4.127 130.011  0.00  0.00    +0.000 OA
ATOM     11  H   UNL     1      -9.298   4.376 132.305  0.00  0.00    +0.000 HD
ATOM     12  H   UNL     1     -10.626   3.300 132.148  0.00  0.00    +0.000 HD
ENDBRANCH   1   8
BRANCH   1  14
ATOM     13  C   UNL     1      -7.506   6.844 131.088  0.00  0.00    +0.000 C 
ATOM     14  C   UNL     1      -8.987   6.535 131.351  0.00  0.00    +0.000 C 
ENDBRANCH   1  14
TORSDOF 3
ENDMDL
MODEL 3
REMARK VINA RESULT:      -5.4      1.786      3.667
REMARK  Name = Levetiracetam
REMARK  4 active torsions:
REMARK  status: ('A' for Active; 'I' for Inactive)
REMARK    1  A    between atoms: C_1  and  C_2
REMARK    2  A    between atoms: C_2  and  C_3
REMARK    3  A    between atoms: C_3  and  N_4
REMARK    4  A    between atoms: C_3  and  C_10
REMARK                            x       y       z     vdW  Elec       q    Type
REMARK                         _______ _______ _______ _____ _____    ______ ____
ROOT
ATOM      1  C   UNL     1     -12.029   8.274 129.974  0.00  0.00    +0.000 C 
ENDROOT
BRANCH   1   2
ATOM      2  N   UNL     1     -12.002   7.944 128.527  0.00  0.00    +0.000 N 
ATOM      3  C   UNL     1     -13.148   7.637 127.690  0.00  0.00    +0.000 C 
ATOM      4  C   UNL     1     -12.544   6.987 126.454  0.00  0.00    +0.000 C 
ATOM      5  C   UNL     1     -11.153   7.584 126.404  0.00  0.00    +0.000 C 
ATOM      6  C   UNL     1     -10.827   7.561 127.863  0.00  0.00    +0.000 C 
ATOM      7  O   UNL     1      -9.726   7.341 128.321  0.00  0.00    +0.000 OA
ENDBRANCH   1   2
BRANCH   1   8
ATOM      8  C   UNL     1     -11.959   7.127 131.027  0.00  0.00    +0.000 C 
ATOM      9  N   UNL     1     -10.775   6.482 131.215  0.00  0.00    +0.000 N 
ATOM     10  O   UNL     1     -12.932   6.767 131.690  0.00  0.00    +0.000 OA
ATOM     11  H   UNL     1     -10.040   6.529 130.536  0.00  0.00    +0.000 HD
ATOM     12  H   UNL     1     -10.775   5.683 131.836  0.00  0.00    +0.000 HD
ENDBRANCH   1   8
BRANCH   1  14
ATOM     13  C   UNL     1     -13.216  10.573 129.785  0.00  0.00    +0.000 C 
ATOM     14  C   UNL     1     -13.273   9.139 130.334  0.00  0.00    +0.000 C 
ENDBRANCH   1  14
TORSDOF 3
ENDMDL
MODEL 4
REMARK VINA RESULT:      -5.3      1.941      2.674
REMARK  Name = Levetiracetam
REMARK  4 active torsions:
REMARK  status: ('A' for Active; 'I' for Inactive)
REMARK    1  A    between atoms: C_1  and  C_2
REMARK    2  A    between atoms: C_2  and  C_3
REMARK    3  A    between atoms: C_3  and  N_4
REMARK    4  A    between atoms: C_3  and  C_10
REMARK                            x       y       z     vdW  Elec       q    Type
REMARK                         _______ _______ _______ _____ _____    ______ ____
ROOT
ATOM      1  C   UNL     1     -12.316   7.655 128.799  0.00  0.00    +0.000 C 
ENDROOT
BRANCH   1   2
ATOM      2  N   UNL     1     -11.523   7.033 129.890  0.00  0.00    +0.000 N 
ATOM      3  C   UNL     1     -12.045   6.448 131.112  0.00  0.00    +0.000 C 
ATOM      4  C   UNL     1     -10.832   6.349 132.025  0.00  0.00    +0.000 C 
ATOM      5  C   UNL     1      -9.681   6.246 131.049  0.00  0.00    +0.000 C 
ATOM      6  C   UNL     1     -10.141   7.234 130.026  0.00  0.00    +0.000 C 
ATOM      7  O   UNL     1      -9.410   7.972 129.400  0.00  0.00    +0.000 OA
ENDBRANCH   1   2
BRANCH   1   8
ATOM      8  C   UNL     1     -11.957   7.349 127.314  0.00  0.00    +0.000 C 
ATOM      9  N   UNL     1     -10.909   8.006 126.746  0.00  0.00    +0.000 N 
ATOM     10  O   UNL     1     -12.588   6.548 126.625  0.00  0.00    +0.000 OA
ATOM     11  H   UNL     1     -10.539   8.847 127.144  0.00  0.00    +0.000 HD
ATOM     12  H   UNL     1     -10.749   7.859 125.757  0.00  0.00    +0.000 HD
ENDBRANCH   1   8
BRANCH   1  14
ATOM     13  C   UNL     1     -13.152   9.701 130.157  0.00  0.00    +0.000 C 
ATOM     14  C   UNL     1     -12.354   9.205 128.942  0.00  0.00    +0.000 C 
ENDBRANCH   1  14
TORSDOF 3
ENDMDL
MODEL 5
REMARK VINA RESULT:      -5.2      2.566      5.093
REMARK  Name = Levetiracetam
REMARK  4 active torsions:
REMARK  status: ('A' for Active; 'I' for Inactive)
REMARK    1  A    between atoms: C_1  and  C_2
REMARK    2  A    between atoms: C_2  and  C_3
REMARK    3  A    between atoms: C_3  and  N_4
REMARK    4  A    between atoms: C_3  and  C_10
REMARK                            x       y       z     vdW  Elec       q    Type
REMARK                         _______ _______ _______ _____ _____    ______ ____
ROOT
ATOM      1  C   UNL     1      -9.837   5.850 130.356  0.00  0.00    +0.000 C 
ENDROOT
BRANCH   1   2
ATOM      2  N   UNL     1     -10.932   6.763 129.942  0.00  0.00    +0.000 N 
ATOM      3  C   UNL     1     -10.840   7.833 128.965  0.00  0.00    +0.000 C 
ATOM      4  C   UNL     1     -12.074   8.684 129.228  0.00  0.00    +0.000 C 
ATOM      5  C   UNL     1     -13.048   7.692 129.826  0.00  0.00    +0.000 C 
ATOM      6  C   UNL     1     -12.107   6.920 130.693  0.00  0.00    +0.000 C 
ATOM      7  O   UNL     1     -12.387   6.463 131.781  0.00  0.00    +0.000 OA
ENDBRANCH   1   2
BRANCH   1   8
ATOM      8  C   UNL     1     -10.172   4.388 130.781  0.00  0.00    +0.000 C 
ATOM      9  N   UNL     1     -10.137   4.067 132.104  0.00  0.00    +0.000 N 
ATOM     10  O   UNL     1     -10.455   3.505 129.972  0.00  0.00    +0.000 OA
ATOM     11  H   UNL     1      -9.658   4.641 132.770  0.00  0.00    +0.000 HD
ATOM     12  H   UNL     1     -10.269   3.094 132.349  0.00  0.00    +0.000 HD
ENDBRANCH   1   8
BRANCH   1  14
ATOM     13  C   UNL     1      -7.555   6.837 131.097  0.00  0.00    +0.000 C 
ATOM     14  C   UNL     1      -8.989   6.469 131.507  0.00  0.00    +0.000 C 
ENDBRANCH   1  14
TORSDOF 3
ENDMDL
MODEL 6
REMARK VINA RESULT:      -5.1      2.645      3.518
REMARK  Name = Levetiracetam
REMARK  4 active torsions:
REMARK  status: ('A' for Active; 'I' for Inactive)
REMARK    1  A    between atoms: C_1  and  C_2
REMARK    2  A    between atoms: C_2  and  C_3
REMARK    3  A    between atoms: C_3  and  N_4
REMARK    4  A    between atoms: C_3  and  C_10
REMARK                            x       y       z     vdW  Elec       q    Type
REMARK                         _______ _______ _______ _____ _____    ______ ____
ROOT
ATOM      1  C   UNL     1     -11.270   6.753 129.346  0.00  0.00    +0.000 C 
ENDROOT
BRANCH   1   2
ATOM      2  N   UNL     1     -10.393   6.140 130.375  0.00  0.00    +0.000 N 
ATOM      3  C   UNL     1      -9.206   6.735 130.963  0.00  0.00    +0.000 C 
ATOM      4  C   UNL     1      -8.485   5.562 131.613  0.00  0.00    +0.000 C 
ATOM      5  C   UNL     1      -9.611   4.596 131.911  0.00  0.00    +0.000 C 
ATOM      6  C   UNL     1     -10.415   4.767 130.663  0.00  0.00    +0.000 C 
ATOM      7  O   UNL     1     -11.023   3.877 130.106  0.00  0.00    +0.000 OA
ENDBRANCH   1   2
BRANCH   1   8
ATOM      8  C   UNL     1     -10.641   7.337 128.045  0.00  0.00    +0.000 C 
ATOM      9  N   UNL     1     -10.846   8.650 127.752  0.00  0.00    +0.000 N 
ATOM     10  O   UNL     1      -9.976   6.660 127.262  0.00  0.00    +0.000 OA
ATOM     11  H   UNL     1     -11.585   9.174 128.181  0.00  0.00    +0.000 HD
ATOM     12  H   UNL     1     -10.506   8.986 126.860  0.00  0.00    +0.000 HD
ENDBRANCH   1   8
BRANCH   1  14
ATOM     13  C   UNL     1     -12.862   7.473 131.263  0.00  0.00    +0.000 C 
ATOM     14  C   UNL     1     -12.160   7.875 129.958  0.00  0.00    +0.000 C 
ENDBRANCH   1  14
TORSDOF 3
ENDMDL
MODEL 7
REMARK VINA RESULT:      -5.0      2.236      4.704
REMARK  Name = Levetiracetam
REMARK  4 active torsions:
REMARK  status: ('A' for Active; 'I' for Inactive)
REMARK    1  A    between atoms: C_1  and  C_2
REMARK    2  A    between atoms: C_2  and  C_3
REMARK    3  A    between atoms: C_3  and  N_4
REMARK    4  A    between atoms: C_3  and  C_10
REMARK                            x       y       z     vdW  Elec       q    Type
REMARK                         _______ _______ _______ _____ _____    ______ ____
ROOT
ATOM      1  C   UNL     1     -10.796   5.547 130.833  0.00  0.00    +0.000 C 
ENDROOT
BRANCH   1   2
ATOM      2  N   UNL     1     -11.470   6.562 129.985  0.00  0.00    +0.000 N 
ATOM      3  C   UNL     1     -10.904   7.236 128.830  0.00  0.00    +0.000 C 
ATOM      4  C   UNL     1     -11.824   8.428 128.606  0.00  0.00    +0.000 C 
ATOM      5  C   UNL     1     -13.138   7.954 129.187  0.00  0.00    +0.000 C 
ATOM      6  C   UNL     1     -12.626   7.241 130.397  0.00  0.00    +0.000 C 
ATOM      7  O   UNL     1     -13.189   7.213 131.472  0.00  0.00    +0.000 OA
ENDBRANCH   1   2
BRANCH   1   8
ATOM      8  C   UNL     1      -9.882   6.008 132.008  0.00  0.00    +0.000 C 
ATOM      9  N   UNL     1     -10.094   5.486 133.247  0.00  0.00    +0.000 N 
ATOM     10  O   UNL     1      -8.982   6.837 131.869  0.00  0.00    +0.000 OA
ATOM     11  H   UNL     1     -10.957   5.036 133.485  0.00  0.00    +0.000 HD
ATOM     12  H   UNL     1      -9.550   5.865 134.011  0.00  0.00    +0.000 HD
ENDBRANCH   1   8
BRANCH   1  14
ATOM     13  C   UNL     1      -9.931   3.122 130.516  0.00  0.00    +0.000 C 
ATOM     14  C   UNL     1      -9.956   4.558 129.972  0.00  0.00    +0.000 C 
ENDBRANCH   1  14
TORSDOF 3
ENDMDL
MODEL 8
REMARK VINA RESULT:      -4.9     10.142     11.788
REMARK  Name = Levetiracetam
REMARK  4 active torsions:
REMARK  status: ('A' for Active; 'I' for Inactive)
REMARK    1  A    between atoms: C_1  and  C_2
REMARK    2  A    between atoms: C_2  and  C_3
REMARK    3  A    between atoms: C_3  and  N_4
REMARK    4  A    between atoms: C_3  and  C_10
REMARK                            x       y       z     vdW  Elec       q    Type
REMARK                         _______ _______ _______ _____ _____    ______ ____
ROOT
ATOM      1  C   UNL     1      -8.489  -1.591 123.351  0.00  0.00    +0.000 C 
ENDROOT
BRANCH   1   2
ATOM      2  N   UNL     1      -8.653  -0.131 123.568  0.00  0.00    +0.000 N 
ATOM      3  C   UNL     1      -8.007   0.666 124.596  0.00  0.00    +0.000 C 
ATOM      4  C   UNL     1      -8.818   1.954 124.632  0.00  0.00    +0.000 C 
ATOM      5  C   UNL     1      -9.379   2.040 123.229  0.00  0.00    +0.000 C 
ATOM      6  C   UNL     1      -9.714   0.599 123.013  0.00  0.00    +0.000 C 
ATOM      7  O   UNL     1     -10.676   0.199 122.391  0.00  0.00    +0.000 OA
ENDBRANCH   1   2
BRANCH   1   8
ATOM      8  C   UNL     1      -9.422  -2.591 124.099  0.00  0.00    +0.000 C 
ATOM      9  N   UNL     1      -9.974  -3.619 123.399  0.00  0.00    +0.000 N 
ATOM     10  O   UNL     1      -9.694  -2.484 125.295  0.00  0.00    +0.000 OA
ATOM     11  H   UNL     1     -10.022  -3.606 122.398  0.00  0.00    +0.000 HD
ATOM     12  H   UNL     1     -10.646  -4.202 123.882  0.00  0.00    +0.000 HD
ENDBRANCH   1   8
BRANCH   1  14
ATOM     13  C   UNL     1      -6.097  -1.949 122.414  0.00  0.00    +0.000 C 
ATOM     14  C   UNL     1      -7.026  -2.044 123.634  0.00  0.00    +0.000 C 
ENDBRANCH   1  14
TORSDOF 3
ENDMDL
MODEL 9
REMARK VINA RESULT:      -4.7      9.943     11.253
REMARK  Name = Levetiracetam
REMARK  4 active torsions:
REMARK  status: ('A' for Active; 'I' for Inactive)
REMARK    1  A    between atoms: C_1  and  C_2
REMARK    2  A    between atoms: C_2  and  C_3
REMARK    3  A    between atoms: C_3  and  N_4
REMARK    4  A    between atoms: C_3  and  C_10
REMARK                            x       y       z     vdW  Elec       q    Type
REMARK                         _______ _______ _______ _____ _____    ______ ____
ROOT
ATOM      1  C   UNL     1      -9.203   0.146 124.319  0.00  0.00    +0.000 C 
ENDROOT
BRANCH   1   2
ATOM      2  N   UNL     1      -8.239  -0.966 124.121  0.00  0.00    +0.000 N 
ATOM      3  C   UNL     1      -6.825  -0.838 123.818  0.00  0.00    +0.000 C 
ATOM      4  C   UNL     1      -6.425  -2.219 123.319  0.00  0.00    +0.000 C 
ATOM      5  C   UNL     1      -7.424  -3.128 124.002  0.00  0.00    +0.000 C 
ATOM      6  C   UNL     1      -8.650  -2.284 123.871  0.00  0.00    +0.000 C 
ATOM      7  O   UNL     1      -9.768  -2.714 123.679  0.00  0.00    +0.000 OA
ENDBRANCH   1   2
BRANCH   1   8
ATOM      8  C   UNL     1      -9.841   0.843 123.079  0.00  0.00    +0.000 C 
ATOM      9  N   UNL     1      -9.330   2.035 122.664  0.00  0.00    +0.000 N 
ATOM     10  O   UNL     1     -10.797   0.371 122.465  0.00  0.00    +0.000 OA
ATOM     11  H   UNL     1      -8.756   2.596 123.264  0.00  0.00    +0.000 HD
ATOM     12  H   UNL     1      -9.814   2.513 121.916  0.00  0.00    +0.000 HD
ENDBRANCH   1   8
BRANCH   1  14
ATOM     13  C   UNL     1      -8.834   1.084 126.709  0.00  0.00    +0.000 C 
ATOM     14  C   UNL     1      -8.592   1.272 125.204  0.00  0.00    +0.000 C 
ENDBRANCH   1  14
TORSDOF 3
ENDMDL
