MODEL 1
REMARK VINA RESULT:      -5.6      0.000      0.000
REMARK  Name = Levmetamfetamine
REMARK  5 active torsions:
REMARK  status: ('A' for Active; 'I' for Inactive)
REMARK    1  A    between atoms: C_1  and  N_2
REMARK    2  A    between atoms: N_2  and  C_3
REMARK    3  A    between atoms: C_3  and  C_4
REMARK    4  A    between atoms: C_3  and  C_5
REMARK    5  A    between atoms: C_5  and  C_6
REMARK                            x       y       z     vdW  Elec       q    Type
REMARK                         _______ _______ _______ _____ _____    ______ ____
ROOT
ATOM      1  C   UNL     1     -12.144   6.978 131.483  0.00  0.00    +0.000 C 
ENDROOT
BRANCH   1   2
ATOM      2  C   UNL     1     -12.522   7.450 130.095  0.00  0.00    +0.000 A 
ATOM      3  C   UNL     1     -12.633   8.824 129.829  0.00  0.00    +0.000 A 
ATOM      4  C   UNL     1     -13.278   9.257 128.670  0.00  0.00    +0.000 A 
ATOM      5  C   UNL     1     -13.736   8.332 127.738  0.00  0.00    +0.000 A 
ATOM      6  C   UNL     1     -13.556   6.966 127.957  0.00  0.00    +0.000 A 
ATOM      7  C   UNL     1     -12.954   6.527 129.136  0.00  0.00    +0.000 A 
ENDBRANCH   1   2
BRANCH   1   8
ATOM      8  C   UNL     1     -10.840   6.130 131.443  0.00  0.00    +0.000 C 
ATOM      9  C   UNL     1      -9.729   6.889 130.716  0.00  0.00    +0.000 C 
BRANCH   8  11
ATOM     10  C   UNL     1      -9.020   5.769 133.090  0.00  0.00    +0.000 C 
ATOM     11  N   UNL     1     -10.425   5.614 132.764  0.00  0.00    +0.000 NA
ATOM     12  H   UNL     1     -10.994   6.052 133.491  0.00  0.00    +0.000 HD
ENDBRANCH   8  11
ENDBRANCH   1   8
TORSDOF 3
ENDMDL
MODEL 2
REMARK VINA RESULT:      -5.6      2.214      4.816
REMARK  Name = Levmetamfetamine
REMARK  5 active torsions:
REMARK  status: ('A' for Active; 'I' for Inactive)
REMARK    1  A    between atoms: C_1  and  N_2
REMARK    2  A    between atoms: N_2  and  C_3
REMARK    3  A    between atoms: C_3  and  C_4
REMARK    4  A    between atoms: C_3  and  C_5
REMARK    5  A    between atoms: C_5  and  C_6
REMARK                            x       y       z     vdW  Elec       q    Type
REMARK                         _______ _______ _______ _____ _____    ______ ____
ROOT
ATOM      1  C   UNL     1     -12.857   7.929 130.263  0.00  0.00    +0.000 C 
ENDROOT
BRANCH   1   2
ATOM      2  C   UNL     1     -11.559   7.228 130.604  0.00  0.00    +0.000 A 
ATOM      3  C   UNL     1     -11.463   6.462 131.775  0.00  0.00    +0.000 A 
ATOM      4  C   UNL     1     -10.210   6.082 132.257  0.00  0.00    +0.000 A 
ATOM      5  C   UNL     1      -9.062   6.390 131.536  0.00  0.00    +0.000 A 
ATOM      6  C   UNL     1      -9.155   7.081 130.327  0.00  0.00    +0.000 A 
ATOM      7  C   UNL     1     -10.402   7.503 129.866  0.00  0.00    +0.000 A 
ENDBRANCH   1   2
BRANCH   1   8
ATOM      8  C   UNL     1     -12.817   8.495 128.814  0.00  0.00    +0.000 C 
ATOM      9  C   UNL     1     -13.641   7.615 127.873  0.00  0.00    +0.000 C 
BRANCH   8  11
ATOM     10  C   UNL     1     -13.392  10.605 129.988  0.00  0.00    +0.000 C 
ATOM     11  N   UNL     1     -13.164   9.929 128.724  0.00  0.00    +0.000 NA
ATOM     12  H   UNL     1     -12.437  10.419 128.201  0.00  0.00    +0.000 HD
ENDBRANCH   8  11
ENDBRANCH   1   8
TORSDOF 3
ENDMDL
MODEL 3
REMARK VINA RESULT:      -5.4      1.107      1.963
REMARK  Name = Levmetamfetamine
REMARK  5 active torsions:
REMARK  status: ('A' for Active; 'I' for Inactive)
REMARK    1  A    between atoms: C_1  and  N_2
REMARK    2  A    between atoms: N_2  and  C_3
REMARK    3  A    between atoms: C_3  and  C_4
REMARK    4  A    between atoms: C_3  and  C_5
REMARK    5  A    between atoms: C_5  and  C_6
REMARK                            x       y       z     vdW  Elec       q    Type
REMARK                         _______ _______ _______ _____ _____    ______ ____
ROOT
ATOM      1  C   UNL     1     -12.014   6.675 131.395  0.00  0.00    +0.000 C 
ENDROOT
BRANCH   1   2
ATOM      2  C   UNL     1     -12.717   7.486 130.327  0.00  0.00    +0.000 A 
ATOM      3  C   UNL     1     -13.176   6.857 129.159  0.00  0.00    +0.000 A 
ATOM      4  C   UNL     1     -13.529   7.626 128.049  0.00  0.00    +0.000 A 
ATOM      5  C   UNL     1     -13.508   9.014 128.125  0.00  0.00    +0.000 A 
ATOM      6  C   UNL     1     -13.131   9.647 129.310  0.00  0.00    +0.000 A 
ATOM      7  C   UNL     1     -12.732   8.883 130.407  0.00  0.00    +0.000 A 
ENDBRANCH   1   2
BRANCH   1   8
ATOM      8  C   UNL     1     -10.801   5.906 130.798  0.00  0.00    +0.000 C 
ATOM      9  C   UNL     1      -9.566   6.808 130.749  0.00  0.00    +0.000 C 
BRANCH   8  11
ATOM     10  C   UNL     1     -10.550   3.448 130.568  0.00  0.00    +0.000 C 
ATOM     11  N   UNL     1     -10.544   4.603 131.446  0.00  0.00    +0.000 NA
ATOM     12  H   UNL     1      -9.655   4.646 131.947  0.00  0.00    +0.000 HD
ENDBRANCH   8  11
ENDBRANCH   1   8
TORSDOF 3
ENDMDL
MODEL 4
REMARK VINA RESULT:      -5.2      2.112      4.936
REMARK  Name = Levmetamfetamine
REMARK  5 active torsions:
REMARK  status: ('A' for Active; 'I' for Inactive)
REMARK    1  A    between atoms: C_1  and  N_2
REMARK    2  A    between atoms: N_2  and  C_3
REMARK    3  A    between atoms: C_3  and  C_4
REMARK    4  A    between atoms: C_3  and  C_5
REMARK    5  A    between atoms: C_5  and  C_6
REMARK                            x       y       z     vdW  Elec       q    Type
REMARK                         _______ _______ _______ _____ _____    ______ ____
ROOT
ATOM      1  C   UNL     1     -11.839   7.894 129.559  0.00  0.00    +0.000 C 
ENDROOT
BRANCH   1   2
ATOM      2  C   UNL     1     -10.811   7.127 130.364  0.00  0.00    +0.000 A 
ATOM      3  C   UNL     1     -11.204   6.419 131.510  0.00  0.00    +0.000 A 
ATOM      4  C   UNL     1     -10.242   5.984 132.422  0.00  0.00    +0.000 A 
ATOM      5  C   UNL     1      -8.891   6.175 132.157  0.00  0.00    +0.000 A 
ATOM      6  C   UNL     1      -8.488   6.806 130.979  0.00  0.00    +0.000 A 
ATOM      7  C   UNL     1      -9.448   7.284 130.087  0.00  0.00    +0.000 A 
ENDBRANCH   1   2
BRANCH   1   8
ATOM      8  C   UNL     1     -12.442   7.001 128.437  0.00  0.00    +0.000 C 
ATOM      9  C   UNL     1     -13.759   7.592 127.931  0.00  0.00    +0.000 C 
BRANCH   8  11
ATOM     10  C   UNL     1     -11.039   7.812 126.558  0.00  0.00    +0.000 C 
ATOM     11  N   UNL     1     -11.491   6.684 127.351  0.00  0.00    +0.000 NA
ATOM     12  H   UNL     1     -10.683   6.198 127.744  0.00  0.00    +0.000 HD
ENDBRANCH   8  11
ENDBRANCH   1   8
TORSDOF 3
ENDMDL
MODEL 5
REMARK VINA RESULT:      -5.2      9.511     10.433
REMARK  Name = Levmetamfetamine
REMARK  5 active torsions:
REMARK  status: ('A' for Active; 'I' for Inactive)
REMARK    1  A    between atoms: C_1  and  N_2
REMARK    2  A    between atoms: N_2  and  C_3
REMARK    3  A    between atoms: C_3  and  C_4
REMARK    4  A    between atoms: C_3  and  C_5
REMARK    5  A    between atoms: C_5  and  C_6
REMARK                            x       y       z     vdW  Elec       q    Type
REMARK                         _______ _______ _______ _____ _____    ______ ____
ROOT
ATOM      1  C   UNL     1      -7.219   2.504 123.049  0.00  0.00    +0.000 C 
ENDROOT
BRANCH   1   2
ATOM      2  C   UNL     1      -6.670   3.510 122.059  0.00  0.00    +0.000 A 
ATOM      3  C   UNL     1      -7.292   3.676 120.812  0.00  0.00    +0.000 A 
ATOM      4  C   UNL     1      -6.626   4.350 119.788  0.00  0.00    +0.000 A 
ATOM      5  C   UNL     1      -5.384   4.929 120.025  0.00  0.00    +0.000 A 
ATOM      6  C   UNL     1      -4.796   4.838 121.287  0.00  0.00    +0.000 A 
ATOM      7  C   UNL     1      -5.437   4.125 122.300  0.00  0.00    +0.000 A 
ENDBRANCH   1   2
BRANCH   1   8
ATOM      8  C   UNL     1      -8.728   2.765 123.326  0.00  0.00    +0.000 C 
ATOM      9  C   UNL     1      -9.566   1.557 122.906  0.00  0.00    +0.000 C 
BRANCH   8  11
ATOM     10  C   UNL     1      -8.021   4.100 125.295  0.00  0.00    +0.000 C 
ATOM     11  N   UNL     1      -9.011   3.220 124.703  0.00  0.00    +0.000 NA
ATOM     12  H   UNL     1      -9.927   3.672 124.726  0.00  0.00    +0.000 HD
ENDBRANCH   8  11
ENDBRANCH   1   8
TORSDOF 3
ENDMDL
MODEL 6
REMARK VINA RESULT:      -5.1      8.915      9.739
REMARK  Name = Levmetamfetamine
REMARK  5 active torsions:
REMARK  status: ('A' for Active; 'I' for Inactive)
REMARK    1  A    between atoms: C_1  and  N_2
REMARK    2  A    between atoms: N_2  and  C_3
REMARK    3  A    between atoms: C_3  and  C_4
REMARK    4  A    between atoms: C_3  and  C_5
REMARK    5  A    between atoms: C_5  and  C_6
REMARK                            x       y       z     vdW  Elec       q    Type
REMARK                         _______ _______ _______ _____ _____    ______ ____
ROOT
ATOM      1  C   UNL     1      -7.437   2.577 123.789  0.00  0.00    +0.000 C 
ENDROOT
BRANCH   1   2
ATOM      2  C   UNL     1      -7.391   2.957 122.323  0.00  0.00    +0.000 A 
ATOM      3  C   UNL     1      -6.155   3.179 121.696  0.00  0.00    +0.000 A 
ATOM      4  C   UNL     1      -6.109   3.828 120.462  0.00  0.00    +0.000 A 
ATOM      5  C   UNL     1      -7.288   4.179 119.813  0.00  0.00    +0.000 A 
ATOM      6  C   UNL     1      -8.523   3.888 120.393  0.00  0.00    +0.000 A 
ATOM      7  C   UNL     1      -8.573   3.282 121.648  0.00  0.00    +0.000 A 
ENDBRANCH   1   2
BRANCH   1   8
ATOM      8  C   UNL     1      -8.860   2.805 124.375  0.00  0.00    +0.000 C 
ATOM      9  C   UNL     1      -9.445   1.489 124.889  0.00  0.00    +0.000 C 
BRANCH   8  11
ATOM     10  C   UNL     1      -7.714   4.675 125.536  0.00  0.00    +0.000 C 
ATOM     11  N   UNL     1      -8.928   3.899 125.366  0.00  0.00    +0.000 NA
ATOM     12  H   UNL     1      -9.701   4.522 125.127  0.00  0.00    +0.000 HD
ENDBRANCH   8  11
ENDBRANCH   1   8
TORSDOF 3
ENDMDL
MODEL 7
REMARK VINA RESULT:      -4.9     10.770     12.123
REMARK  Name = Levmetamfetamine
REMARK  5 active torsions:
REMARK  status: ('A' for Active; 'I' for Inactive)
REMARK    1  A    between atoms: C_1  and  N_2
REMARK    2  A    between atoms: N_2  and  C_3
REMARK    3  A    between atoms: C_3  and  C_4
REMARK    4  A    between atoms: C_3  and  C_5
REMARK    5  A    between atoms: C_5  and  C_6
REMARK                            x       y       z     vdW  Elec       q    Type
REMARK                         _______ _______ _______ _____ _____    ______ ____
ROOT
ATOM      1  C   UNL     1      -8.879  -1.711 125.226  0.00  0.00    +0.000 C 
ENDROOT
BRANCH   1   2
ATOM      2  C   UNL     1      -8.487  -2.317 126.557  0.00  0.00    +0.000 A 
ATOM      3  C   UNL     1      -8.990  -3.573 126.930  0.00  0.00    +0.000 A 
ATOM      4  C   UNL     1      -8.898  -3.992 128.258  0.00  0.00    +0.000 A 
ATOM      5  C   UNL     1      -8.236  -3.205 129.194  0.00  0.00    +0.000 A 
ATOM      6  C   UNL     1      -7.662  -1.992 128.813  0.00  0.00    +0.000 A 
ATOM      7  C   UNL     1      -7.791  -1.548 127.497  0.00  0.00    +0.000 A 
ENDBRANCH   1   2
BRANCH   1   8
ATOM      8  C   UNL     1      -8.381  -2.596 124.046  0.00  0.00    +0.000 C 
ATOM      9  C   UNL     1      -9.563  -3.271 123.348  0.00  0.00    +0.000 C 
BRANCH   8  11
ATOM     10  C   UNL     1      -6.064  -2.182 123.262  0.00  0.00    +0.000 C 
ATOM     11  N   UNL     1      -7.478  -1.892 123.113  0.00  0.00    +0.000 NA
ATOM     12  H   UNL     1      -7.767  -2.088 122.153  0.00  0.00    +0.000 HD
ENDBRANCH   8  11
ENDBRANCH   1   8
TORSDOF 3
ENDMDL
MODEL 8
REMARK VINA RESULT:      -4.9     11.519     12.529
REMARK  Name = Levmetamfetamine
REMARK  5 active torsions:
REMARK  status: ('A' for Active; 'I' for Inactive)
REMARK    1  A    between atoms: C_1  and  N_2
REMARK    2  A    between atoms: N_2  and  C_3
REMARK    3  A    between atoms: C_3  and  C_4
REMARK    4  A    between atoms: C_3  and  C_5
REMARK    5  A    between atoms: C_5  and  C_6
REMARK                            x       y       z     vdW  Elec       q    Type
REMARK                         _______ _______ _______ _____ _____    ______ ____
ROOT
ATOM      1  C   UNL     1      -9.324  -3.218 124.510  0.00  0.00    +0.000 C 
ENDROOT
BRANCH   1   2
ATOM      2  C   UNL     1      -7.952  -3.113 123.879  0.00  0.00    +0.000 A 
ATOM      3  C   UNL     1      -6.887  -3.873 124.387  0.00  0.00    +0.000 A 
ATOM      4  C   UNL     1      -5.575  -3.556 124.032  0.00  0.00    +0.000 A 
ATOM      5  C   UNL     1      -5.326  -2.543 123.113  0.00  0.00    +0.000 A 
ATOM      6  C   UNL     1      -6.385  -1.836 122.541  0.00  0.00    +0.000 A 
ATOM      7  C   UNL     1      -7.695  -2.119 122.928  0.00  0.00    +0.000 A 
ENDBRANCH   1   2
BRANCH   1   8
ATOM      8  C   UNL     1      -9.346  -2.529 125.905  0.00  0.00    +0.000 C 
ATOM      9  C   UNL     1      -8.996  -3.533 127.004  0.00  0.00    +0.000 C 
BRANCH   8  11
ATOM     10  C   UNL     1      -9.257  -0.057 125.698  0.00  0.00    +0.000 C 
ATOM     11  N   UNL     1      -8.542  -1.291 125.970  0.00  0.00    +0.000 NA
ATOM     12  H   UNL     1      -8.093  -1.229 126.885  0.00  0.00    +0.000 HD
ENDBRANCH   8  11
ENDBRANCH   1   8
TORSDOF 3
ENDMDL
MODEL 9
REMARK VINA RESULT:      -4.8      2.080      5.223
REMARK  Name = Levmetamfetamine
REMARK  5 active torsions:
REMARK  status: ('A' for Active; 'I' for Inactive)
REMARK    1  A    between atoms: C_1  and  N_2
REMARK    2  A    between atoms: N_2  and  C_3
REMARK    3  A    between atoms: C_3  and  C_4
REMARK    4  A    between atoms: C_3  and  C_5
REMARK    5  A    between atoms: C_5  and  C_6
REMARK                            x       y       z     vdW  Elec       q    Type
REMARK                         _______ _______ _______ _____ _____    ______ ____
ROOT
ATOM      1  C   UNL     1     -11.098   6.658 130.021  0.00  0.00    +0.000 C 
ENDROOT
BRANCH   1   2
ATOM      2  C   UNL     1      -9.934   6.626 130.988  0.00  0.00    +0.000 A 
ATOM      3  C   UNL     1      -8.655   7.011 130.558  0.00  0.00    +0.000 A 
ATOM      4  C   UNL     1      -7.537   6.689 131.327  0.00  0.00    +0.000 A 
ATOM      5  C   UNL     1      -7.693   6.061 132.558  0.00  0.00    +0.000 A 
ATOM      6  C   UNL     1      -8.968   5.747 133.030  0.00  0.00    +0.000 A 
ATOM      7  C   UNL     1     -10.085   6.026 132.243  0.00  0.00    +0.000 A 
ENDBRANCH   1   2
BRANCH   1   8
ATOM      8  C   UNL     1     -11.338   8.102 129.491  0.00  0.00    +0.000 C 
ATOM      9  C   UNL     1     -11.041   8.179 127.993  0.00  0.00    +0.000 C 
BRANCH   8  11
ATOM     10  C   UNL     1     -13.160   9.710 128.989  0.00  0.00    +0.000 C 
ATOM     11  N   UNL     1     -12.659   8.657 129.852  0.00  0.00    +0.000 NA
ATOM     12  H   UNL     1     -13.342   7.898 129.896  0.00  0.00    +0.000 HD
ENDBRANCH   8  11
ENDBRANCH   1   8
TORSDOF 3
ENDMDL
