MODEL 1
REMARK VINA RESULT:      -6.7      0.000      0.000
REMARK  Name = Levosimendan
REMARK  6 active torsions:
REMARK  status: ('A' for Active; 'I' for Inactive)
REMARK    1  A    between atoms: C_1  and  C_2
REMARK    2  A    between atoms: C_8  and  C_9
REMARK    3  A    between atoms: C_12  and  N_13
REMARK    4  A    between atoms: N_13  and  N_14
REMARK    5  A    between atoms: C_15  and  C_16
REMARK    6  A    between atoms: C_15  and  C_18
REMARK                            x       y       z     vdW  Elec       q    Type
REMARK                         _______ _______ _______ _____ _____    ______ ____
ROOT
ATOM      1  C   UNL     1      -7.410  -2.901 128.807  0.00  0.00    +0.000 A 
ATOM      2  C   UNL     1      -8.587  -3.584 128.501  0.00  0.00    +0.000 A 
ATOM      3  C   UNL     1      -8.971  -3.745 127.154  0.00  0.00    +0.000 A 
ATOM      4  C   UNL     1      -8.252  -3.145 126.103  0.00  0.00    +0.000 A 
ATOM      5  C   UNL     1      -7.076  -2.471 126.433  0.00  0.00    +0.000 A 
ATOM      6  C   UNL     1      -6.658  -2.359 127.765  0.00  0.00    +0.000 A 
ENDROOT
BRANCH   1  14
ATOM      7  C   UNL     1      -5.589  -4.949 130.763  0.00  0.00    +0.000 C 
ATOM      8  C   UNL     1      -5.524  -3.445 130.501  0.00  0.00    +0.000 C 
ATOM      9  C   UNL     1      -4.917  -2.740 131.709  0.00  0.00    +0.000 C 
ATOM     10  C   UNL     1      -5.916  -2.597 132.824  0.00  0.00    +0.000 C 
ATOM     11  O   UNL     1      -5.589  -2.599 134.008  0.00  0.00    +0.000 OA
ATOM     12  N   UNL     1      -7.210  -2.376 132.426  0.00  0.00    +0.000 N 
ATOM     13  N   UNL     1      -7.670  -2.376 131.141  0.00  0.00    +0.000 NA
ATOM     14  C   UNL     1      -6.900  -2.862 130.212  0.00  0.00    +0.000 C 
ATOM     15  H   UNL     1      -7.888  -2.174 133.155  0.00  0.00    +0.000 HD
ENDBRANCH   1  14
BRANCH   4  16
ATOM     16  N   UNL     1      -8.700  -3.267 124.770  0.00  0.00    +0.000 N 
ATOM     17  H   UNL     1      -8.619  -4.206 124.378  0.00  0.00    +0.000 HD
BRANCH  16  18
ATOM     18  N   UNL     1      -9.456  -2.271 124.200  0.00  0.00    +0.000 NA
ATOM     19  C   UNL     1      -8.939  -1.501 123.284  0.00  0.00    +0.000 C 
BRANCH  19  20
ATOM     20  C   UNL     1      -7.600  -1.689 122.814  0.00  0.00    +0.000 C 
ATOM     21  N   UNL     1      -6.502  -1.854 122.458  0.00  0.00    +0.000 NA
ENDBRANCH  19  20
BRANCH  19  22
ATOM     22  C   UNL     1      -9.785  -0.450 122.784  0.00  0.00    +0.000 C 
ATOM     23  N   UNL     1     -10.521   0.360 122.392  0.00  0.00    +0.000 NA
ENDBRANCH  19  22
ENDBRANCH  16  18
ENDBRANCH   4  16
TORSDOF 5
ENDMDL
MODEL 2
REMARK VINA RESULT:      -6.6      9.348     10.538
REMARK  Name = Levosimendan
REMARK  6 active torsions:
REMARK  status: ('A' for Active; 'I' for Inactive)
REMARK    1  A    between atoms: C_1  and  C_2
REMARK    2  A    between atoms: C_8  and  C_9
REMARK    3  A    between atoms: C_12  and  N_13
REMARK    4  A    between atoms: N_13  and  N_14
REMARK    5  A    between atoms: C_15  and  C_16
REMARK    6  A    between atoms: C_15  and  C_18
REMARK                            x       y       z     vdW  Elec       q    Type
REMARK                         _______ _______ _______ _____ _____    ______ ____
ROOT
ATOM      1  C   UNL     1      -7.981   5.948 130.810  0.00  0.00    +0.000 A 
ATOM      2  C   UNL     1      -7.033   6.787 131.391  0.00  0.00    +0.000 A 
ATOM      3  C   UNL     1      -5.661   6.558 131.161  0.00  0.00    +0.000 A 
ATOM      4  C   UNL     1      -5.210   5.437 130.440  0.00  0.00    +0.000 A 
ATOM      5  C   UNL     1      -6.177   4.614 129.863  0.00  0.00    +0.000 A 
ATOM      6  C   UNL     1      -7.542   4.871 130.039  0.00  0.00    +0.000 A 
ENDROOT
BRANCH   1  14
ATOM      7  C   UNL     1     -10.122   7.929 129.128  0.00  0.00    +0.000 C 
ATOM      8  C   UNL     1     -10.219   6.484 129.616  0.00  0.00    +0.000 C 
ATOM      9  C   UNL     1     -11.683   6.117 129.841  0.00  0.00    +0.000 C 
ATOM     10  C   UNL     1     -12.202   6.686 131.132  0.00  0.00    +0.000 C 
ATOM     11  O   UNL     1     -13.375   7.018 131.283  0.00  0.00    +0.000 OA
ATOM     12  N   UNL     1     -11.295   6.728 132.160  0.00  0.00    +0.000 N 
ATOM     13  N   UNL     1      -9.972   6.400 132.084  0.00  0.00    +0.000 NA
ATOM     14  C   UNL     1      -9.438   6.269 130.904  0.00  0.00    +0.000 C 
ATOM     15  H   UNL     1     -11.644   7.011 133.071  0.00  0.00    +0.000 HD
ENDBRANCH   1  14
BRANCH   4  16
ATOM     16  N   UNL     1      -3.827   5.196 130.284  0.00  0.00    +0.000 N 
ATOM     17  H   UNL     1      -3.247   5.534 131.053  0.00  0.00    +0.000 HD
BRANCH  16  18
ATOM     18  N   UNL     1      -3.383   4.311 129.330  0.00  0.00    +0.000 NA
ATOM     19  C   UNL     1      -2.725   4.746 128.292  0.00  0.00    +0.000 C 
BRANCH  19  20
ATOM     20  C   UNL     1      -2.409   6.132 128.130  0.00  0.00    +0.000 C 
ATOM     21  N   UNL     1      -2.173   7.269 128.018  0.00  0.00    +0.000 NA
ENDBRANCH  19  20
BRANCH  19  22
ATOM     22  C   UNL     1      -2.348   3.756 127.318  0.00  0.00    +0.000 C 
ATOM     23  N   UNL     1      -1.981   2.962 126.553  0.00  0.00    +0.000 NA
ENDBRANCH  19  22
ENDBRANCH  16  18
ENDBRANCH   4  16
TORSDOF 5
ENDMDL
MODEL 3
REMARK VINA RESULT:      -6.4      9.507     10.394
REMARK  Name = Levosimendan
REMARK  6 active torsions:
REMARK  status: ('A' for Active; 'I' for Inactive)
REMARK    1  A    between atoms: C_1  and  C_2
REMARK    2  A    between atoms: C_8  and  C_9
REMARK    3  A    between atoms: C_12  and  N_13
REMARK    4  A    between atoms: N_13  and  N_14
REMARK    5  A    between atoms: C_15  and  C_16
REMARK    6  A    between atoms: C_15  and  C_18
REMARK                            x       y       z     vdW  Elec       q    Type
REMARK                         _______ _______ _______ _____ _____    ______ ____
ROOT
ATOM      1  C   UNL     1      -6.170   6.028 130.667  0.00  0.00    +0.000 A 
ATOM      2  C   UNL     1      -7.075   6.980 131.133  0.00  0.00    +0.000 A 
ATOM      3  C   UNL     1      -8.459   6.719 131.071  0.00  0.00    +0.000 A 
ATOM      4  C   UNL     1      -8.966   5.560 130.455  0.00  0.00    +0.000 A 
ATOM      5  C   UNL     1      -8.041   4.619 130.000  0.00  0.00    +0.000 A 
ATOM      6  C   UNL     1      -6.664   4.847 130.113  0.00  0.00    +0.000 A 
ENDROOT
BRANCH   1  14
ATOM      7  C   UNL     1      -3.801   8.066 129.413  0.00  0.00    +0.000 C 
ATOM      8  C   UNL     1      -4.135   7.625 130.838  0.00  0.00    +0.000 C 
ATOM      9  C   UNL     1      -2.880   7.692 131.702  0.00  0.00    +0.000 C 
ATOM     10  C   UNL     1      -1.974   6.518 131.452  0.00  0.00    +0.000 C 
ATOM     11  O   UNL     1      -0.753   6.593 131.556  0.00  0.00    +0.000 OA
ATOM     12  N   UNL     1      -2.611   5.334 131.184  0.00  0.00    +0.000 N 
ATOM     13  N   UNL     1      -3.957   5.158 131.029  0.00  0.00    +0.000 NA
ATOM     14  C   UNL     1      -4.701   6.213 130.874  0.00  0.00    +0.000 C 
ATOM     15  H   UNL     1      -2.030   4.504 131.111  0.00  0.00    +0.000 HD
ENDBRANCH   1  14
BRANCH   4  16
ATOM     16  N   UNL     1     -10.359   5.358 130.347  0.00  0.00    +0.000 N 
ATOM     17  H   UNL     1     -10.818   5.090 131.219  0.00  0.00    +0.000 HD
BRANCH  16  18
ATOM     18  N   UNL     1     -11.038   5.800 129.237  0.00  0.00    +0.000 NA
ATOM     19  C   UNL     1     -12.107   6.533 129.374  0.00  0.00    +0.000 C 
BRANCH  19  20
ATOM     20  C   UNL     1     -12.582   6.934 130.664  0.00  0.00    +0.000 C 
ATOM     21  N   UNL     1     -12.942   7.273 131.720  0.00  0.00    +0.000 NA
ENDBRANCH  19  20
BRANCH  19  22
ATOM     22  C   UNL     1     -12.785   6.904 128.161  0.00  0.00    +0.000 C 
ATOM     23  N   UNL     1     -13.391   7.201 127.214  0.00  0.00    +0.000 NA
ENDBRANCH  19  22
ENDBRANCH  16  18
ENDBRANCH   4  16
TORSDOF 5
ENDMDL
MODEL 4
REMARK VINA RESULT:      -6.4      5.865      7.041
REMARK  Name = Levosimendan
REMARK  6 active torsions:
REMARK  status: ('A' for Active; 'I' for Inactive)
REMARK    1  A    between atoms: C_1  and  C_2
REMARK    2  A    between atoms: C_8  and  C_9
REMARK    3  A    between atoms: C_12  and  N_13
REMARK    4  A    between atoms: N_13  and  N_14
REMARK    5  A    between atoms: C_15  and  C_16
REMARK    6  A    between atoms: C_15  and  C_18
REMARK                            x       y       z     vdW  Elec       q    Type
REMARK                         _______ _______ _______ _____ _____    ______ ____
ROOT
ATOM      1  C   UNL     1      -8.384  -0.047 130.847  0.00  0.00    +0.000 A 
ATOM      2  C   UNL     1      -8.166   0.874 129.824  0.00  0.00    +0.000 A 
ATOM      3  C   UNL     1      -8.780   2.142 129.881  0.00  0.00    +0.000 A 
ATOM      4  C   UNL     1      -9.697   2.474 130.896  0.00  0.00    +0.000 A 
ATOM      5  C   UNL     1      -9.895   1.539 131.911  0.00  0.00    +0.000 A 
ATOM      6  C   UNL     1      -9.241   0.301 131.892  0.00  0.00    +0.000 A 
ENDROOT
BRANCH   1  14
ATOM      7  C   UNL     1      -8.350  -2.894 129.052  0.00  0.00    +0.000 C 
ATOM      8  C   UNL     1      -7.234  -1.991 129.575  0.00  0.00    +0.000 C 
ATOM      9  C   UNL     1      -5.961  -2.809 129.766  0.00  0.00    +0.000 C 
ATOM     10  C   UNL     1      -6.016  -3.627 131.026  0.00  0.00    +0.000 C 
ATOM     11  O   UNL     1      -5.450  -4.712 131.134  0.00  0.00    +0.000 OA
ATOM     12  N   UNL     1      -6.669  -3.039 132.079  0.00  0.00    +0.000 N 
ATOM     13  N   UNL     1      -7.342  -1.851 132.050  0.00  0.00    +0.000 NA
ATOM     14  C   UNL     1      -7.615  -1.328 130.891  0.00  0.00    +0.000 C 
ATOM     15  H   UNL     1      -6.634  -3.523 132.971  0.00  0.00    +0.000 HD
ENDBRANCH   1  14
BRANCH   4  16
ATOM     16  N   UNL     1     -10.349   3.727 130.889  0.00  0.00    +0.000 N 
ATOM     17  H   UNL     1     -10.822   3.964 131.761  0.00  0.00    +0.000 HD
BRANCH  16  18
ATOM     18  N   UNL     1     -10.078   4.641 129.899  0.00  0.00    +0.000 NA
ATOM     19  C   UNL     1     -10.624   5.824 129.937  0.00  0.00    +0.000 C 
BRANCH  19  20
ATOM     20  C   UNL     1     -11.479   6.222 131.014  0.00  0.00    +0.000 C 
ATOM     21  N   UNL     1     -12.192   6.523 131.887  0.00  0.00    +0.000 NA
ENDBRANCH  19  20
BRANCH  19  22
ATOM     22  C   UNL     1     -10.330   6.697 128.831  0.00  0.00    +0.000 C 
ATOM     23  N   UNL     1     -10.134   7.366 127.901  0.00  0.00    +0.000 NA
ENDBRANCH  19  22
ENDBRANCH  16  18
ENDBRANCH   4  16
TORSDOF 5
ENDMDL
MODEL 5
REMARK VINA RESULT:      -6.3     10.048     13.104
REMARK  Name = Levosimendan
REMARK  6 active torsions:
REMARK  status: ('A' for Active; 'I' for Inactive)
REMARK    1  A    between atoms: C_1  and  C_2
REMARK    2  A    between atoms: C_8  and  C_9
REMARK    3  A    between atoms: C_12  and  N_13
REMARK    4  A    between atoms: N_13  and  N_14
REMARK    5  A    between atoms: C_15  and  C_16
REMARK    6  A    between atoms: C_15  and  C_18
REMARK                            x       y       z     vdW  Elec       q    Type
REMARK                         _______ _______ _______ _____ _____    ______ ____
ROOT
ATOM      1  C   UNL     1      -9.625   6.629 130.634  0.00  0.00    +0.000 A 
ATOM      2  C   UNL     1      -8.267   6.692 130.940  0.00  0.00    +0.000 A 
ATOM      3  C   UNL     1      -7.814   6.263 132.204  0.00  0.00    +0.000 A 
ATOM      4  C   UNL     1      -8.709   5.865 133.214  0.00  0.00    +0.000 A 
ATOM      5  C   UNL     1     -10.063   5.806 132.884  0.00  0.00    +0.000 A 
ATOM      6  C   UNL     1     -10.513   6.174 131.610  0.00  0.00    +0.000 A 
ENDROOT
BRANCH   1  14
ATOM      7  C   UNL     1     -12.599   7.314 129.212  0.00  0.00    +0.000 C 
ATOM      8  C   UNL     1     -11.215   7.945 129.065  0.00  0.00    +0.000 C 
ATOM      9  C   UNL     1     -11.090   8.591 127.690  0.00  0.00    +0.000 C 
ATOM     10  C   UNL     1     -10.836   7.566 126.620  0.00  0.00    +0.000 C 
ATOM     11  O   UNL     1     -11.232   7.704 125.465  0.00  0.00    +0.000 OA
ATOM     12  N   UNL     1     -10.056   6.504 126.999  0.00  0.00    +0.000 N 
ATOM     13  N   UNL     1      -9.588   6.255 128.258  0.00  0.00    +0.000 NA
ATOM     14  C   UNL     1     -10.104   6.921 129.249  0.00  0.00    +0.000 C 
ATOM     15  H   UNL     1      -9.785   5.849 126.272  0.00  0.00    +0.000 HD
ENDBRANCH   1  14
BRANCH   4  16
ATOM     16  N   UNL     1      -8.231   5.506 134.493  0.00  0.00    +0.000 N 
ATOM     17  H   UNL     1      -8.869   4.924 135.037  0.00  0.00    +0.000 HD
BRANCH  16  18
ATOM     18  N   UNL     1      -6.904   5.676 134.808  0.00  0.00    +0.000 NA
ATOM     19  C   UNL     1      -6.565   6.127 135.983  0.00  0.00    +0.000 C 
BRANCH  19  20
ATOM     20  C   UNL     1      -7.543   6.417 136.987  0.00  0.00    +0.000 C 
ATOM     21  N   UNL     1      -8.354   6.628 137.799  0.00  0.00    +0.000 NA
ENDBRANCH  19  20
BRANCH  19  22
ATOM     22  C   UNL     1      -5.157   6.327 136.206  0.00  0.00    +0.000 C 
ATOM     23  N   UNL     1      -4.026   6.547 136.355  0.00  0.00    +0.000 NA
ENDBRANCH  19  22
ENDBRANCH  16  18
ENDBRANCH   4  16
TORSDOF 5
ENDMDL
MODEL 6
REMARK VINA RESULT:      -6.1      8.567     11.762
REMARK  Name = Levosimendan
REMARK  6 active torsions:
REMARK  status: ('A' for Active; 'I' for Inactive)
REMARK    1  A    between atoms: C_1  and  C_2
REMARK    2  A    between atoms: C_8  and  C_9
REMARK    3  A    between atoms: C_12  and  N_13
REMARK    4  A    between atoms: N_13  and  N_14
REMARK    5  A    between atoms: C_15  and  C_16
REMARK    6  A    between atoms: C_15  and  C_18
REMARK                            x       y       z     vdW  Elec       q    Type
REMARK                         _______ _______ _______ _____ _____    ______ ____
ROOT
ATOM      1  C   UNL     1      -9.714   6.009 130.404  0.00  0.00    +0.000 A 
ATOM      2  C   UNL     1      -8.772   6.676 131.187  0.00  0.00    +0.000 A 
ATOM      3  C   UNL     1      -8.285   6.070 132.362  0.00  0.00    +0.000 A 
ATOM      4  C   UNL     1      -8.798   4.846 132.831  0.00  0.00    +0.000 A 
ATOM      5  C   UNL     1      -9.736   4.195 132.029  0.00  0.00    +0.000 A 
ATOM      6  C   UNL     1     -10.180   4.764 130.830  0.00  0.00    +0.000 A 
ENDROOT
BRANCH   1  14
ATOM      7  C   UNL     1     -12.598   7.029 129.000  0.00  0.00    +0.000 C 
ATOM      8  C   UNL     1     -11.195   7.632 129.029  0.00  0.00    +0.000 C 
ATOM      9  C   UNL     1     -10.988   8.508 127.797  0.00  0.00    +0.000 C 
ATOM     10  C   UNL     1     -10.707   7.680 126.573  0.00  0.00    +0.000 C 
ATOM     11  O   UNL     1     -11.044   8.034 125.446  0.00  0.00    +0.000 OA
ATOM     12  N   UNL     1      -9.972   6.544 126.790  0.00  0.00    +0.000 N 
ATOM     13  N   UNL     1      -9.571   6.061 128.003  0.00  0.00    +0.000 NA
ATOM     14  C   UNL     1     -10.119   6.557 129.074  0.00  0.00    +0.000 C 
ATOM     15  H   UNL     1      -9.681   6.019 125.971  0.00  0.00    +0.000 HD
ENDBRANCH   1  14
BRANCH   4  16
ATOM     16  N   UNL     1      -8.338   4.297 134.048  0.00  0.00    +0.000 N 
ATOM     17  H   UNL     1      -9.018   3.709 134.532  0.00  0.00    +0.000 HD
BRANCH  16  18
ATOM     18  N   UNL     1      -6.998   4.316 134.353  0.00  0.00    +0.000 NA
ATOM     19  C   UNL     1      -6.284   3.234 134.223  0.00  0.00    +0.000 C 
BRANCH  19  20
ATOM     20  C   UNL     1      -6.849   2.016 133.727  0.00  0.00    +0.000 C 
ATOM     21  N   UNL     1      -7.322   1.018 133.350  0.00  0.00    +0.000 NA
ENDBRANCH  19  20
BRANCH  19  22
ATOM     22  C   UNL     1      -4.903   3.331 134.618  0.00  0.00    +0.000 C 
ATOM     23  N   UNL     1      -3.809   3.433 134.996  0.00  0.00    +0.000 NA
ENDBRANCH  19  22
ENDBRANCH  16  18
ENDBRANCH   4  16
TORSDOF 5
ENDMDL
MODEL 7
REMARK VINA RESULT:      -6.1      3.479      8.367
REMARK  Name = Levosimendan
REMARK  6 active torsions:
REMARK  status: ('A' for Active; 'I' for Inactive)
REMARK    1  A    between atoms: C_1  and  C_2
REMARK    2  A    between atoms: C_8  and  C_9
REMARK    3  A    between atoms: C_12  and  N_13
REMARK    4  A    between atoms: N_13  and  N_14
REMARK    5  A    between atoms: C_15  and  C_16
REMARK    6  A    between atoms: C_15  and  C_18
REMARK                            x       y       z     vdW  Elec       q    Type
REMARK                         _______ _______ _______ _____ _____    ______ ____
ROOT
ATOM      1  C   UNL     1      -7.141  -2.519 127.444  0.00  0.00    +0.000 A 
ATOM      2  C   UNL     1      -5.787  -2.238 127.624  0.00  0.00    +0.000 A 
ATOM      3  C   UNL     1      -5.132  -2.671 128.794  0.00  0.00    +0.000 A 
ATOM      4  C   UNL     1      -5.830  -3.294 129.845  0.00  0.00    +0.000 A 
ATOM      5  C   UNL     1      -7.183  -3.570 129.641  0.00  0.00    +0.000 A 
ATOM      6  C   UNL     1      -7.825  -3.196 128.455  0.00  0.00    +0.000 A 
ENDROOT
BRANCH   1  14
ATOM      7  C   UNL     1      -6.697  -3.440 124.237  0.00  0.00    +0.000 C 
ATOM      8  C   UNL     1      -7.941  -3.333 125.117  0.00  0.00    +0.000 C 
ATOM      9  C   UNL     1      -9.166  -3.081 124.243  0.00  0.00    +0.000 C 
ATOM     10  C   UNL     1      -9.242  -1.647 123.800  0.00  0.00    +0.000 C 
ATOM     11  O   UNL     1      -9.737  -1.312 122.727  0.00  0.00    +0.000 OA
ATOM     12  N   UNL     1      -8.799  -0.727 124.715  0.00  0.00    +0.000 N 
ATOM     13  N   UNL     1      -8.218  -1.002 125.920  0.00  0.00    +0.000 NA
ATOM     14  C   UNL     1      -7.812  -2.217 126.144  0.00  0.00    +0.000 C 
ATOM     15  H   UNL     1      -8.933   0.253 124.485  0.00  0.00    +0.000 HD
ENDBRANCH   1  14
BRANCH   4  16
ATOM     16  N   UNL     1      -5.161  -3.656 131.034  0.00  0.00    +0.000 N 
ATOM     17  H   UNL     1      -4.223  -3.265 131.129  0.00  0.00    +0.000 HD
BRANCH  16  18
ATOM     18  N   UNL     1      -5.858  -4.216 132.078  0.00  0.00    +0.000 NA
ATOM     19  C   UNL     1      -5.217  -4.753 133.077  0.00  0.00    +0.000 C 
BRANCH  19  20
ATOM     20  C   UNL     1      -3.788  -4.742 133.145  0.00  0.00    +0.000 C 
ATOM     21  N   UNL     1      -2.624  -4.723 133.228  0.00  0.00    +0.000 NA
ENDBRANCH  19  20
BRANCH  19  22
ATOM     22  C   UNL     1      -6.027  -5.365 134.098  0.00  0.00    +0.000 C 
ATOM     23  N   UNL     1      -6.644  -5.827 134.968  0.00  0.00    +0.000 NA
ENDBRANCH  19  22
ENDBRANCH  16  18
ENDBRANCH   4  16
TORSDOF 5
ENDMDL
MODEL 8
REMARK VINA RESULT:      -6.1      9.596     12.046
REMARK  Name = Levosimendan
REMARK  6 active torsions:
REMARK  status: ('A' for Active; 'I' for Inactive)
REMARK    1  A    between atoms: C_1  and  C_2
REMARK    2  A    between atoms: C_8  and  C_9
REMARK    3  A    between atoms: C_12  and  N_13
REMARK    4  A    between atoms: N_13  and  N_14
REMARK    5  A    between atoms: C_15  and  C_16
REMARK    6  A    between atoms: C_15  and  C_18
REMARK                            x       y       z     vdW  Elec       q    Type
REMARK                         _______ _______ _______ _____ _____    ______ ____
ROOT
ATOM      1  C   UNL     1      -8.629   6.801 131.173  0.00  0.00    +0.000 A 
ATOM      2  C   UNL     1      -7.317   7.068 130.784  0.00  0.00    +0.000 A 
ATOM      3  C   UNL     1      -6.245   6.527 131.521  0.00  0.00    +0.000 A 
ATOM      4  C   UNL     1      -6.456   5.802 132.709  0.00  0.00    +0.000 A 
ATOM      5  C   UNL     1      -7.776   5.543 133.076  0.00  0.00    +0.000 A 
ATOM      6  C   UNL     1      -8.846   6.027 132.314  0.00  0.00    +0.000 A 
ENDROOT
BRANCH   1  14
ATOM      7  C   UNL     1     -11.514   5.401 130.148  0.00  0.00    +0.000 C 
ATOM      8  C   UNL     1     -11.179   6.784 130.705  0.00  0.00    +0.000 C 
ATOM      9  C   UNL     1     -12.194   7.801 130.194  0.00  0.00    +0.000 C 
ATOM     10  C   UNL     1     -11.906   8.202 128.774  0.00  0.00    +0.000 C 
ATOM     11  O   UNL     1     -12.792   8.523 127.986  0.00  0.00    +0.000 OA
ATOM     12  N   UNL     1     -10.578   8.269 128.441  0.00  0.00    +0.000 N 
ATOM     13  N   UNL     1      -9.527   7.914 129.238  0.00  0.00    +0.000 NA
ATOM     14  C   UNL     1      -9.776   7.225 130.313  0.00  0.00    +0.000 C 
ATOM     15  H   UNL     1     -10.351   8.634 127.521  0.00  0.00    +0.000 HD
ENDBRANCH   1  14
BRANCH   4  16
ATOM     16  N   UNL     1      -5.359   5.330 133.463  0.00  0.00    +0.000 N 
ATOM     17  H   UNL     1      -5.566   4.524 134.055  0.00  0.00    +0.000 HD
BRANCH  16  18
ATOM     18  N   UNL     1      -4.083   5.741 133.160  0.00  0.00    +0.000 NA
ATOM     19  C   UNL     1      -3.204   4.878 132.735  0.00  0.00    +0.000 C 
BRANCH  19  20
ATOM     20  C   UNL     1      -3.539   3.502 132.532  0.00  0.00    +0.000 C 
ATOM     21  N   UNL     1      -3.829   2.381 132.391  0.00  0.00    +0.000 NA
ENDBRANCH  19  20
BRANCH  19  22
ATOM     22  C   UNL     1      -1.878   5.386 132.496  0.00  0.00    +0.000 C 
ATOM     23  N   UNL     1      -0.825   5.851 132.337  0.00  0.00    +0.000 NA
ENDBRANCH  19  22
ENDBRANCH  16  18
ENDBRANCH   4  16
TORSDOF 5
ENDMDL
MODEL 9
REMARK VINA RESULT:      -6.1     10.214     12.604
REMARK  Name = Levosimendan
REMARK  6 active torsions:
REMARK  status: ('A' for Active; 'I' for Inactive)
REMARK    1  A    between atoms: C_1  and  C_2
REMARK    2  A    between atoms: C_8  and  C_9
REMARK    3  A    between atoms: C_12  and  N_13
REMARK    4  A    between atoms: N_13  and  N_14
REMARK    5  A    between atoms: C_15  and  C_16
REMARK    6  A    between atoms: C_15  and  C_18
REMARK                            x       y       z     vdW  Elec       q    Type
REMARK                         _______ _______ _______ _____ _____    ______ ____
ROOT
ATOM      1  C   UNL     1      -8.666   6.851 131.110  0.00  0.00    +0.000 A 
ATOM      2  C   UNL     1      -7.366   7.160 130.712  0.00  0.00    +0.000 A 
ATOM      3  C   UNL     1      -6.272   6.655 131.443  0.00  0.00    +0.000 A 
ATOM      4  C   UNL     1      -6.451   5.926 132.634  0.00  0.00    +0.000 A 
ATOM      5  C   UNL     1      -7.761   5.626 133.010  0.00  0.00    +0.000 A 
ATOM      6  C   UNL     1      -8.851   6.074 132.254  0.00  0.00    +0.000 A 
ENDROOT
BRANCH   1  14
ATOM      7  C   UNL     1     -11.539   5.379 130.156  0.00  0.00    +0.000 C 
ATOM      8  C   UNL     1     -11.221   6.779 130.678  0.00  0.00    +0.000 C 
ATOM      9  C   UNL     1     -12.261   7.767 130.159  0.00  0.00    +0.000 C 
ATOM     10  C   UNL     1     -12.000   8.142 128.727  0.00  0.00    +0.000 C 
ATOM     11  O   UNL     1     -12.902   8.430 127.945  0.00  0.00    +0.000 OA
ATOM     12  N   UNL     1     -10.677   8.224 128.375  0.00  0.00    +0.000 N 
ATOM     13  N   UNL     1      -9.609   7.906 129.165  0.00  0.00    +0.000 NA
ATOM     14  C   UNL     1      -9.831   7.236 130.257  0.00  0.00    +0.000 C 
ATOM     15  H   UNL     1     -10.469   8.573 127.444  0.00  0.00    +0.000 HD
ENDBRANCH   1  14
BRANCH   4  16
ATOM     16  N   UNL     1      -5.335   5.492 133.382  0.00  0.00    +0.000 N 
ATOM     17  H   UNL     1      -5.568   4.966 134.225  0.00  0.00    +0.000 HD
BRANCH  16  18
ATOM     18  N   UNL     1      -4.078   5.519 132.827  0.00  0.00    +0.000 NA
ATOM     19  C   UNL     1      -3.140   6.240 133.372  0.00  0.00    +0.000 C 
BRANCH  19  20
ATOM     20  C   UNL     1      -3.368   6.985 134.573  0.00  0.00    +0.000 C 
ATOM     21  N   UNL     1      -3.574   7.572 135.560  0.00  0.00    +0.000 NA
ENDBRANCH  19  20
BRANCH  19  22
ATOM     22  C   UNL     1      -1.871   6.254 132.693  0.00  0.00    +0.000 C 
ATOM     23  N   UNL     1      -0.817   6.251 132.204  0.00  0.00    +0.000 NA
ENDBRANCH  19  22
ENDBRANCH  16  18
ENDBRANCH   4  16
TORSDOF 5
ENDMDL
