MODEL 1
REMARK VINA RESULT:      -7.3      0.000      0.000
REMARK  Name = Levofloxacin
REMARK  5 active torsions:
REMARK  status: ('A' for Active; 'I' for Inactive)
REMARK    1  A    between atoms: C_1  and  C_2
REMARK    2  A    between atoms: C_9  and  C_10
REMARK    3  A    between atoms: C_10  and  O_11
REMARK    4  A    between atoms: C_19  and  N_20
REMARK    5  A    between atoms: N_23  and  C_24
REMARK                            x       y       z     vdW  Elec       q    Type
REMARK                         _______ _______ _______ _____ _____    ______ ____
ROOT
ATOM      1  C   UNL     1      -9.011  -2.526 123.229  0.00  0.00    +0.000 C 
ATOM      2  C   UNL     1      -7.576  -2.491 123.760  0.00  0.00    +0.000 C 
ATOM      3  C   UNL     1      -6.647  -1.694 122.851  0.00  0.00    +0.000 C 
ATOM      4  O   UNL     1      -7.080  -0.341 122.745  0.00  0.00    +0.000 OA
ATOM      5  C   UNL     1      -7.237   0.282 123.972  0.00  0.00    +0.000 A 
ATOM      6  C   UNL     1      -7.437  -0.485 125.143  0.00  0.00    +0.000 A 
ATOM      7  N   UNL     1      -7.551  -1.892 125.103  0.00  0.00    +0.000 N 
ATOM      8  C   UNL     1      -7.734  -2.606 126.267  0.00  0.00    +0.000 A 
ATOM      9  C   UNL     1      -7.823  -2.104 127.511  0.00  0.00    +0.000 A 
ATOM     10  C   UNL     1      -7.758  -0.606 127.610  0.00  0.00    +0.000 A 
ATOM     11  O   UNL     1      -7.872  -0.002 128.672  0.00  0.00    +0.000 OA
ATOM     12  C   UNL     1      -7.551   0.184 126.367  0.00  0.00    +0.000 A 
ATOM     13  C   UNL     1      -7.479   1.579 126.421  0.00  0.00    +0.000 A 
ATOM     14  C   UNL     1      -7.313   2.315 125.246  0.00  0.00    +0.000 A 
ATOM     15  F   UNL     1      -7.329   3.654 125.338  0.00  0.00    +0.000 F 
ATOM     16  C   UNL     1      -7.231   1.700 123.983  0.00  0.00    +0.000 A 
ENDROOT
BRANCH  16  17
ATOM     17  N   UNL     1      -7.326   2.470 122.822  0.00  0.00    +0.000 N 
ATOM     18  C   UNL     1      -8.588   3.099 122.387  0.00  0.00    +0.000 C 
ATOM     19  C   UNL     1      -8.522   3.380 120.854  0.00  0.00    +0.000 C 
ATOM     20  N   UNL     1      -7.327   4.183 120.488  0.00  0.00    +0.000 NA
ATOM     21  C   UNL     1      -7.278   4.461 119.060  0.00  0.00    +0.000 C 
ATOM     22  C   UNL     1      -6.131   3.415 120.889  0.00  0.00    +0.000 C 
ATOM     23  C   UNL     1      -6.112   3.181 122.400  0.00  0.00    +0.000 C 
ENDBRANCH  16  17
BRANCH   9  24
ATOM     24  C   UNL     1      -7.977  -2.954 128.718  0.00  0.00    +0.000 C 
ATOM     25  O   UNL     1      -8.883  -3.761 128.871  0.00  0.00    +0.000 OA
BRANCH  24  26
ATOM     26  O   UNL     1      -7.058  -2.797 129.698  0.00  0.00    +0.000 OA
ATOM     27  H   UNL     1      -6.114  -2.844 129.489  0.00  0.00    +0.000 HD
ENDBRANCH  24  26
ENDBRANCH   9  24
TORSDOF 3
ENDMDL
MODEL 2
REMARK VINA RESULT:      -7.0      2.817      7.228
REMARK  Name = Levofloxacin
REMARK  5 active torsions:
REMARK  status: ('A' for Active; 'I' for Inactive)
REMARK    1  A    between atoms: C_1  and  C_2
REMARK    2  A    between atoms: C_9  and  C_10
REMARK    3  A    between atoms: C_10  and  O_11
REMARK    4  A    between atoms: C_19  and  N_20
REMARK    5  A    between atoms: N_23  and  C_24
REMARK                            x       y       z     vdW  Elec       q    Type
REMARK                         _______ _______ _______ _____ _____    ______ ____
ROOT
ATOM      1  C   UNL     1      -5.969  -2.130 123.597  0.00  0.00    +0.000 C 
ATOM      2  C   UNL     1      -7.488  -2.089 123.785  0.00  0.00    +0.000 C 
ATOM      3  C   UNL     1      -7.963  -3.086 124.835  0.00  0.00    +0.000 C 
ATOM      4  O   UNL     1      -7.383  -2.802 126.105  0.00  0.00    +0.000 OA
ATOM      5  C   UNL     1      -7.590  -1.497 126.521  0.00  0.00    +0.000 A 
ATOM      6  C   UNL     1      -7.882  -0.483 125.580  0.00  0.00    +0.000 A 
ATOM      7  N   UNL     1      -7.908  -0.739 124.192  0.00  0.00    +0.000 N 
ATOM      8  C   UNL     1      -8.207   0.273 123.306  0.00  0.00    +0.000 A 
ATOM      9  C   UNL     1      -8.496   1.549 123.613  0.00  0.00    +0.000 A 
ATOM     10  C   UNL     1      -8.436   1.892 125.075  0.00  0.00    +0.000 A 
ATOM     11  O   UNL     1      -8.629   3.025 125.502  0.00  0.00    +0.000 OA
ATOM     12  C   UNL     1      -8.124   0.813 126.049  0.00  0.00    +0.000 A 
ATOM     13  C   UNL     1      -8.066   1.093 127.418  0.00  0.00    +0.000 A 
ATOM     14  C   UNL     1      -7.743   0.081 128.324  0.00  0.00    +0.000 A 
ATOM     15  F   UNL     1      -7.622   0.415 129.619  0.00  0.00    +0.000 F 
ATOM     16  C   UNL     1      -7.453  -1.231 127.908  0.00  0.00    +0.000 A 
ENDROOT
BRANCH  16  17
ATOM     17  N   UNL     1      -6.888  -2.140 128.805  0.00  0.00    +0.000 N 
ATOM     18  C   UNL     1      -7.682  -3.177 129.492  0.00  0.00    +0.000 C 
ATOM     19  C   UNL     1      -6.934  -3.624 130.786  0.00  0.00    +0.000 C 
ATOM     20  N   UNL     1      -5.544  -4.065 130.500  0.00  0.00    +0.000 NA
ATOM     21  C   UNL     1      -4.855  -4.502 131.706  0.00  0.00    +0.000 C 
ATOM     22  C   UNL     1      -4.827  -2.922 129.900  0.00  0.00    +0.000 C 
ATOM     23  C   UNL     1      -5.479  -2.495 128.584  0.00  0.00    +0.000 C 
ENDBRANCH  16  17
BRANCH   9  24
ATOM     24  C   UNL     1      -8.852   2.566 122.593  0.00  0.00    +0.000 C 
ATOM     25  O   UNL     1      -9.559   2.338 121.621  0.00  0.00    +0.000 OA
BRANCH  24  26
ATOM     26  O   UNL     1      -8.341   3.808 122.762  0.00  0.00    +0.000 OA
ATOM     27  H   UNL     1      -7.422   3.919 123.046  0.00  0.00    +0.000 HD
ENDBRANCH  24  26
ENDBRANCH   9  24
TORSDOF 3
ENDMDL
MODEL 3
REMARK VINA RESULT:      -6.8      8.060      9.365
REMARK  Name = Levofloxacin
REMARK  5 active torsions:
REMARK  status: ('A' for Active; 'I' for Inactive)
REMARK    1  A    between atoms: C_1  and  C_2
REMARK    2  A    between atoms: C_9  and  C_10
REMARK    3  A    between atoms: C_10  and  O_11
REMARK    4  A    between atoms: C_19  and  N_20
REMARK    5  A    between atoms: N_23  and  C_24
REMARK                            x       y       z     vdW  Elec       q    Type
REMARK                         _______ _______ _______ _____ _____    ______ ____
ROOT
ATOM      1  C   UNL     1      -6.036   5.831 132.978  0.00  0.00    +0.000 C 
ATOM      2  C   UNL     1      -6.974   5.212 134.017  0.00  0.00    +0.000 C 
ATOM      3  C   UNL     1      -8.250   6.027 134.196  0.00  0.00    +0.000 C 
ATOM      4  O   UNL     1      -8.980   6.100 132.975  0.00  0.00    +0.000 OA
ATOM      5  C   UNL     1      -9.250   4.859 132.423  0.00  0.00    +0.000 A 
ATOM      6  C   UNL     1      -8.459   3.737 132.764  0.00  0.00    +0.000 A 
ATOM      7  N   UNL     1      -7.338   3.845 133.615  0.00  0.00    +0.000 N 
ATOM      8  C   UNL     1      -6.599   2.727 133.934  0.00  0.00    +0.000 A 
ATOM      9  C   UNL     1      -6.823   1.470 133.513  0.00  0.00    +0.000 A 
ATOM     10  C   UNL     1      -7.976   1.301 132.564  0.00  0.00    +0.000 A 
ATOM     11  O   UNL     1      -8.272   0.224 132.059  0.00  0.00    +0.000 OA
ATOM     12  C   UNL     1      -8.793   2.494 132.214  0.00  0.00    +0.000 A 
ATOM     13  C   UNL     1      -9.877   2.374 131.339  0.00  0.00    +0.000 A 
ATOM     14  C   UNL     1     -10.621   3.504 130.993  0.00  0.00    +0.000 A 
ATOM     15  F   UNL     1     -11.603   3.354 130.089  0.00  0.00    +0.000 F 
ATOM     16  C   UNL     1     -10.311   4.785 131.484  0.00  0.00    +0.000 A 
ENDROOT
BRANCH  16  17
ATOM     17  N   UNL     1     -10.907   5.914 130.920  0.00  0.00    +0.000 N 
ATOM     18  C   UNL     1     -11.968   6.679 131.603  0.00  0.00    +0.000 C 
ATOM     19  C   UNL     1     -12.790   7.477 130.545  0.00  0.00    +0.000 C 
ATOM     20  N   UNL     1     -11.921   8.336 129.699  0.00  0.00    +0.000 NA
ATOM     21  C   UNL     1     -12.693   9.096 128.727  0.00  0.00    +0.000 C 
ATOM     22  C   UNL     1     -10.965   7.454 129.000  0.00  0.00    +0.000 C 
ATOM     23  C   UNL     1     -10.080   6.705 129.998  0.00  0.00    +0.000 C 
ENDBRANCH  16  17
BRANCH   9  24
ATOM     24  C   UNL     1      -5.999   0.313 133.943  0.00  0.00    +0.000 C 
ATOM     25  O   UNL     1      -5.740   0.059 135.111  0.00  0.00    +0.000 OA
BRANCH  24  26
ATOM     26  O   UNL     1      -5.505  -0.483 132.967  0.00  0.00    +0.000 OA
ATOM     27  H   UNL     1      -6.107  -0.991 132.404  0.00  0.00    +0.000 HD
ENDBRANCH  24  26
ENDBRANCH   9  24
TORSDOF 3
ENDMDL
MODEL 4
REMARK VINA RESULT:      -6.7      3.437      5.370
REMARK  Name = Levofloxacin
REMARK  5 active torsions:
REMARK  status: ('A' for Active; 'I' for Inactive)
REMARK    1  A    between atoms: C_1  and  C_2
REMARK    2  A    between atoms: C_9  and  C_10
REMARK    3  A    between atoms: C_10  and  O_11
REMARK    4  A    between atoms: C_19  and  N_20
REMARK    5  A    between atoms: N_23  and  C_24
REMARK                            x       y       z     vdW  Elec       q    Type
REMARK                         _______ _______ _______ _____ _____    ______ ____
ROOT
ATOM      1  C   UNL     1      -4.922  -1.686 128.500  0.00  0.00    +0.000 C 
ATOM      2  C   UNL     1      -6.351  -1.139 128.545  0.00  0.00    +0.000 C 
ATOM      3  C   UNL     1      -6.415   0.248 129.175  0.00  0.00    +0.000 C 
ATOM      4  O   UNL     1      -5.640   1.181 128.429  0.00  0.00    +0.000 OA
ATOM      5  C   UNL     1      -5.978   1.224 127.086  0.00  0.00    +0.000 A 
ATOM      6  C   UNL     1      -6.632   0.128 126.477  0.00  0.00    +0.000 A 
ATOM      7  N   UNL     1      -6.903  -1.065 127.183  0.00  0.00    +0.000 N 
ATOM      8  C   UNL     1      -7.553  -2.107 126.559  0.00  0.00    +0.000 A 
ATOM      9  C   UNL     1      -7.987  -2.135 125.288  0.00  0.00    +0.000 A 
ATOM     10  C   UNL     1      -7.683  -0.911 124.472  0.00  0.00    +0.000 A 
ATOM     11  O   UNL     1      -7.975  -0.810 123.285  0.00  0.00    +0.000 OA
ATOM     12  C   UNL     1      -6.991   0.231 125.129  0.00  0.00    +0.000 A 
ATOM     13  C   UNL     1      -6.696   1.389 124.403  0.00  0.00    +0.000 A 
ATOM     14  C   UNL     1      -6.020   2.444 125.019  0.00  0.00    +0.000 A 
ATOM     15  F   UNL     1      -5.690   3.503 124.262  0.00  0.00    +0.000 F 
ATOM     16  C   UNL     1      -5.601   2.384 126.361  0.00  0.00    +0.000 A 
ENDROOT
BRANCH  16  17
ATOM     17  N   UNL     1      -4.712   3.337 126.860  0.00  0.00    +0.000 N 
ATOM     18  C   UNL     1      -3.302   3.411 126.432  0.00  0.00    +0.000 C 
ATOM     19  C   UNL     1      -2.469   4.147 127.526  0.00  0.00    +0.000 C 
ATOM     20  N   UNL     1      -3.037   5.481 127.853  0.00  0.00    +0.000 NA
ATOM     21  C   UNL     1      -2.246   6.175 128.859  0.00  0.00    +0.000 C 
ATOM     22  C   UNL     1      -4.411   5.272 128.353  0.00  0.00    +0.000 C 
ATOM     23  C   UNL     1      -5.290   4.620 127.283  0.00  0.00    +0.000 C 
ENDBRANCH  16  17
BRANCH   9  24
ATOM     24  C   UNL     1      -8.720  -3.289 124.708  0.00  0.00    +0.000 C 
ATOM     25  O   UNL     1      -8.306  -4.439 124.731  0.00  0.00    +0.000 OA
BRANCH  24  26
ATOM     26  O   UNL     1      -9.906  -3.024 124.113  0.00  0.00    +0.000 OA
ATOM     27  H   UNL     1     -10.480  -2.328 124.465  0.00  0.00    +0.000 HD
ENDBRANCH  24  26
ENDBRANCH   9  24
TORSDOF 3
ENDMDL
MODEL 5
REMARK VINA RESULT:      -6.6      5.768      7.309
REMARK  Name = Levofloxacin
REMARK  5 active torsions:
REMARK  status: ('A' for Active; 'I' for Inactive)
REMARK    1  A    between atoms: C_1  and  C_2
REMARK    2  A    between atoms: C_9  and  C_10
REMARK    3  A    between atoms: C_10  and  O_11
REMARK    4  A    between atoms: C_19  and  N_20
REMARK    5  A    between atoms: N_23  and  C_24
REMARK                            x       y       z     vdW  Elec       q    Type
REMARK                         _______ _______ _______ _____ _____    ______ ____
ROOT
ATOM      1  C   UNL     1      -8.655   1.475 127.413  0.00  0.00    +0.000 C 
ATOM      2  C   UNL     1      -7.392   2.121 127.987  0.00  0.00    +0.000 C 
ATOM      3  C   UNL     1      -7.400   3.637 127.828  0.00  0.00    +0.000 C 
ATOM      4  O   UNL     1      -8.506   4.213 128.516  0.00  0.00    +0.000 OA
ATOM      5  C   UNL     1      -8.572   3.848 129.850  0.00  0.00    +0.000 A 
ATOM      6  C   UNL     1      -7.932   2.671 130.303  0.00  0.00    +0.000 A 
ATOM      7  N   UNL     1      -7.266   1.796 129.417  0.00  0.00    +0.000 N 
ATOM      8  C   UNL     1      -6.644   0.665 129.897  0.00  0.00    +0.000 A 
ATOM      9  C   UNL     1      -6.586   0.264 131.178  0.00  0.00    +0.000 A 
ATOM     10  C   UNL     1      -7.320   1.130 132.162  0.00  0.00    +0.000 A 
ATOM     11  O   UNL     1      -7.396   0.867 133.357  0.00  0.00    +0.000 OA
ATOM     12  C   UNL     1      -7.990   2.362 131.666  0.00  0.00    +0.000 A 
ATOM     13  C   UNL     1      -8.677   3.197 132.553  0.00  0.00    +0.000 A 
ATOM     14  C   UNL     1      -9.329   4.336 132.076  0.00  0.00    +0.000 A 
ATOM     15  F   UNL     1     -10.041   5.063 132.952  0.00  0.00    +0.000 F 
ATOM     16  C   UNL     1      -9.337   4.677 130.711  0.00  0.00    +0.000 A 
ENDROOT
BRANCH  16  17
ATOM     17  N   UNL     1     -10.204   5.665 130.242  0.00  0.00    +0.000 N 
ATOM     18  C   UNL     1     -11.672   5.537 130.319  0.00  0.00    +0.000 C 
ATOM     19  C   UNL     1     -12.327   6.468 129.253  0.00  0.00    +0.000 C 
ATOM     20  N   UNL     1     -11.869   7.875 129.388  0.00  0.00    +0.000 NA
ATOM     21  C   UNL     1     -12.498   8.746 128.405  0.00  0.00    +0.000 C 
ATOM     22  C   UNL     1     -10.404   7.888 129.203  0.00  0.00    +0.000 C 
ATOM     23  C   UNL     1      -9.709   7.048 130.276  0.00  0.00    +0.000 C 
ENDBRANCH  16  17
BRANCH   9  24
ATOM     24  C   UNL     1      -5.853  -0.952 131.613  0.00  0.00    +0.000 C 
ATOM     25  O   UNL     1      -5.927  -2.032 131.043  0.00  0.00    +0.000 OA
BRANCH  24  26
ATOM     26  O   UNL     1      -5.077  -0.836 132.715  0.00  0.00    +0.000 OA
ATOM     27  H   UNL     1      -5.434  -1.063 133.586  0.00  0.00    +0.000 HD
ENDBRANCH  24  26
ENDBRANCH   9  24
TORSDOF 3
ENDMDL
MODEL 6
REMARK VINA RESULT:      -6.6      3.406      8.031
REMARK  Name = Levofloxacin
REMARK  5 active torsions:
REMARK  status: ('A' for Active; 'I' for Inactive)
REMARK    1  A    between atoms: C_1  and  C_2
REMARK    2  A    between atoms: C_9  and  C_10
REMARK    3  A    between atoms: C_10  and  O_11
REMARK    4  A    between atoms: C_19  and  N_20
REMARK    5  A    between atoms: N_23  and  C_24
REMARK                            x       y       z     vdW  Elec       q    Type
REMARK                         _______ _______ _______ _____ _____    ______ ____
ROOT
ATOM      1  C   UNL     1      -8.073   2.441 128.243  0.00  0.00    +0.000 C 
ATOM      2  C   UNL     1      -7.042   1.929 127.236  0.00  0.00    +0.000 C 
ATOM      3  C   UNL     1      -5.889   1.199 127.916  0.00  0.00    +0.000 C 
ATOM      4  O   UNL     1      -6.360   0.064 128.635  0.00  0.00    +0.000 OA
ATOM      5  C   UNL     1      -7.114  -0.801 127.860  0.00  0.00    +0.000 A 
ATOM      6  C   UNL     1      -7.741  -0.342 126.679  0.00  0.00    +0.000 A 
ATOM      7  N   UNL     1      -7.683   1.011 126.281  0.00  0.00    +0.000 N 
ATOM      8  C   UNL     1      -8.298   1.419 125.117  0.00  0.00    +0.000 A 
ATOM      9  C   UNL     1      -8.986   0.646 124.260  0.00  0.00    +0.000 A 
ATOM     10  C   UNL     1      -9.123  -0.797 124.657  0.00  0.00    +0.000 A 
ATOM     11  O   UNL     1      -9.762  -1.612 124.000  0.00  0.00    +0.000 OA
ATOM     12  C   UNL     1      -8.459  -1.260 125.905  0.00  0.00    +0.000 A 
ATOM     13  C   UNL     1      -8.560  -2.597 126.302  0.00  0.00    +0.000 A 
ATOM     14  C   UNL     1      -7.958  -3.018 127.490  0.00  0.00    +0.000 A 
ATOM     15  F   UNL     1      -8.148  -4.292 127.871  0.00  0.00    +0.000 F 
ATOM     16  C   UNL     1      -7.255  -2.133 128.328  0.00  0.00    +0.000 A 
ENDROOT
BRANCH  16  17
ATOM     17  N   UNL     1      -6.896  -2.528 129.618  0.00  0.00    +0.000 N 
ATOM     18  C   UNL     1      -7.888  -2.750 130.687  0.00  0.00    +0.000 C 
ATOM     19  C   UNL     1      -7.188  -2.616 132.075  0.00  0.00    +0.000 C 
ATOM     20  N   UNL     1      -6.010  -3.515 132.192  0.00  0.00    +0.000 NA
ATOM     21  C   UNL     1      -5.372  -3.403 133.496  0.00  0.00    +0.000 C 
ATOM     22  C   UNL     1      -5.053  -3.139 131.132  0.00  0.00    +0.000 C 
ATOM     23  C   UNL     1      -5.670  -3.328 129.745  0.00  0.00    +0.000 C 
ENDBRANCH  16  17
BRANCH   9  24
ATOM     24  C   UNL     1      -9.581   1.163 123.002  0.00  0.00    +0.000 C 
ATOM     25  O   UNL     1      -9.197   2.175 122.434  0.00  0.00    +0.000 OA
BRANCH  24  26
ATOM     26  O   UNL     1     -10.615   0.463 122.482  0.00  0.00    +0.000 OA
ATOM     27  H   UNL     1     -10.709  -0.481 122.676  0.00  0.00    +0.000 HD
ENDBRANCH  24  26
ENDBRANCH   9  24
TORSDOF 3
ENDMDL
MODEL 7
REMARK VINA RESULT:      -6.6      3.803      8.252
REMARK  Name = Levofloxacin
REMARK  5 active torsions:
REMARK  status: ('A' for Active; 'I' for Inactive)
REMARK    1  A    between atoms: C_1  and  C_2
REMARK    2  A    between atoms: C_9  and  C_10
REMARK    3  A    between atoms: C_10  and  O_11
REMARK    4  A    between atoms: C_19  and  N_20
REMARK    5  A    between atoms: N_23  and  C_24
REMARK                            x       y       z     vdW  Elec       q    Type
REMARK                         _______ _______ _______ _____ _____    ______ ____
ROOT
ATOM      1  C   UNL     1      -6.502   2.881 129.938  0.00  0.00    +0.000 C 
ATOM      2  C   UNL     1      -5.166   2.848 129.192  0.00  0.00    +0.000 C 
ATOM      3  C   UNL     1      -4.268   1.714 129.673  0.00  0.00    +0.000 C 
ATOM      4  O   UNL     1      -4.889   0.450 129.461  0.00  0.00    +0.000 OA
ATOM      5  C   UNL     1      -5.291   0.250 128.150  0.00  0.00    +0.000 A 
ATOM      6  C   UNL     1      -5.512   1.354 127.294  0.00  0.00    +0.000 A 
ATOM      7  N   UNL     1      -5.400   2.686 127.749  0.00  0.00    +0.000 N 
ATOM      8  C   UNL     1      -5.612   3.735 126.881  0.00  0.00    +0.000 A 
ATOM      9  C   UNL     1      -5.930   3.647 125.579  0.00  0.00    +0.000 A 
ATOM     10  C   UNL     1      -6.112   2.252 125.049  0.00  0.00    +0.000 A 
ATOM     11  O   UNL     1      -6.448   2.016 123.894  0.00  0.00    +0.000 OA
ATOM     12  C   UNL     1      -5.878   1.105 125.967  0.00  0.00    +0.000 A 
ATOM     13  C   UNL     1      -6.031  -0.207 125.508  0.00  0.00    +0.000 A 
ATOM     14  C   UNL     1      -5.839  -1.279 126.383  0.00  0.00    +0.000 A 
ATOM     15  F   UNL     1      -6.074  -2.516 125.918  0.00  0.00    +0.000 F 
ATOM     16  C   UNL     1      -5.507  -1.090 127.737  0.00  0.00    +0.000 A 
ENDROOT
BRANCH  16  17
ATOM     17  N   UNL     1      -5.578  -2.159 128.631  0.00  0.00    +0.000 N 
ATOM     18  C   UNL     1      -6.843  -2.850 128.945  0.00  0.00    +0.000 C 
ATOM     19  C   UNL     1      -6.710  -3.564 130.326  0.00  0.00    +0.000 C 
ATOM     20  N   UNL     1      -5.536  -4.474 130.370  0.00  0.00    +0.000 NA
ATOM     21  C   UNL     1      -5.427  -5.155 131.652  0.00  0.00    +0.000 C 
ATOM     22  C   UNL     1      -4.329  -3.658 130.132  0.00  0.00    +0.000 C 
ATOM     23  C   UNL     1      -4.377  -2.997 128.753  0.00  0.00    +0.000 C 
ENDBRANCH  16  17
BRANCH   9  24
ATOM     24  C   UNL     1      -6.097   4.834 124.704  0.00  0.00    +0.000 C 
ATOM     25  O   UNL     1      -6.338   5.959 125.122  0.00  0.00    +0.000 OA
BRANCH  24  26
ATOM     26  O   UNL     1      -5.987   4.633 123.371  0.00  0.00    +0.000 OA
ATOM     27  H   UNL     1      -6.220   3.775 122.989  0.00  0.00    +0.000 HD
ENDBRANCH  24  26
ENDBRANCH   9  24
TORSDOF 3
ENDMDL
MODEL 8
REMARK VINA RESULT:      -6.5      3.925      6.860
REMARK  Name = Levofloxacin
REMARK  5 active torsions:
REMARK  status: ('A' for Active; 'I' for Inactive)
REMARK    1  A    between atoms: C_1  and  C_2
REMARK    2  A    between atoms: C_9  and  C_10
REMARK    3  A    between atoms: C_10  and  O_11
REMARK    4  A    between atoms: C_19  and  N_20
REMARK    5  A    between atoms: N_23  and  C_24
REMARK                            x       y       z     vdW  Elec       q    Type
REMARK                         _______ _______ _______ _____ _____    ______ ____
ROOT
ATOM      1  C   UNL     1      -5.688   4.173 123.538  0.00  0.00    +0.000 C 
ATOM      2  C   UNL     1      -6.536   4.526 124.763  0.00  0.00    +0.000 C 
ATOM      3  C   UNL     1      -7.769   3.638 124.882  0.00  0.00    +0.000 C 
ATOM      4  O   UNL     1      -7.398   2.270 125.020  0.00  0.00    +0.000 OA
ATOM      5  C   UNL     1      -6.514   2.045 126.062  0.00  0.00    +0.000 A 
ATOM      6  C   UNL     1      -5.714   3.098 126.563  0.00  0.00    +0.000 A 
ATOM      7  N   UNL     1      -5.733   4.388 125.987  0.00  0.00    +0.000 N 
ATOM      8  C   UNL     1      -4.948   5.392 126.510  0.00  0.00    +0.000 A 
ATOM      9  C   UNL     1      -4.117   5.295 127.563  0.00  0.00    +0.000 A 
ATOM     10  C   UNL     1      -4.019   3.932 128.187  0.00  0.00    +0.000 A 
ATOM     11  O   UNL     1      -3.268   3.679 129.123  0.00  0.00    +0.000 OA
ATOM     12  C   UNL     1      -4.865   2.835 127.644  0.00  0.00    +0.000 A 
ATOM     13  C   UNL     1      -4.805   1.555 128.203  0.00  0.00    +0.000 A 
ATOM     14  C   UNL     1      -5.581   0.524 127.668  0.00  0.00    +0.000 A 
ATOM     15  F   UNL     1      -5.431  -0.705 128.187  0.00  0.00    +0.000 F 
ATOM     16  C   UNL     1      -6.424   0.719 126.560  0.00  0.00    +0.000 A 
ENDROOT
BRANCH  16  17
ATOM     17  N   UNL     1      -6.978  -0.380 125.900  0.00  0.00    +0.000 N 
ATOM     18  C   UNL     1      -6.188  -1.259 125.017  0.00  0.00    +0.000 C 
ATOM     19  C   UNL     1      -7.146  -1.992 124.029  0.00  0.00    +0.000 C 
ATOM     20  N   UNL     1      -8.227  -2.721 124.741  0.00  0.00    +0.000 NA
ATOM     21  C   UNL     1      -9.107  -3.422 123.818  0.00  0.00    +0.000 C 
ATOM     22  C   UNL     1      -9.001  -1.729 125.515  0.00  0.00    +0.000 C 
ATOM     23  C   UNL     1      -8.118  -1.036 126.555  0.00  0.00    +0.000 C 
ENDBRANCH  16  17
BRANCH   9  24
ATOM     24  C   UNL     1      -3.339   6.445 128.088  0.00  0.00    +0.000 C 
ATOM     25  O   UNL     1      -3.846   7.485 128.484  0.00  0.00    +0.000 OA
BRANCH  24  26
ATOM     26  O   UNL     1      -1.993   6.315 128.106  0.00  0.00    +0.000 OA
ATOM     27  H   UNL     1      -1.439   7.044 128.422  0.00  0.00    +0.000 HD
ENDBRANCH  24  26
ENDBRANCH   9  24
TORSDOF 3
ENDMDL
MODEL 9
REMARK VINA RESULT:      -6.4      3.660      5.748
REMARK  Name = Levofloxacin
REMARK  5 active torsions:
REMARK  status: ('A' for Active; 'I' for Inactive)
REMARK    1  A    between atoms: C_1  and  C_2
REMARK    2  A    between atoms: C_9  and  C_10
REMARK    3  A    between atoms: C_10  and  O_11
REMARK    4  A    between atoms: C_19  and  N_20
REMARK    5  A    between atoms: N_23  and  C_24
REMARK                            x       y       z     vdW  Elec       q    Type
REMARK                         _______ _______ _______ _____ _____    ______ ____
ROOT
ATOM      1  C   UNL     1      -9.034   2.472 124.095  0.00  0.00    +0.000 C 
ATOM      2  C   UNL     1      -7.702   1.719 124.119  0.00  0.00    +0.000 C 
ATOM      3  C   UNL     1      -6.583   2.554 124.731  0.00  0.00    +0.000 C 
ATOM      4  O   UNL     1      -6.885   2.898 126.079  0.00  0.00    +0.000 OA
ATOM      5  C   UNL     1      -7.184   1.801 126.871  0.00  0.00    +0.000 A 
ATOM      6  C   UNL     1      -7.625   0.593 126.283  0.00  0.00    +0.000 A 
ATOM      7  N   UNL     1      -7.841   0.475 124.892  0.00  0.00    +0.000 N 
ATOM      8  C   UNL     1      -8.260  -0.722 124.355  0.00  0.00    +0.000 A 
ATOM      9  C   UNL     1      -8.503  -1.861 125.025  0.00  0.00    +0.000 A 
ATOM     10  C   UNL     1      -8.337  -1.783 126.516  0.00  0.00    +0.000 A 
ATOM     11  O   UNL     1      -8.568  -2.727 127.264  0.00  0.00    +0.000 OA
ATOM     12  C   UNL     1      -7.875  -0.502 127.116  0.00  0.00    +0.000 A 
ATOM     13  C   UNL     1      -7.704  -0.393 128.500  0.00  0.00    +0.000 A 
ATOM     14  C   UNL     1      -7.299   0.821 129.059  0.00  0.00    +0.000 A 
ATOM     15  F   UNL     1      -7.223   0.900 130.397  0.00  0.00    +0.000 F 
ATOM     16  C   UNL     1      -7.068   1.966 128.275  0.00  0.00    +0.000 A 
ENDROOT
BRANCH  16  17
ATOM     17  N   UNL     1      -6.920   3.213 128.885  0.00  0.00    +0.000 N 
ATOM     18  C   UNL     1      -5.649   3.962 128.865  0.00  0.00    +0.000 C 
ATOM     19  C   UNL     1      -5.629   4.974 130.051  0.00  0.00    +0.000 C 
ATOM     20  N   UNL     1      -6.817   5.865 130.041  0.00  0.00    +0.000 NA
ATOM     21  C   UNL     1      -6.785   6.823 131.137  0.00  0.00    +0.000 C 
ATOM     22  C   UNL     1      -8.017   5.013 130.156  0.00  0.00    +0.000 C 
ATOM     23  C   UNL     1      -8.123   4.052 128.970  0.00  0.00    +0.000 C 
ENDBRANCH  16  17
BRANCH   9  24
ATOM     24  C   UNL     1      -8.910  -3.122 124.357  0.00  0.00    +0.000 C 
ATOM     25  O   UNL     1      -9.830  -3.201 123.554  0.00  0.00    +0.000 OA
BRANCH  24  26
ATOM     26  O   UNL     1      -8.217  -4.238 124.682  0.00  0.00    +0.000 OA
ATOM     27  H   UNL     1      -8.346  -5.053 124.176  0.00  0.00    +0.000 HD
ENDBRANCH  24  26
ENDBRANCH   9  24
TORSDOF 3
ENDMDL
