MODEL 1
REMARK VINA RESULT:      -6.2      0.000      0.000
REMARK  Name = Levosalbutamol
REMARK  11 active torsions:
REMARK  status: ('A' for Active; 'I' for Inactive)
REMARK    1  A    between atoms: C_1  and  C_2
REMARK    2  A    between atoms: C_2  and  C_3
REMARK    3  A    between atoms: C_2  and  C_4
REMARK    4  A    between atoms: C_2  and  N_5
REMARK    5  A    between atoms: N_5  and  C_6
REMARK    6  A    between atoms: C_6  and  C_7
REMARK    7  A    between atoms: C_7  and  O_8
REMARK    8  A    between atoms: C_7  and  C_9
REMARK    9  A    between atoms: C_11  and  C_12
REMARK   10  A    between atoms: C_12  and  O_13
REMARK   11  A    between atoms: C_14  and  O_15
REMARK                            x       y       z     vdW  Elec       q    Type
REMARK                         _______ _______ _______ _____ _____    ______ ____
ROOT
ATOM      1  C   UNL     1      -8.021   3.155 122.464  0.00  0.00    +0.000 A 
ATOM      2  C   UNL     1      -6.687   3.542 122.318  0.00  0.00    +0.000 A 
ATOM      3  C   UNL     1      -6.219   4.115 121.127  0.00  0.00    +0.000 A 
ATOM      4  C   UNL     1      -7.124   4.258 120.076  0.00  0.00    +0.000 A 
ATOM      5  C   UNL     1      -8.451   3.861 120.191  0.00  0.00    +0.000 A 
ATOM      6  C   UNL     1      -8.902   3.312 121.391  0.00  0.00    +0.000 A 
ENDROOT
BRANCH   4   7
ATOM      7  O   UNL     1      -6.765   4.795 118.870  0.00  0.00    +0.000 OA
ATOM      8  H   UNL     1      -6.919   5.758 118.937  0.00  0.00    +0.000 HD
ENDBRANCH   4   7
BRANCH   1   9
ATOM      9  C   UNL     1      -8.512   2.530 123.736  0.00  0.00    +0.000 C 
BRANCH   9  10
ATOM     10  O   UNL     1      -8.965   3.542 124.635  0.00  0.00    +0.000 OA
ATOM     11  H   UNL     1      -9.319   3.097 125.419  0.00  0.00    +0.000 HD
ENDBRANCH   9  10
BRANCH   9  12
ATOM     12  C   UNL     1      -9.543   1.386 123.621  0.00  0.00    +0.000 C 
BRANCH  12  13
ATOM     13  N   UNL     1      -9.360   0.135 122.844  0.00  0.00    +0.000 NA
ATOM     14  H   UNL     1     -10.245  -0.263 122.541  0.00  0.00    +0.000 HD
BRANCH  13  16
ATOM     15  C   UNL     1      -9.062  -2.300 123.232  0.00  0.00    +0.000 C 
ATOM     16  C   UNL     1      -8.621  -0.881 123.642  0.00  0.00    +0.000 C 
ATOM     17  C   UNL     1      -8.961  -0.710 125.138  0.00  0.00    +0.000 C 
ATOM     18  C   UNL     1      -7.100  -0.776 123.413  0.00  0.00    +0.000 C 
ENDBRANCH  13  16
ENDBRANCH  12  13
ENDBRANCH   9  12
ENDBRANCH   1   9
BRANCH   3  19
ATOM     19  C   UNL     1      -4.776   4.536 121.107  0.00  0.00    +0.000 C 
BRANCH  19  20
ATOM     20  O   UNL     1      -4.634   5.875 120.650  0.00  0.00    +0.000 OA
ATOM     21  H   UNL     1      -4.367   6.383 121.440  0.00  0.00    +0.000 HD
ENDBRANCH  19  20
ENDBRANCH   3  19
TORSDOF 8
ENDMDL
MODEL 2
REMARK VINA RESULT:      -6.1      7.846      9.508
REMARK  Name = Levosalbutamol
REMARK  11 active torsions:
REMARK  status: ('A' for Active; 'I' for Inactive)
REMARK    1  A    between atoms: C_1  and  C_2
REMARK    2  A    between atoms: C_2  and  C_3
REMARK    3  A    between atoms: C_2  and  C_4
REMARK    4  A    between atoms: C_2  and  N_5
REMARK    5  A    between atoms: N_5  and  C_6
REMARK    6  A    between atoms: C_6  and  C_7
REMARK    7  A    between atoms: C_7  and  O_8
REMARK    8  A    between atoms: C_7  and  C_9
REMARK    9  A    between atoms: C_11  and  C_12
REMARK   10  A    between atoms: C_12  and  O_13
REMARK   11  A    between atoms: C_14  and  O_15
REMARK                            x       y       z     vdW  Elec       q    Type
REMARK                         _______ _______ _______ _____ _____    ______ ____
ROOT
ATOM      1  C   UNL     1     -10.621   6.773 130.774  0.00  0.00    +0.000 A 
ATOM      2  C   UNL     1     -10.334   6.975 129.422  0.00  0.00    +0.000 A 
ATOM      3  C   UNL     1     -11.338   7.320 128.506  0.00  0.00    +0.000 A 
ATOM      4  C   UNL     1     -12.644   7.424 128.983  0.00  0.00    +0.000 A 
ATOM      5  C   UNL     1     -12.957   7.207 130.321  0.00  0.00    +0.000 A 
ATOM      6  C   UNL     1     -11.941   6.885 131.219  0.00  0.00    +0.000 A 
ENDROOT
BRANCH   4   7
ATOM      7  O   UNL     1     -13.697   7.744 128.169  0.00  0.00    +0.000 OA
ATOM      8  H   UNL     1     -14.300   6.976 128.178  0.00  0.00    +0.000 HD
ENDBRANCH   4   7
BRANCH   1   9
ATOM      9  C   UNL     1      -9.545   6.391 131.746  0.00  0.00    +0.000 C 
BRANCH   9  10
ATOM     10  O   UNL     1     -10.047   6.451 133.081  0.00  0.00    +0.000 OA
ATOM     11  H   UNL     1     -10.513   7.294 133.179  0.00  0.00    +0.000 HD
ENDBRANCH   9  10
BRANCH   9  12
ATOM     12  C   UNL     1      -8.790   5.068 131.495  0.00  0.00    +0.000 C 
BRANCH  12  13
ATOM     13  N   UNL     1      -9.078   3.771 132.155  0.00  0.00    +0.000 NA
ATOM     14  H   UNL     1      -8.267   3.397 132.639  0.00  0.00    +0.000 HD
BRANCH  13  16
ATOM     15  C   UNL     1     -10.885   3.234 130.538  0.00  0.00    +0.000 C 
ATOM     16  C   UNL     1      -9.557   2.767 131.166  0.00  0.00    +0.000 C 
ATOM     17  C   UNL     1      -9.837   1.429 131.884  0.00  0.00    +0.000 C 
ATOM     18  C   UNL     1      -8.539   2.572 130.026  0.00  0.00    +0.000 C 
ENDBRANCH  13  16
ENDBRANCH  12  13
ENDBRANCH   9  12
ENDBRANCH   1   9
BRANCH   3  19
ATOM     19  C   UNL     1     -10.899   7.559 127.088  0.00  0.00    +0.000 C 
BRANCH  19  20
ATOM     20  O   UNL     1     -11.615   6.732 126.180  0.00  0.00    +0.000 OA
ATOM     21  H   UNL     1     -11.035   5.960 126.032  0.00  0.00    +0.000 HD
ENDBRANCH  19  20
ENDBRANCH   3  19
TORSDOF 8
ENDMDL
MODEL 3
REMARK VINA RESULT:      -5.9      8.521     10.167
REMARK  Name = Levosalbutamol
REMARK  11 active torsions:
REMARK  status: ('A' for Active; 'I' for Inactive)
REMARK    1  A    between atoms: C_1  and  C_2
REMARK    2  A    between atoms: C_2  and  C_3
REMARK    3  A    between atoms: C_2  and  C_4
REMARK    4  A    between atoms: C_2  and  N_5
REMARK    5  A    between atoms: N_5  and  C_6
REMARK    6  A    between atoms: C_6  and  C_7
REMARK    7  A    between atoms: C_7  and  O_8
REMARK    8  A    between atoms: C_7  and  C_9
REMARK    9  A    between atoms: C_11  and  C_12
REMARK   10  A    between atoms: C_12  and  O_13
REMARK   11  A    between atoms: C_14  and  O_15
REMARK                            x       y       z     vdW  Elec       q    Type
REMARK                         _______ _______ _______ _____ _____    ______ ____
ROOT
ATOM      1  C   UNL     1     -11.608   6.411 130.397  0.00  0.00    +0.000 A 
ATOM      2  C   UNL     1     -11.218   6.653 129.077  0.00  0.00    +0.000 A 
ATOM      3  C   UNL     1     -11.635   7.802 128.391  0.00  0.00    +0.000 A 
ATOM      4  C   UNL     1     -12.483   8.685 129.059  0.00  0.00    +0.000 A 
ATOM      5  C   UNL     1     -12.901   8.455 130.365  0.00  0.00    +0.000 A 
ATOM      6  C   UNL     1     -12.458   7.316 131.037  0.00  0.00    +0.000 A 
ENDROOT
BRANCH   4   7
ATOM      7  O   UNL     1     -12.955   9.829 128.475  0.00  0.00    +0.000 OA
ATOM      8  H   UNL     1     -13.352  10.364 129.190  0.00  0.00    +0.000 HD
ENDBRANCH   4   7
BRANCH   1   9
ATOM      9  C   UNL     1     -11.169   5.173 131.120  0.00  0.00    +0.000 C 
BRANCH   9  10
ATOM     10  O   UNL     1     -11.058   4.084 130.204  0.00  0.00    +0.000 OA
ATOM     11  H   UNL     1     -11.041   3.267 130.723  0.00  0.00    +0.000 HD
ENDBRANCH   9  10
BRANCH   9  12
ATOM     12  C   UNL     1      -9.917   5.274 132.018  0.00  0.00    +0.000 C 
BRANCH  12  13
ATOM     13  N   UNL     1      -8.968   6.414 132.049  0.00  0.00    +0.000 NA
ATOM     14  H   UNL     1      -9.197   7.125 131.360  0.00  0.00    +0.000 HD
BRANCH  13  16
ATOM     15  C   UNL     1      -6.870   5.693 133.166  0.00  0.00    +0.000 C 
ATOM     16  C   UNL     1      -7.573   5.949 131.818  0.00  0.00    +0.000 C 
ATOM     17  C   UNL     1      -6.776   7.051 131.088  0.00  0.00    +0.000 C 
ATOM     18  C   UNL     1      -7.545   4.633 131.015  0.00  0.00    +0.000 C 
ENDBRANCH  13  16
ENDBRANCH  12  13
ENDBRANCH   9  12
ENDBRANCH   1   9
BRANCH   3  19
ATOM     19  C   UNL     1     -11.110   7.977 126.993  0.00  0.00    +0.000 C 
BRANCH  19  20
ATOM     20  O   UNL     1     -11.418   6.851 126.182  0.00  0.00    +0.000 OA
ATOM     21  H   UNL     1     -12.125   6.380 126.664  0.00  0.00    +0.000 HD
ENDBRANCH  19  20
ENDBRANCH   3  19
TORSDOF 8
ENDMDL
MODEL 4
REMARK VINA RESULT:      -5.8      2.522      4.516
REMARK  Name = Levosalbutamol
REMARK  11 active torsions:
REMARK  status: ('A' for Active; 'I' for Inactive)
REMARK    1  A    between atoms: C_1  and  C_2
REMARK    2  A    between atoms: C_2  and  C_3
REMARK    3  A    between atoms: C_2  and  C_4
REMARK    4  A    between atoms: C_2  and  N_5
REMARK    5  A    between atoms: N_5  and  C_6
REMARK    6  A    between atoms: C_6  and  C_7
REMARK    7  A    between atoms: C_7  and  O_8
REMARK    8  A    between atoms: C_7  and  C_9
REMARK    9  A    between atoms: C_11  and  C_12
REMARK   10  A    between atoms: C_12  and  O_13
REMARK   11  A    between atoms: C_14  and  O_15
REMARK                            x       y       z     vdW  Elec       q    Type
REMARK                         _______ _______ _______ _____ _____    ______ ____
ROOT
ATOM      1  C   UNL     1      -8.888   0.078 124.718  0.00  0.00    +0.000 A 
ATOM      2  C   UNL     1      -8.990   0.781 123.515  0.00  0.00    +0.000 A 
ATOM      3  C   UNL     1      -8.789   2.167 123.460  0.00  0.00    +0.000 A 
ATOM      4  C   UNL     1      -8.515   2.832 124.656  0.00  0.00    +0.000 A 
ATOM      5  C   UNL     1      -8.430   2.155 125.868  0.00  0.00    +0.000 A 
ATOM      6  C   UNL     1      -8.612   0.774 125.898  0.00  0.00    +0.000 A 
ENDROOT
BRANCH   4   7
ATOM      7  O   UNL     1      -8.315   4.184 124.712  0.00  0.00    +0.000 OA
ATOM      8  H   UNL     1      -9.175   4.602 124.511  0.00  0.00    +0.000 HD
ENDBRANCH   4   7
BRANCH   1   9
ATOM      9  C   UNL     1      -9.117  -1.403 124.772  0.00  0.00    +0.000 C 
BRANCH   9  10
ATOM     10  O   UNL     1      -9.652  -1.861 123.530  0.00  0.00    +0.000 OA
ATOM     11  H   UNL     1      -9.292  -2.745 123.365  0.00  0.00    +0.000 HD
ENDBRANCH   9  10
BRANCH   9  12
ATOM     12  C   UNL     1      -7.942  -2.293 125.233  0.00  0.00    +0.000 C 
BRANCH  12  13
ATOM     13  N   UNL     1      -7.179  -3.229 124.371  0.00  0.00    +0.000 NA
ATOM     14  H   UNL     1      -6.928  -4.084 124.860  0.00  0.00    +0.000 HD
BRANCH  13  16
ATOM     15  C   UNL     1      -5.467  -1.489 124.831  0.00  0.00    +0.000 C 
ATOM     16  C   UNL     1      -5.940  -2.585 123.855  0.00  0.00    +0.000 C 
ATOM     17  C   UNL     1      -6.240  -1.898 122.506  0.00  0.00    +0.000 C 
ATOM     18  C   UNL     1      -4.796  -3.607 123.704  0.00  0.00    +0.000 C 
ENDBRANCH  13  16
ENDBRANCH  12  13
ENDBRANCH   9  12
ENDBRANCH   1   9
BRANCH   3  19
ATOM     19  C   UNL     1      -8.876   2.805 122.102  0.00  0.00    +0.000 C 
BRANCH  19  20
ATOM     20  O   UNL     1      -7.806   3.717 121.890  0.00  0.00    +0.000 OA
ATOM     21  H   UNL     1      -8.110   4.558 122.282  0.00  0.00    +0.000 HD
ENDBRANCH  19  20
ENDBRANCH   3  19
TORSDOF 8
ENDMDL
MODEL 5
REMARK VINA RESULT:      -5.7      9.780     10.745
REMARK  Name = Levosalbutamol
REMARK  11 active torsions:
REMARK  status: ('A' for Active; 'I' for Inactive)
REMARK    1  A    between atoms: C_1  and  C_2
REMARK    2  A    between atoms: C_2  and  C_3
REMARK    3  A    between atoms: C_2  and  C_4
REMARK    4  A    between atoms: C_2  and  N_5
REMARK    5  A    between atoms: N_5  and  C_6
REMARK    6  A    between atoms: C_6  and  C_7
REMARK    7  A    between atoms: C_7  and  O_8
REMARK    8  A    between atoms: C_7  and  C_9
REMARK    9  A    between atoms: C_11  and  C_12
REMARK   10  A    between atoms: C_12  and  O_13
REMARK   11  A    between atoms: C_14  and  O_15
REMARK                            x       y       z     vdW  Elec       q    Type
REMARK                         _______ _______ _______ _____ _____    ______ ____
ROOT
ATOM      1  C   UNL     1      -9.254   6.648 130.836  0.00  0.00    +0.000 A 
ATOM      2  C   UNL     1      -9.793   7.347 129.752  0.00  0.00    +0.000 A 
ATOM      3  C   UNL     1     -11.162   7.639 129.679  0.00  0.00    +0.000 A 
ATOM      4  C   UNL     1     -11.980   7.179 130.711  0.00  0.00    +0.000 A 
ATOM      5  C   UNL     1     -11.469   6.463 131.789  0.00  0.00    +0.000 A 
ATOM      6  C   UNL     1     -10.102   6.202 131.853  0.00  0.00    +0.000 A 
ENDROOT
BRANCH   4   7
ATOM      7  O   UNL     1     -13.330   7.401 130.729  0.00  0.00    +0.000 OA
ATOM      8  H   UNL     1     -13.489   8.194 130.180  0.00  0.00    +0.000 HD
ENDBRANCH   4   7
BRANCH   1   9
ATOM      9  C   UNL     1      -7.791   6.328 130.901  0.00  0.00    +0.000 C 
BRANCH   9  10
ATOM     10  O   UNL     1      -7.021   7.513 130.699  0.00  0.00    +0.000 OA
ATOM     11  H   UNL     1      -7.640   8.255 130.639  0.00  0.00    +0.000 HD
ENDBRANCH   9  10
BRANCH   9  12
ATOM     12  C   UNL     1      -7.284   5.538 132.127  0.00  0.00    +0.000 C 
BRANCH  12  13
ATOM     13  N   UNL     1      -7.214   4.060 132.232  0.00  0.00    +0.000 NA
ATOM     14  H   UNL     1      -7.701   3.596 131.470  0.00  0.00    +0.000 HD
BRANCH  13  16
ATOM     15  C   UNL     1      -6.854   2.537 134.161  0.00  0.00    +0.000 C 
ATOM     16  C   UNL     1      -7.781   3.592 133.526  0.00  0.00    +0.000 C 
ATOM     17  C   UNL     1      -9.144   2.911 133.275  0.00  0.00    +0.000 C 
ATOM     18  C   UNL     1      -7.929   4.754 134.527  0.00  0.00    +0.000 C 
ENDBRANCH  13  16
ENDBRANCH  12  13
ENDBRANCH   9  12
ENDBRANCH   1   9
BRANCH   3  19
ATOM     19  C   UNL     1     -11.616   8.439 128.490  0.00  0.00    +0.000 C 
BRANCH  19  20
ATOM     20  O   UNL     1     -12.429   9.536 128.885  0.00  0.00    +0.000 OA
ATOM     21  H   UNL     1     -13.184   9.132 129.356  0.00  0.00    +0.000 HD
ENDBRANCH  19  20
ENDBRANCH   3  19
TORSDOF 8
ENDMDL
MODEL 6
REMARK VINA RESULT:      -5.6      9.202     10.367
REMARK  Name = Levosalbutamol
REMARK  11 active torsions:
REMARK  status: ('A' for Active; 'I' for Inactive)
REMARK    1  A    between atoms: C_1  and  C_2
REMARK    2  A    between atoms: C_2  and  C_3
REMARK    3  A    between atoms: C_2  and  C_4
REMARK    4  A    between atoms: C_2  and  N_5
REMARK    5  A    between atoms: N_5  and  C_6
REMARK    6  A    between atoms: C_6  and  C_7
REMARK    7  A    between atoms: C_7  and  O_8
REMARK    8  A    between atoms: C_7  and  C_9
REMARK    9  A    between atoms: C_11  and  C_12
REMARK   10  A    between atoms: C_12  and  O_13
REMARK   11  A    between atoms: C_14  and  O_15
REMARK                            x       y       z     vdW  Elec       q    Type
REMARK                         _______ _______ _______ _____ _____    ______ ____
ROOT
ATOM      1  C   UNL     1      -8.686   5.632 132.507  0.00  0.00    +0.000 A 
ATOM      2  C   UNL     1     -10.021   5.699 132.100  0.00  0.00    +0.000 A 
ATOM      3  C   UNL     1     -10.405   6.443 130.976  0.00  0.00    +0.000 A 
ATOM      4  C   UNL     1      -9.413   7.145 130.292  0.00  0.00    +0.000 A 
ATOM      5  C   UNL     1      -8.082   7.110 130.690  0.00  0.00    +0.000 A 
ATOM      6  C   UNL     1      -7.717   6.347 131.798  0.00  0.00    +0.000 A 
ENDROOT
BRANCH   4   7
ATOM      7  O   UNL     1      -9.686   7.909 129.189  0.00  0.00    +0.000 OA
ATOM      8  H   UNL     1      -9.289   7.447 128.425  0.00  0.00    +0.000 HD
ENDBRANCH   4   7
BRANCH   1   9
ATOM      9  C   UNL     1      -8.283   4.845 133.718  0.00  0.00    +0.000 C 
BRANCH   9  10
ATOM     10  O   UNL     1      -8.576   5.586 134.903  0.00  0.00    +0.000 OA
ATOM     11  H   UNL     1      -9.521   5.483 135.085  0.00  0.00    +0.000 HD
ENDBRANCH   9  10
BRANCH   9  12
ATOM     12  C   UNL     1      -8.794   3.392 133.830  0.00  0.00    +0.000 C 
BRANCH  12  13
ATOM     13  N   UNL     1      -8.032   2.178 133.447  0.00  0.00    +0.000 NA
ATOM     14  H   UNL     1      -7.033   2.352 133.391  0.00  0.00    +0.000 HD
BRANCH  13  16
ATOM     15  C   UNL     1     -10.011   1.922 131.968  0.00  0.00    +0.000 C 
ATOM     16  C   UNL     1      -8.505   1.646 132.140  0.00  0.00    +0.000 C 
ATOM     17  C   UNL     1      -8.314   0.114 132.107  0.00  0.00    +0.000 C 
ATOM     18  C   UNL     1      -7.766   2.312 130.962  0.00  0.00    +0.000 C 
ENDBRANCH  13  16
ENDBRANCH  12  13
ENDBRANCH   9  12
ENDBRANCH   1   9
BRANCH   3  19
ATOM     19  C   UNL     1     -11.862   6.400 130.609  0.00  0.00    +0.000 C 
BRANCH  19  20
ATOM     20  O   UNL     1     -12.046   5.921 129.282  0.00  0.00    +0.000 OA
ATOM     21  H   UNL     1     -11.155   5.650 128.987  0.00  0.00    +0.000 HD
ENDBRANCH  19  20
ENDBRANCH   3  19
TORSDOF 8
ENDMDL
MODEL 7
REMARK VINA RESULT:      -5.6      9.406     10.912
REMARK  Name = Levosalbutamol
REMARK  11 active torsions:
REMARK  status: ('A' for Active; 'I' for Inactive)
REMARK    1  A    between atoms: C_1  and  C_2
REMARK    2  A    between atoms: C_2  and  C_3
REMARK    3  A    between atoms: C_2  and  C_4
REMARK    4  A    between atoms: C_2  and  N_5
REMARK    5  A    between atoms: N_5  and  C_6
REMARK    6  A    between atoms: C_6  and  C_7
REMARK    7  A    between atoms: C_7  and  O_8
REMARK    8  A    between atoms: C_7  and  C_9
REMARK    9  A    between atoms: C_11  and  C_12
REMARK   10  A    between atoms: C_12  and  O_13
REMARK   11  A    between atoms: C_14  and  O_15
REMARK                            x       y       z     vdW  Elec       q    Type
REMARK                         _______ _______ _______ _____ _____    ______ ____
ROOT
ATOM      1  C   UNL     1      -7.818   6.500 131.646  0.00  0.00    +0.000 A 
ATOM      2  C   UNL     1      -8.624   6.927 130.588  0.00  0.00    +0.000 A 
ATOM      3  C   UNL     1     -10.020   6.808 130.639  0.00  0.00    +0.000 A 
ATOM      4  C   UNL     1     -10.580   6.215 131.771  0.00  0.00    +0.000 A 
ATOM      5  C   UNL     1      -9.796   5.763 132.827  0.00  0.00    +0.000 A 
ATOM      6  C   UNL     1      -8.411   5.911 132.765  0.00  0.00    +0.000 A 
ENDROOT
BRANCH   4   7
ATOM      7  O   UNL     1     -11.930   6.041 131.913  0.00  0.00    +0.000 OA
ATOM      8  H   UNL     1     -12.066   5.623 132.786  0.00  0.00    +0.000 HD
ENDBRANCH   4   7
BRANCH   1   9
ATOM      9  C   UNL     1      -6.325   6.619 131.579  0.00  0.00    +0.000 C 
BRANCH   9  10
ATOM     10  O   UNL     1      -5.744   6.191 132.811  0.00  0.00    +0.000 OA
ATOM     11  H   UNL     1      -6.158   5.349 133.051  0.00  0.00    +0.000 HD
ENDBRANCH   9  10
BRANCH   9  12
ATOM     12  C   UNL     1      -5.608   5.975 130.373  0.00  0.00    +0.000 C 
BRANCH  12  13
ATOM     13  N   UNL     1      -4.626   6.652 129.490  0.00  0.00    +0.000 NA
ATOM     14  H   UNL     1      -4.776   6.434 128.509  0.00  0.00    +0.000 HD
BRANCH  13  16
ATOM     15  C   UNL     1      -3.180   4.803 130.302  0.00  0.00    +0.000 C 
ATOM     16  C   UNL     1      -3.233   6.279 129.862  0.00  0.00    +0.000 C 
ATOM     17  C   UNL     1      -2.775   7.131 131.064  0.00  0.00    +0.000 C 
ATOM     18  C   UNL     1      -2.270   6.451 128.671  0.00  0.00    +0.000 C 
ENDBRANCH  13  16
ENDBRANCH  12  13
ENDBRANCH   9  12
ENDBRANCH   1   9
BRANCH   3  19
ATOM     19  C   UNL     1     -10.784   7.347 129.462  0.00  0.00    +0.000 C 
BRANCH  19  20
ATOM     20  O   UNL     1     -11.589   6.340 128.863  0.00  0.00    +0.000 OA
ATOM     21  H   UNL     1     -11.716   5.670 129.563  0.00  0.00    +0.000 HD
ENDBRANCH  19  20
ENDBRANCH   3  19
TORSDOF 8
ENDMDL
MODEL 8
REMARK VINA RESULT:      -5.3      2.466      3.499
REMARK  Name = Levosalbutamol
REMARK  11 active torsions:
REMARK  status: ('A' for Active; 'I' for Inactive)
REMARK    1  A    between atoms: C_1  and  C_2
REMARK    2  A    between atoms: C_2  and  C_3
REMARK    3  A    between atoms: C_2  and  C_4
REMARK    4  A    between atoms: C_2  and  N_5
REMARK    5  A    between atoms: N_5  and  C_6
REMARK    6  A    between atoms: C_6  and  C_7
REMARK    7  A    between atoms: C_7  and  O_8
REMARK    8  A    between atoms: C_7  and  C_9
REMARK    9  A    between atoms: C_11  and  C_12
REMARK   10  A    between atoms: C_12  and  O_13
REMARK   11  A    between atoms: C_14  and  O_15
REMARK                            x       y       z     vdW  Elec       q    Type
REMARK                         _______ _______ _______ _____ _____    ______ ____
ROOT
ATOM      1  C   UNL     1      -7.904   1.510 124.697  0.00  0.00    +0.000 A 
ATOM      2  C   UNL     1      -7.310   2.574 125.381  0.00  0.00    +0.000 A 
ATOM      3  C   UNL     1      -6.652   3.606 124.697  0.00  0.00    +0.000 A 
ATOM      4  C   UNL     1      -6.580   3.522 123.307  0.00  0.00    +0.000 A 
ATOM      5  C   UNL     1      -7.146   2.462 122.606  0.00  0.00    +0.000 A 
ATOM      6  C   UNL     1      -7.814   1.456 123.303  0.00  0.00    +0.000 A 
ENDROOT
BRANCH   4   7
ATOM      7  O   UNL     1      -5.952   4.471 122.548  0.00  0.00    +0.000 OA
ATOM      8  H   UNL     1      -6.499   5.279 122.604  0.00  0.00    +0.000 HD
ENDBRANCH   4   7
BRANCH   1   9
ATOM      9  C   UNL     1      -8.594   0.403 125.435  0.00  0.00    +0.000 C 
BRANCH   9  10
ATOM     10  O   UNL     1      -9.995   0.431 125.162  0.00  0.00    +0.000 OA
ATOM     11  H   UNL     1     -10.458   0.382 126.011  0.00  0.00    +0.000 HD
ENDBRANCH   9  10
BRANCH   9  12
ATOM     12  C   UNL     1      -8.026  -1.024 125.279  0.00  0.00    +0.000 C 
BRANCH  12  13
ATOM     13  N   UNL     1      -6.609  -1.363 124.998  0.00  0.00    +0.000 NA
ATOM     14  H   UNL     1      -6.086  -0.567 124.645  0.00  0.00    +0.000 HD
BRANCH  13  16
ATOM     15  C   UNL     1      -5.240  -3.305 124.275  0.00  0.00    +0.000 C 
ATOM     16  C   UNL     1      -6.515  -2.478 124.017  0.00  0.00    +0.000 C 
ATOM     17  C   UNL     1      -6.404  -1.901 122.589  0.00  0.00    +0.000 C 
ATOM     18  C   UNL     1      -7.724  -3.428 124.128  0.00  0.00    +0.000 C 
ENDBRANCH  13  16
ENDBRANCH  12  13
ENDBRANCH   9  12
ENDBRANCH   1   9
BRANCH   3  19
ATOM     19  C   UNL     1      -6.095   4.720 125.539  0.00  0.00    +0.000 C 
BRANCH  19  20
ATOM     20  O   UNL     1      -6.396   5.992 124.978  0.00  0.00    +0.000 OA
ATOM     21  H   UNL     1      -6.586   5.812 124.037  0.00  0.00    +0.000 HD
ENDBRANCH  19  20
ENDBRANCH   3  19
TORSDOF 8
ENDMDL
MODEL 9
REMARK VINA RESULT:      -5.3      9.132     10.327
REMARK  Name = Levosalbutamol
REMARK  11 active torsions:
REMARK  status: ('A' for Active; 'I' for Inactive)
REMARK    1  A    between atoms: C_1  and  C_2
REMARK    2  A    between atoms: C_2  and  C_3
REMARK    3  A    between atoms: C_2  and  C_4
REMARK    4  A    between atoms: C_2  and  N_5
REMARK    5  A    between atoms: N_5  and  C_6
REMARK    6  A    between atoms: C_6  and  C_7
REMARK    7  A    between atoms: C_7  and  O_8
REMARK    8  A    between atoms: C_7  and  C_9
REMARK    9  A    between atoms: C_11  and  C_12
REMARK   10  A    between atoms: C_12  and  O_13
REMARK   11  A    between atoms: C_14  and  O_15
REMARK                            x       y       z     vdW  Elec       q    Type
REMARK                         _______ _______ _______ _____ _____    ______ ____
ROOT
ATOM      1  C   UNL     1      -8.848   5.692 131.333  0.00  0.00    +0.000 A 
ATOM      2  C   UNL     1      -7.836   6.640 131.159  0.00  0.00    +0.000 A 
ATOM      3  C   UNL     1      -6.497   6.258 131.001  0.00  0.00    +0.000 A 
ATOM      4  C   UNL     1      -6.199   4.897 131.054  0.00  0.00    +0.000 A 
ATOM      5  C   UNL     1      -7.186   3.937 131.246  0.00  0.00    +0.000 A 
ATOM      6  C   UNL     1      -8.515   4.336 131.381  0.00  0.00    +0.000 A 
ENDROOT
BRANCH   4   7
ATOM      7  O   UNL     1      -4.922   4.421 130.921  0.00  0.00    +0.000 OA
ATOM      8  H   UNL     1      -4.921   3.844 130.133  0.00  0.00    +0.000 HD
ENDBRANCH   4   7
BRANCH   1   9
ATOM      9  C   UNL     1     -10.277   6.108 131.515  0.00  0.00    +0.000 C 
BRANCH   9  10
ATOM     10  O   UNL     1     -10.503   6.504 132.868  0.00  0.00    +0.000 OA
ATOM     11  H   UNL     1     -11.334   7.000 132.891  0.00  0.00    +0.000 HD
ENDBRANCH   9  10
BRANCH   9  12
ATOM     12  C   UNL     1     -10.852   7.147 130.528  0.00  0.00    +0.000 C 
BRANCH  12  13
ATOM     13  N   UNL     1     -12.134   7.022 129.793  0.00  0.00    +0.000 NA
ATOM     14  H   UNL     1     -12.258   6.097 129.390  0.00  0.00    +0.000 HD
BRANCH  13  16
ATOM     15  C   UNL     1     -12.859   9.335 129.251  0.00  0.00    +0.000 C 
ATOM     16  C   UNL     1     -12.226   8.038 128.709  0.00  0.00    +0.000 C 
ATOM     17  C   UNL     1     -13.147   7.513 127.587  0.00  0.00    +0.000 C 
ATOM     18  C   UNL     1     -10.833   8.391 128.151  0.00  0.00    +0.000 C 
ENDBRANCH  13  16
ENDBRANCH  12  13
ENDBRANCH   9  12
ENDBRANCH   1   9
BRANCH   3  19
ATOM     19  C   UNL     1      -5.506   7.365 130.774  0.00  0.00    +0.000 C 
BRANCH  19  20
ATOM     20  O   UNL     1      -4.751   7.148 129.588  0.00  0.00    +0.000 OA
ATOM     21  H   UNL     1      -4.800   6.185 129.432  0.00  0.00    +0.000 HD
ENDBRANCH  19  20
ENDBRANCH   3  19
TORSDOF 8
ENDMDL
