MODEL 1
REMARK VINA RESULT:      -7.8      0.000      0.000
REMARK  Name = Levorphanol
REMARK  2 active torsions:
REMARK  status: ('A' for Active; 'I' for Inactive)
REMARK    1  A    between atoms: N_10  and  C_11
REMARK    2  A    between atoms: C_17  and  O_18
REMARK                            x       y       z     vdW  Elec       q    Type
REMARK                         _______ _______ _______ _____ _____    ______ ____
ROOT
ATOM      1  C   UNL     1      -6.181  -1.847 125.090  0.00  0.00    +0.000 C 
ATOM      2  C   UNL     1      -5.641  -3.222 124.563  0.00  0.00    +0.000 C 
ATOM      3  C   UNL     1      -4.906  -3.161 123.271  0.00  0.00    +0.000 C 
ATOM      4  C   UNL     1      -5.602  -2.196 122.344  0.00  0.00    +0.000 C 
ATOM      5  C   UNL     1      -6.818  -1.312 122.859  0.00  0.00    +0.000 C 
ATOM      6  C   UNL     1      -7.353  -1.104 124.383  0.00  0.00    +0.000 C 
ATOM      7  C   UNL     1      -9.086  -1.430 125.454  0.00  0.00    +0.000 C 
ATOM      8  C   UNL     1      -9.236  -2.849 126.129  0.00  0.00    +0.000 C 
ATOM      9  N   UNL     1      -8.129  -3.238 125.389  0.00  0.00    +0.000 NA
ATOM     10  C   UNL     1      -8.815  -3.085 123.862  0.00  0.00    +0.000 C 
ATOM     11  C   UNL     1      -7.015  -2.130 126.231  0.00  0.00    +0.000 C 
ATOM     12  C   UNL     1      -7.280  -0.440 126.910  0.00  0.00    +0.000 C 
ATOM     13  C   UNL     1      -7.691   0.703 125.871  0.00  0.00    +0.000 A 
ATOM     14  C   UNL     1      -7.382   0.406 124.583  0.00  0.00    +0.000 A 
ATOM     15  C   UNL     1      -7.536   1.319 123.485  0.00  0.00    +0.000 A 
ATOM     16  C   UNL     1      -8.272   2.474 123.690  0.00  0.00    +0.000 A 
ATOM     17  C   UNL     1      -8.892   2.631 124.896  0.00  0.00    +0.000 A 
ATOM     18  C   UNL     1      -8.614   1.763 126.005  0.00  0.00    +0.000 A 
ENDROOT
BRANCH  16  19
ATOM     19  O   UNL     1      -8.460   3.352 122.662  0.00  0.00    +0.000 OA
ATOM     20  H   UNL     1      -9.129   3.007 122.048  0.00  0.00    +0.000 HD
ENDBRANCH  16  19
TORSDOF 1
ENDMDL
MODEL 2
REMARK VINA RESULT:      -7.7      1.452      3.402
REMARK  Name = Levorphanol
REMARK  2 active torsions:
REMARK  status: ('A' for Active; 'I' for Inactive)
REMARK    1  A    between atoms: N_10  and  C_11
REMARK    2  A    between atoms: C_17  and  O_18
REMARK                            x       y       z     vdW  Elec       q    Type
REMARK                         _______ _______ _______ _____ _____    ______ ____
ROOT
ATOM      1  C   UNL     1      -8.805  -2.461 125.175  0.00  0.00    +0.000 C 
ATOM      2  C   UNL     1      -8.320  -3.604 126.131  0.00  0.00    +0.000 C 
ATOM      3  C   UNL     1      -8.534  -3.351 127.581  0.00  0.00    +0.000 C 
ATOM      4  C   UNL     1      -8.231  -1.906 127.887  0.00  0.00    +0.000 C 
ATOM      5  C   UNL     1      -7.918  -0.878 126.716  0.00  0.00    +0.000 C 
ATOM      6  C   UNL     1      -8.077  -1.087 125.109  0.00  0.00    +0.000 C 
ATOM      7  C   UNL     1      -6.871  -1.055 123.435  0.00  0.00    +0.000 C 
ATOM      8  C   UNL     1      -6.189  -2.422 123.037  0.00  0.00    +0.000 C 
ATOM      9  N   UNL     1      -6.618  -2.910 124.263  0.00  0.00    +0.000 NA
ATOM     10  C   UNL     1      -5.698  -1.897 125.241  0.00  0.00    +0.000 C 
ATOM     11  C   UNL     1      -8.348  -2.796 123.850  0.00  0.00    +0.000 C 
ATOM     12  C   UNL     1      -9.266  -1.568 122.831  0.00  0.00    +0.000 C 
ATOM     13  C   UNL     1      -9.249  -0.051 123.334  0.00  0.00    +0.000 A 
ATOM     14  C   UNL     1      -8.936   0.085 124.648  0.00  0.00    +0.000 A 
ATOM     15  C   UNL     1      -8.977   1.329 125.363  0.00  0.00    +0.000 A 
ATOM     16  C   UNL     1      -9.091   2.502 124.634  0.00  0.00    +0.000 A 
ATOM     17  C   UNL     1      -9.059   2.413 123.272  0.00  0.00    +0.000 A 
ATOM     18  C   UNL     1      -9.144   1.149 122.598  0.00  0.00    +0.000 A 
ENDROOT
BRANCH  16  19
ATOM     19  O   UNL     1      -9.107   3.705 125.279  0.00  0.00    +0.000 OA
ATOM     20  H   UNL     1      -9.994   3.880 125.632  0.00  0.00    +0.000 HD
ENDBRANCH  16  19
TORSDOF 1
ENDMDL
MODEL 3
REMARK VINA RESULT:      -7.7      2.655      4.741
REMARK  Name = Levorphanol
REMARK  2 active torsions:
REMARK  status: ('A' for Active; 'I' for Inactive)
REMARK    1  A    between atoms: N_10  and  C_11
REMARK    2  A    between atoms: C_17  and  O_18
REMARK                            x       y       z     vdW  Elec       q    Type
REMARK                         _______ _______ _______ _____ _____    ______ ____
ROOT
ATOM      1  C   UNL     1      -6.010  -2.311 127.373  0.00  0.00    +0.000 C 
ATOM      2  C   UNL     1      -5.872  -2.254 128.934  0.00  0.00    +0.000 C 
ATOM      3  C   UNL     1      -6.648  -3.282 129.677  0.00  0.00    +0.000 C 
ATOM      4  C   UNL     1      -7.996  -3.461 129.025  0.00  0.00    +0.000 C 
ATOM      5  C   UNL     1      -8.337  -2.730 127.655  0.00  0.00    +0.000 C 
ATOM      6  C   UNL     1      -7.336  -1.924 126.655  0.00  0.00    +0.000 C 
ATOM      7  C   UNL     1      -7.145  -0.016 125.894  0.00  0.00    +0.000 C 
ATOM      8  C   UNL     1      -6.291   0.998 126.750  0.00  0.00    +0.000 C 
ATOM      9  N   UNL     1      -6.314   0.050 127.763  0.00  0.00    +0.000 NA
ATOM     10  C   UNL     1      -7.971   0.071 128.052  0.00  0.00    +0.000 C 
ATOM     11  C   UNL     1      -5.354  -1.140 126.848  0.00  0.00    +0.000 C 
ATOM     12  C   UNL     1      -5.312  -1.529 125.049  0.00  0.00    +0.000 C 
ATOM     13  C   UNL     1      -6.668  -2.061 124.390  0.00  0.00    +0.000 A 
ATOM     14  C   UNL     1      -7.550  -2.567 125.290  0.00  0.00    +0.000 A 
ATOM     15  C   UNL     1      -8.780  -3.217 124.936  0.00  0.00    +0.000 A 
ATOM     16  C   UNL     1      -9.230  -3.106 123.631  0.00  0.00    +0.000 A 
ATOM     17  C   UNL     1      -8.527  -2.303 122.779  0.00  0.00    +0.000 A 
ATOM     18  C   UNL     1      -7.241  -1.774 123.132  0.00  0.00    +0.000 A 
ENDROOT
BRANCH  16  19
ATOM     19  O   UNL     1     -10.408  -3.690 123.265  0.00  0.00    +0.000 OA
ATOM     20  H   UNL     1     -10.287  -4.194 122.443  0.00  0.00    +0.000 HD
ENDBRANCH  16  19
TORSDOF 1
ENDMDL
MODEL 4
REMARK VINA RESULT:      -6.9      3.053      4.651
REMARK  Name = Levorphanol
REMARK  2 active torsions:
REMARK  status: ('A' for Active; 'I' for Inactive)
REMARK    1  A    between atoms: N_10  and  C_11
REMARK    2  A    between atoms: C_17  and  O_18
REMARK                            x       y       z     vdW  Elec       q    Type
REMARK                         _______ _______ _______ _____ _____    ______ ____
ROOT
ATOM      1  C   UNL     1      -7.503  -2.815 124.849  0.00  0.00    +0.000 C 
ATOM      2  C   UNL     1      -7.151  -2.470 123.360  0.00  0.00    +0.000 C 
ATOM      3  C   UNL     1      -5.734  -2.703 122.974  0.00  0.00    +0.000 C 
ATOM      4  C   UNL     1      -4.830  -2.275 124.102  0.00  0.00    +0.000 C 
ATOM      5  C   UNL     1      -5.437  -1.830 125.502  0.00  0.00    +0.000 C 
ATOM      6  C   UNL     1      -6.970  -1.958 126.034  0.00  0.00    +0.000 C 
ATOM      7  C   UNL     1      -8.477  -0.703 126.676  0.00  0.00    +0.000 C 
ATOM      8  C   UNL     1      -9.443  -0.141 125.561  0.00  0.00    +0.000 C 
ATOM      9  N   UNL     1      -8.549  -0.652 124.631  0.00  0.00    +0.000 NA
ATOM     10  C   UNL     1      -7.239   0.328 125.018  0.00  0.00    +0.000 C 
ATOM     11  C   UNL     1      -8.847  -2.350 125.084  0.00  0.00    +0.000 C 
ATOM     12  C   UNL     1      -9.212  -3.116 126.717  0.00  0.00    +0.000 C 
ATOM     13  C   UNL     1      -8.095  -2.971 127.852  0.00  0.00    +0.000 A 
ATOM     14  C   UNL     1      -6.859  -2.688 127.368  0.00  0.00    +0.000 A 
ATOM     15  C   UNL     1      -5.670  -2.633 128.171  0.00  0.00    +0.000 A 
ATOM     16  C   UNL     1      -5.810  -2.613 129.549  0.00  0.00    +0.000 A 
ATOM     17  C   UNL     1      -7.074  -2.548 130.062  0.00  0.00    +0.000 A 
ATOM     18  C   UNL     1      -8.233  -2.731 129.236  0.00  0.00    +0.000 A 
ENDROOT
BRANCH  16  19
ATOM     19  O   UNL     1      -4.703  -2.536 130.344  0.00  0.00    +0.000 OA
ATOM     20  H   UNL     1      -4.142  -1.797 130.060  0.00  0.00    +0.000 HD
ENDBRANCH  16  19
TORSDOF 1
ENDMDL
MODEL 5
REMARK VINA RESULT:      -6.8      2.179      3.807
REMARK  Name = Levorphanol
REMARK  2 active torsions:
REMARK  status: ('A' for Active; 'I' for Inactive)
REMARK    1  A    between atoms: N_10  and  C_11
REMARK    2  A    between atoms: C_17  and  O_18
REMARK                            x       y       z     vdW  Elec       q    Type
REMARK                         _______ _______ _______ _____ _____    ______ ____
ROOT
ATOM      1  C   UNL     1      -8.801  -1.611 125.856  0.00  0.00    +0.000 C 
ATOM      2  C   UNL     1      -9.327  -3.075 126.052  0.00  0.00    +0.000 C 
ATOM      3  C   UNL     1      -9.097  -3.656 127.402  0.00  0.00    +0.000 C 
ATOM      4  C   UNL     1      -7.731  -3.252 127.896  0.00  0.00    +0.000 C 
ATOM      5  C   UNL     1      -6.848  -2.215 127.077  0.00  0.00    +0.000 C 
ATOM      6  C   UNL     1      -7.278  -1.289 125.809  0.00  0.00    +0.000 C 
ATOM      7  C   UNL     1      -6.716  -1.036 123.839  0.00  0.00    +0.000 C 
ATOM      8  C   UNL     1      -7.447  -1.948 122.779  0.00  0.00    +0.000 C 
ATOM      9  N   UNL     1      -7.961  -2.660 123.853  0.00  0.00    +0.000 NA
ATOM     10  C   UNL     1      -6.504  -3.258 124.444  0.00  0.00    +0.000 C 
ATOM     11  C   UNL     1      -8.937  -1.297 124.456  0.00  0.00    +0.000 C 
ATOM     12  C   UNL     1      -8.607   0.514 124.462  0.00  0.00    +0.000 C 
ATOM     13  C   UNL     1      -7.331   1.017 125.283  0.00  0.00    +0.000 A 
ATOM     14  C   UNL     1      -6.898   0.130 126.215  0.00  0.00    +0.000 A 
ATOM     15  C   UNL     1      -5.853   0.398 127.162  0.00  0.00    +0.000 A 
ATOM     16  C   UNL     1      -5.060   1.517 126.964  0.00  0.00    +0.000 A 
ATOM     17  C   UNL     1      -5.256   2.246 125.826  0.00  0.00    +0.000 A 
ATOM     18  C   UNL     1      -6.387   2.020 124.972  0.00  0.00    +0.000 A 
ENDROOT
BRANCH  16  19
ATOM     19  O   UNL     1      -4.040   1.790 127.829  0.00  0.00    +0.000 OA
ATOM     20  H   UNL     1      -3.322   1.147 127.709  0.00  0.00    +0.000 HD
ENDBRANCH  16  19
TORSDOF 1
ENDMDL
MODEL 6
REMARK VINA RESULT:      -6.7      2.880      5.155
REMARK  Name = Levorphanol
REMARK  2 active torsions:
REMARK  status: ('A' for Active; 'I' for Inactive)
REMARK    1  A    between atoms: N_10  and  C_11
REMARK    2  A    between atoms: C_17  and  O_18
REMARK                            x       y       z     vdW  Elec       q    Type
REMARK                         _______ _______ _______ _____ _____    ______ ____
ROOT
ATOM      1  C   UNL     1      -8.137  -1.178 129.153  0.00  0.00    +0.000 C 
ATOM      2  C   UNL     1      -7.720  -0.128 130.240  0.00  0.00    +0.000 C 
ATOM      3  C   UNL     1      -8.337   1.217 130.092  0.00  0.00    +0.000 C 
ATOM      4  C   UNL     1      -8.379   1.590 128.631  0.00  0.00    +0.000 C 
ATOM      5  C   UNL     1      -7.961   0.540 127.514  0.00  0.00    +0.000 C 
ATOM      6  C   UNL     1      -7.667  -1.054 127.674  0.00  0.00    +0.000 C 
ATOM      7  C   UNL     1      -6.099  -2.359 127.364  0.00  0.00    +0.000 C 
ATOM      8  C   UNL     1      -5.111  -2.567 128.577  0.00  0.00    +0.000 C 
ATOM      9  N   UNL     1      -5.746  -1.493 129.185  0.00  0.00    +0.000 NA
ATOM     10  C   UNL     1      -5.297  -0.310 128.077  0.00  0.00    +0.000 C 
ATOM     11  C   UNL     1      -7.306  -2.340 129.346  0.00  0.00    +0.000 C 
ATOM     12  C   UNL     1      -8.135  -3.561 128.245  0.00  0.00    +0.000 C 
ATOM     13  C   UNL     1      -8.510  -3.071 126.771  0.00  0.00    +0.000 A 
ATOM     14  C   UNL     1      -8.571  -1.721 126.644  0.00  0.00    +0.000 A 
ATOM     15  C   UNL     1      -9.009  -1.041 125.458  0.00  0.00    +0.000 A 
ATOM     16  C   UNL     1      -9.136  -1.774 124.290  0.00  0.00    +0.000 A 
ATOM     17  C   UNL     1      -8.744  -3.082 124.311  0.00  0.00    +0.000 A 
ATOM     18  C   UNL     1      -8.432  -3.755 125.539  0.00  0.00    +0.000 A 
ENDROOT
BRANCH  16  19
ATOM     19  O   UNL     1      -9.525  -1.156 123.136  0.00  0.00    +0.000 OA
ATOM     20  H   UNL     1      -8.806  -0.597 122.800  0.00  0.00    +0.000 HD
ENDBRANCH  16  19
TORSDOF 1
ENDMDL
MODEL 7
REMARK VINA RESULT:      -6.5     14.081     16.083
REMARK  Name = Levorphanol
REMARK  2 active torsions:
REMARK  status: ('A' for Active; 'I' for Inactive)
REMARK    1  A    between atoms: N_10  and  C_11
REMARK    2  A    between atoms: C_17  and  O_18
REMARK                            x       y       z     vdW  Elec       q    Type
REMARK                         _______ _______ _______ _____ _____    ______ ____
ROOT
ATOM      1  C   UNL     1      -5.645   7.838 137.043  0.00  0.00    +0.000 C 
ATOM      2  C   UNL     1      -4.731   6.672 136.528  0.00  0.00    +0.000 C 
ATOM      3  C   UNL     1      -5.260   5.923 135.357  0.00  0.00    +0.000 C 
ATOM      4  C   UNL     1      -6.746   5.729 135.516  0.00  0.00    +0.000 C 
ATOM      5  C   UNL     1      -7.532   6.426 136.709  0.00  0.00    +0.000 C 
ATOM      6  C   UNL     1      -7.004   7.561 137.750  0.00  0.00    +0.000 C 
ATOM      7  C   UNL     1      -6.745   7.767 139.787  0.00  0.00    +0.000 C 
ATOM      8  C   UNL     1      -5.351   7.306 140.367  0.00  0.00    +0.000 C 
ATOM      9  N   UNL     1      -5.101   6.744 139.122  0.00  0.00    +0.000 NA
ATOM     10  C   UNL     1      -6.319   5.585 139.151  0.00  0.00    +0.000 C 
ATOM     11  C   UNL     1      -5.070   8.312 138.277  0.00  0.00    +0.000 C 
ATOM     12  C   UNL     1      -6.039   9.853 138.555  0.00  0.00    +0.000 C 
ATOM     13  C   UNL     1      -7.625   9.752 138.387  0.00  0.00    +0.000 A 
ATOM     14  C   UNL     1      -8.030   8.683 137.655  0.00  0.00    +0.000 A 
ATOM     15  C   UNL     1      -9.389   8.444 137.259  0.00  0.00    +0.000 A 
ATOM     16  C   UNL     1     -10.389   9.191 137.860  0.00  0.00    +0.000 A 
ATOM     17  C   UNL     1     -10.033  10.044 138.865  0.00  0.00    +0.000 A 
ATOM     18  C   UNL     1      -8.658  10.347 139.144  0.00  0.00    +0.000 A 
ENDROOT
BRANCH  16  19
ATOM     19  O   UNL     1     -11.694   8.973 137.527  0.00  0.00    +0.000 OA
ATOM     20  H   UNL     1     -12.098   9.797 137.208  0.00  0.00    +0.000 HD
ENDBRANCH  16  19
TORSDOF 1
ENDMDL
MODEL 8
REMARK VINA RESULT:      -6.4     17.040     19.631
REMARK  Name = Levorphanol
REMARK  2 active torsions:
REMARK  status: ('A' for Active; 'I' for Inactive)
REMARK    1  A    between atoms: N_10  and  C_11
REMARK    2  A    between atoms: C_17  and  O_18
REMARK                            x       y       z     vdW  Elec       q    Type
REMARK                         _______ _______ _______ _____ _____    ______ ____
ROOT
ATOM      1  C   UNL     1      -8.344  11.016 141.665  0.00  0.00    +0.000 C 
ATOM      2  C   UNL     1      -8.542  12.304 142.538  0.00  0.00    +0.000 C 
ATOM      3  C   UNL     1      -9.915  12.875 142.521  0.00  0.00    +0.000 C 
ATOM      4  C   UNL     1     -10.475  12.793 141.123  0.00  0.00    +0.000 C 
ATOM      5  C   UNL     1      -9.684  12.027 139.977  0.00  0.00    +0.000 C 
ATOM      6  C   UNL     1      -8.373  11.070 140.110  0.00  0.00    +0.000 C 
ATOM      7  C   UNL     1      -6.433  11.027 139.408  0.00  0.00    +0.000 C 
ATOM      8  C   UNL     1      -5.354  11.775 140.285  0.00  0.00    +0.000 C 
ATOM      9  N   UNL     1      -6.414  12.304 141.007  0.00  0.00    +0.000 NA
ATOM     10  C   UNL     1      -7.098  13.213 139.768  0.00  0.00    +0.000 C 
ATOM     11  C   UNL     1      -6.931  10.727 141.654  0.00  0.00    +0.000 C 
ATOM     12  C   UNL     1      -6.915   9.049 140.898  0.00  0.00    +0.000 C 
ATOM     13  C   UNL     1      -7.795   8.838 139.580  0.00  0.00    +0.000 A 
ATOM     14  C   UNL     1      -8.769   9.770 139.419  0.00  0.00    +0.000 A 
ATOM     15  C   UNL     1      -9.765   9.727 138.387  0.00  0.00    +0.000 A 
ATOM     16  C   UNL     1      -9.587   8.839 137.339  0.00  0.00    +0.000 A 
ATOM     17  C   UNL     1      -8.424   8.124 137.299  0.00  0.00    +0.000 A 
ATOM     18  C   UNL     1      -7.515   8.102 138.408  0.00  0.00    +0.000 A 
ENDROOT
BRANCH  16  19
ATOM     19  O   UNL     1     -10.501   8.788 136.327  0.00  0.00    +0.000 OA
ATOM     20  H   UNL     1     -11.187   8.131 136.532  0.00  0.00    +0.000 HD
ENDBRANCH  16  19
TORSDOF 1
ENDMDL
MODEL 9
REMARK VINA RESULT:      -6.4      3.656      5.463
REMARK  Name = Levorphanol
REMARK  2 active torsions:
REMARK  status: ('A' for Active; 'I' for Inactive)
REMARK    1  A    between atoms: N_10  and  C_11
REMARK    2  A    between atoms: C_17  and  O_18
REMARK                            x       y       z     vdW  Elec       q    Type
REMARK                         _______ _______ _______ _____ _____    ______ ____
ROOT
ATOM      1  C   UNL     1      -5.337  -1.908 129.188  0.00  0.00    +0.000 C 
ATOM      2  C   UNL     1      -4.724  -2.502 130.503  0.00  0.00    +0.000 C 
ATOM      3  C   UNL     1      -4.849  -3.977 130.650  0.00  0.00    +0.000 C 
ATOM      4  C   UNL     1      -6.206  -4.416 130.161  0.00  0.00    +0.000 C 
ATOM      5  C   UNL     1      -7.185  -3.384 129.454  0.00  0.00    +0.000 C 
ATOM      6  C   UNL     1      -6.874  -1.868 128.947  0.00  0.00    +0.000 C 
ATOM      7  C   UNL     1      -7.555   0.042 129.328  0.00  0.00    +0.000 C 
ATOM      8  C   UNL     1      -6.836   0.823 130.496  0.00  0.00    +0.000 C 
ATOM      9  N   UNL     1      -6.227  -0.379 130.827  0.00  0.00    +0.000 NA
ATOM     10  C   UNL     1      -7.616  -1.221 131.264  0.00  0.00    +0.000 C 
ATOM     11  C   UNL     1      -5.293  -0.473 129.313  0.00  0.00    +0.000 C 
ATOM     12  C   UNL     1      -5.718   0.049 127.599  0.00  0.00    +0.000 C 
ATOM     13  C   UNL     1      -6.972  -0.666 126.913  0.00  0.00    +0.000 A 
ATOM     14  C   UNL     1      -7.306  -1.850 127.486  0.00  0.00    +0.000 A 
ATOM     15  C   UNL     1      -8.311  -2.739 126.976  0.00  0.00    +0.000 A 
ATOM     16  C   UNL     1      -9.171  -2.265 125.999  0.00  0.00    +0.000 A 
ATOM     17  C   UNL     1      -9.076  -0.949 125.647  0.00  0.00    +0.000 A 
ATOM     18  C   UNL     1      -7.982  -0.130 126.085  0.00  0.00    +0.000 A 
ENDROOT
BRANCH  16  19
ATOM     19  O   UNL     1     -10.156  -3.074 125.509  0.00  0.00    +0.000 OA
ATOM     20  H   UNL     1      -9.773  -3.909 125.195  0.00  0.00    +0.000 HD
ENDBRANCH  16  19
TORSDOF 1
ENDMDL
