MODEL 1
REMARK VINA RESULT:      -7.9      0.000      0.000
REMARK  Name = Levonorgestrel
REMARK  4 active torsions:
REMARK  status: ('A' for Active; 'I' for Inactive)
REMARK    1  A    between atoms: C_5  and  O_6
REMARK    2  A    between atoms: C_5  and  C_7
REMARK    3  A    between atoms: C_9  and  C_10
REMARK    4  A    between atoms: C_10  and  C_11
REMARK                            x       y       z     vdW  Elec       q    Type
REMARK                         _______ _______ _______ _____ _____    ______ ____
ROOT
ATOM      1  C   UNL     1      -8.357  -2.296 123.471  0.00  0.00    +0.000 C 
ATOM      2  C   UNL     1      -7.878  -2.393 122.143  0.00  0.00    +0.000 C 
ATOM      3  C   UNL     1      -6.972  -1.716 123.105  0.00  0.00    +0.000 C 
ATOM      4  C   UNL     1      -7.511  -1.860 125.117  0.00  0.00    +0.000 C 
ATOM      5  C   UNL     1      -6.701  -2.652 124.362  0.00  0.00    +0.000 C 
ATOM      6  C   UNL     1      -5.466  -1.331 124.620  0.00  0.00    +0.000 C 
ATOM      7  C   UNL     1      -6.263   0.080 124.740  0.00  0.00    +0.000 C 
ATOM      8  C   UNL     1      -7.633   0.395 123.876  0.00  0.00    +0.000 C 
ATOM      9  C   UNL     1      -8.184   1.713 124.183  0.00  0.00    +0.000 C 
ATOM     10  C   UNL     1      -7.028   2.499 124.206  0.00  0.00    +0.000 C 
ATOM     11  C   UNL     1      -5.863   3.096 124.686  0.00  0.00    +0.000 C 
ATOM     12  C   UNL     1      -6.220   3.971 123.274  0.00  0.00    +0.000 C 
ATOM     13  O   UNL     1      -5.335   4.627 122.844  0.00  0.00    +0.000 OA
ATOM     14  C   UNL     1      -7.875   3.474 122.396  0.00  0.00    +0.000 C 
ATOM     15  C   UNL     1      -8.706   2.376 122.880  0.00  0.00    +0.000 C 
ATOM     16  C   UNL     1     -10.016   1.452 122.659  0.00  0.00    +0.000 C 
ATOM     17  C   UNL     1      -9.788  -0.110 122.660  0.00  0.00    +0.000 C 
ATOM     18  C   UNL     1      -8.856  -0.587 123.764  0.00  0.00    +0.000 C 
ENDROOT
BRANCH   4  19
ATOM     19  O   UNL     1      -6.767  -1.997 126.386  0.00  0.00    +0.000 OA
ATOM     20  H   UNL     1      -7.198  -2.178 127.230  0.00  0.00    +0.000 HD
ENDBRANCH   4  19
BRANCH   4  21
ATOM     21  C   UNL     1      -8.698  -2.759 125.700  0.00  0.00    +0.000 C 
ATOM     22  C   UNL     1      -9.557  -3.369 126.257  0.00  0.00    +0.000 C 
ENDBRANCH   4  21
BRANCH   5  23
ATOM     23  C   UNL     1      -6.256  -4.028 124.575  0.00  0.00    +0.000 C 
ATOM     24  C   UNL     1      -5.005  -4.070 123.740  0.00  0.00    +0.000 C 
ENDBRANCH   5  23
TORSDOF 3
ENDMDL
MODEL 2
REMARK VINA RESULT:      -7.7      2.044      3.842
REMARK  Name = Levonorgestrel
REMARK  4 active torsions:
REMARK  status: ('A' for Active; 'I' for Inactive)
REMARK    1  A    between atoms: C_5  and  O_6
REMARK    2  A    between atoms: C_5  and  C_7
REMARK    3  A    between atoms: C_9  and  C_10
REMARK    4  A    between atoms: C_10  and  C_11
REMARK                            x       y       z     vdW  Elec       q    Type
REMARK                         _______ _______ _______ _____ _____    ______ ____
ROOT
ATOM      1  C   UNL     1      -6.689  -2.118 125.678  0.00  0.00    +0.000 C 
ATOM      2  C   UNL     1      -7.782  -2.197 126.572  0.00  0.00    +0.000 C 
ATOM      3  C   UNL     1      -7.967  -1.289 125.412  0.00  0.00    +0.000 C 
ATOM      4  C   UNL     1      -6.511  -1.415 123.920  0.00  0.00    +0.000 C 
ATOM      5  C   UNL     1      -7.698  -2.069 124.052  0.00  0.00    +0.000 C 
ATOM      6  C   UNL     1      -8.424  -0.509 123.439  0.00  0.00    +0.000 C 
ATOM      7  C   UNL     1      -7.479   0.713 123.944  0.00  0.00    +0.000 C 
ATOM      8  C   UNL     1      -6.705   0.686 125.402  0.00  0.00    +0.000 C 
ATOM      9  C   UNL     1      -5.889   1.878 125.613  0.00  0.00    +0.000 C 
ATOM     10  C   UNL     1      -6.745   2.885 125.156  0.00  0.00    +0.000 C 
ATOM     11  C   UNL     1      -7.405   3.737 124.272  0.00  0.00    +0.000 C 
ATOM     12  C   UNL     1      -7.688   4.430 125.797  0.00  0.00    +0.000 C 
ATOM     13  O   UNL     1      -8.562   5.226 125.841  0.00  0.00    +0.000 OA
ATOM     14  C   UNL     1      -6.798   3.549 127.277  0.00  0.00    +0.000 C 
ATOM     15  C   UNL     1      -6.007   2.337 127.091  0.00  0.00    +0.000 C 
ATOM     16  C   UNL     1      -5.140   1.151 127.771  0.00  0.00    +0.000 C 
ATOM     17  C   UNL     1      -5.563  -0.327 127.414  0.00  0.00    +0.000 C 
ATOM     18  C   UNL     1      -5.866  -0.533 125.937  0.00  0.00    +0.000 C 
ENDROOT
BRANCH   4  19
ATOM     19  O   UNL     1      -6.521  -1.316 122.447  0.00  0.00    +0.000 OA
ATOM     20  H   UNL     1      -6.843  -0.538 121.975  0.00  0.00    +0.000 HD
ENDBRANCH   4  19
BRANCH   4  21
ATOM     21  C   UNL     1      -5.338  -2.499 123.853  0.00  0.00    +0.000 C 
ATOM     22  C   UNL     1      -4.478  -3.302 123.665  0.00  0.00    +0.000 C 
ENDBRANCH   4  21
BRANCH   5  23
ATOM     23  C   UNL     1      -8.169  -3.308 123.437  0.00  0.00    +0.000 C 
ATOM     24  C   UNL     1      -9.632  -3.278 123.789  0.00  0.00    +0.000 C 
ENDBRANCH   5  23
TORSDOF 3
ENDMDL
MODEL 3
REMARK VINA RESULT:      -7.6      3.189      4.965
REMARK  Name = Levonorgestrel
REMARK  4 active torsions:
REMARK  status: ('A' for Active; 'I' for Inactive)
REMARK    1  A    between atoms: C_5  and  O_6
REMARK    2  A    between atoms: C_5  and  C_7
REMARK    3  A    between atoms: C_9  and  C_10
REMARK    4  A    between atoms: C_10  and  C_11
REMARK                            x       y       z     vdW  Elec       q    Type
REMARK                         _______ _______ _______ _____ _____    ______ ____
ROOT
ATOM      1  C   UNL     1      -7.738  -3.107 125.865  0.00  0.00    +0.000 C 
ATOM      2  C   UNL     1      -9.043  -3.485 126.256  0.00  0.00    +0.000 C 
ATOM      3  C   UNL     1      -8.893  -2.082 125.792  0.00  0.00    +0.000 C 
ATOM      4  C   UNL     1      -7.063  -1.611 124.904  0.00  0.00    +0.000 C 
ATOM      5  C   UNL     1      -8.228  -2.046 124.348  0.00  0.00    +0.000 C 
ATOM      6  C   UNL     1      -8.765  -0.312 124.544  0.00  0.00    +0.000 C 
ATOM      7  C   UNL     1      -8.026   0.293 125.859  0.00  0.00    +0.000 C 
ATOM      8  C   UNL     1      -7.712  -0.624 127.195  0.00  0.00    +0.000 C 
ATOM      9  C   UNL     1      -7.010   0.133 128.228  0.00  0.00    +0.000 C 
ATOM     10  C   UNL     1      -7.708   1.344 128.208  0.00  0.00    +0.000 C 
ATOM     11  C   UNL     1      -8.092   2.625 127.813  0.00  0.00    +0.000 C 
ATOM     12  C   UNL     1      -8.819   2.431 129.337  0.00  0.00    +0.000 C 
ATOM     13  O   UNL     1      -9.678   3.202 129.594  0.00  0.00    +0.000 OA
ATOM     14  C   UNL     1      -8.389   0.774 130.247  0.00  0.00    +0.000 C 
ATOM     15  C   UNL     1      -7.562  -0.256 129.626  0.00  0.00    +0.000 C 
ATOM     16  C   UNL     1      -6.915  -1.736 129.725  0.00  0.00    +0.000 C 
ATOM     17  C   UNL     1      -7.194  -2.712 128.517  0.00  0.00    +0.000 C 
ATOM     18  C   UNL     1      -7.049  -2.050 127.155  0.00  0.00    +0.000 C 
ENDROOT
BRANCH   4  19
ATOM     19  O   UNL     1      -6.644  -0.741 123.786  0.00  0.00    +0.000 OA
ATOM     20  H   UNL     1      -7.239  -0.115 123.356  0.00  0.00    +0.000 HD
ENDBRANCH   4  19
BRANCH   4  21
ATOM     21  C   UNL     1      -5.907  -2.655 124.543  0.00  0.00    +0.000 C 
ATOM     22  C   UNL     1      -5.019  -3.353 124.165  0.00  0.00    +0.000 C 
ENDBRANCH   4  21
BRANCH   5  23
ATOM     23  C   UNL     1      -8.481  -2.678 123.055  0.00  0.00    +0.000 C 
ATOM     24  C   UNL     1      -9.833  -3.299 123.286  0.00  0.00    +0.000 C 
ENDBRANCH   5  23
TORSDOF 3
ENDMDL
MODEL 4
REMARK VINA RESULT:      -7.5      4.230      6.225
REMARK  Name = Levonorgestrel
REMARK  4 active torsions:
REMARK  status: ('A' for Active; 'I' for Inactive)
REMARK    1  A    between atoms: C_5  and  O_6
REMARK    2  A    between atoms: C_5  and  C_7
REMARK    3  A    between atoms: C_9  and  C_10
REMARK    4  A    between atoms: C_10  and  C_11
REMARK                            x       y       z     vdW  Elec       q    Type
REMARK                         _______ _______ _______ _____ _____    ______ ____
ROOT
ATOM      1  C   UNL     1      -7.104  -2.904 130.420  0.00  0.00    +0.000 C 
ATOM      2  C   UNL     1      -6.515  -4.188 130.351  0.00  0.00    +0.000 C 
ATOM      3  C   UNL     1      -5.811  -3.119 129.599  0.00  0.00    +0.000 C 
ATOM      4  C   UNL     1      -6.472  -1.170 129.960  0.00  0.00    +0.000 C 
ATOM      5  C   UNL     1      -5.484  -1.892 130.558  0.00  0.00    +0.000 C 
ATOM      6  C   UNL     1      -4.512  -1.462 129.073  0.00  0.00    +0.000 C 
ATOM      7  C   UNL     1      -5.541  -1.338 127.822  0.00  0.00    +0.000 C 
ATOM      8  C   UNL     1      -6.875  -2.300 127.678  0.00  0.00    +0.000 C 
ATOM      9  C   UNL     1      -7.660  -1.976 126.491  0.00  0.00    +0.000 C 
ATOM     10  C   UNL     1      -6.658  -1.813 125.530  0.00  0.00    +0.000 C 
ATOM     11  C   UNL     1      -5.650  -1.204 124.784  0.00  0.00    +0.000 C 
ATOM     12  C   UNL     1      -6.039  -2.594 123.888  0.00  0.00    +0.000 C 
ATOM     13  O   UNL     1      -5.246  -2.912 123.071  0.00  0.00    +0.000 OA
ATOM     14  C   UNL     1      -7.515  -3.637 124.591  0.00  0.00    +0.000 C 
ATOM     15  C   UNL     1      -8.185  -3.283 125.838  0.00  0.00    +0.000 C 
ATOM     16  C   UNL     1      -9.301  -3.662 126.948  0.00  0.00    +0.000 C 
ATOM     17  C   UNL     1      -8.814  -3.722 128.448  0.00  0.00    +0.000 C 
ATOM     18  C   UNL     1      -7.903  -2.568 128.838  0.00  0.00    +0.000 C 
ENDROOT
BRANCH   4  19
ATOM     19  O   UNL     1      -5.815   0.149 130.055  0.00  0.00    +0.000 OA
ATOM     20  H   UNL     1      -5.585   0.561 130.897  0.00  0.00    +0.000 HD
ENDBRANCH   4  19
BRANCH   4  21
ATOM     21  C   UNL     1      -7.532  -0.738 131.075  0.00  0.00    +0.000 C 
ATOM     22  C   UNL     1      -8.313  -0.288 131.855  0.00  0.00    +0.000 C 
ENDBRANCH   4  21
BRANCH   5  23
ATOM     23  C   UNL     1      -4.833  -1.712 131.854  0.00  0.00    +0.000 C 
ATOM     24  C   UNL     1      -3.763  -2.769 131.799  0.00  0.00    +0.000 C 
ENDBRANCH   5  23
TORSDOF 3
ENDMDL
MODEL 5
REMARK VINA RESULT:      -7.0      3.783      6.222
REMARK  Name = Levonorgestrel
REMARK  4 active torsions:
REMARK  status: ('A' for Active; 'I' for Inactive)
REMARK    1  A    between atoms: C_5  and  O_6
REMARK    2  A    between atoms: C_5  and  C_7
REMARK    3  A    between atoms: C_9  and  C_10
REMARK    4  A    between atoms: C_10  and  C_11
REMARK                            x       y       z     vdW  Elec       q    Type
REMARK                         _______ _______ _______ _____ _____    ______ ____
ROOT
ATOM      1  C   UNL     1      -5.967  -0.782 129.357  0.00  0.00    +0.000 C 
ATOM      2  C   UNL     1      -6.855   0.318 129.322  0.00  0.00    +0.000 C 
ATOM      3  C   UNL     1      -7.460  -1.005 129.025  0.00  0.00    +0.000 C 
ATOM      4  C   UNL     1      -6.245  -2.663 129.397  0.00  0.00    +0.000 C 
ATOM      5  C   UNL     1      -7.147  -2.032 130.199  0.00  0.00    +0.000 C 
ATOM      6  C   UNL     1      -8.390  -2.956 129.230  0.00  0.00    +0.000 C 
ATOM      7  C   UNL     1      -7.806  -3.149 127.726  0.00  0.00    +0.000 C 
ATOM      8  C   UNL     1      -6.876  -2.003 126.987  0.00  0.00    +0.000 C 
ATOM      9  C   UNL     1      -6.444  -2.422 125.656  0.00  0.00    +0.000 C 
ATOM     10  C   UNL     1      -7.619  -2.981 125.145  0.00  0.00    +0.000 C 
ATOM     11  C   UNL     1      -8.618  -3.921 124.897  0.00  0.00    +0.000 C 
ATOM     12  C   UNL     1      -8.897  -2.711 123.737  0.00  0.00    +0.000 C 
ATOM     13  O   UNL     1      -9.958  -2.738 123.216  0.00  0.00    +0.000 OA
ATOM     14  C   UNL     1      -7.593  -1.276 123.718  0.00  0.00    +0.000 C 
ATOM     15  C   UNL     1      -6.501  -1.212 124.684  0.00  0.00    +0.000 C 
ATOM     16  C   UNL     1      -5.231  -0.392 125.262  0.00  0.00    +0.000 C 
ATOM     17  C   UNL     1      -5.224  -0.101 126.813  0.00  0.00    +0.000 C 
ATOM     18  C   UNL     1      -5.641  -1.296 127.658  0.00  0.00    +0.000 C 
ENDROOT
BRANCH   4  19
ATOM     19  O   UNL     1      -6.480  -4.031 129.903  0.00  0.00    +0.000 OA
ATOM     20  H   UNL     1      -5.769  -4.605 130.213  0.00  0.00    +0.000 HD
ENDBRANCH   4  19
BRANCH   4  21
ATOM     21  C   UNL     1      -4.817  -2.628 130.114  0.00  0.00    +0.000 C 
ATOM     22  C   UNL     1      -3.717  -2.709 130.567  0.00  0.00    +0.000 C 
ENDBRANCH   4  21
BRANCH   5  23
ATOM     23  C   UNL     1      -7.293  -2.047 131.653  0.00  0.00    +0.000 C 
ATOM     24  C   UNL     1      -8.306  -0.953 131.862  0.00  0.00    +0.000 C 
ENDBRANCH   5  23
TORSDOF 3
ENDMDL
MODEL 6
REMARK VINA RESULT:      -7.0      3.888      6.103
REMARK  Name = Levonorgestrel
REMARK  4 active torsions:
REMARK  status: ('A' for Active; 'I' for Inactive)
REMARK    1  A    between atoms: C_5  and  O_6
REMARK    2  A    between atoms: C_5  and  C_7
REMARK    3  A    between atoms: C_9  and  C_10
REMARK    4  A    between atoms: C_10  and  C_11
REMARK                            x       y       z     vdW  Elec       q    Type
REMARK                         _______ _______ _______ _____ _____    ______ ____
ROOT
ATOM      1  C   UNL     1      -6.875  -1.404 130.041  0.00  0.00    +0.000 C 
ATOM      2  C   UNL     1      -5.648  -2.064 129.803  0.00  0.00    +0.000 C 
ATOM      3  C   UNL     1      -6.005  -1.003 128.828  0.00  0.00    +0.000 C 
ATOM      4  C   UNL     1      -7.633   0.197 129.349  0.00  0.00    +0.000 C 
ATOM      5  C   UNL     1      -6.302   0.364 129.583  0.00  0.00    +0.000 C 
ATOM      6  C   UNL     1      -6.244   0.916 127.843  0.00  0.00    +0.000 C 
ATOM      7  C   UNL     1      -7.391   0.107 127.025  0.00  0.00    +0.000 C 
ATOM      8  C   UNL     1      -7.789  -1.456 127.377  0.00  0.00    +0.000 C 
ATOM      9  C   UNL     1      -8.870  -1.952 126.530  0.00  0.00    +0.000 C 
ATOM     10  C   UNL     1      -8.487  -1.464 125.277  0.00  0.00    +0.000 C 
ATOM     11  C   UNL     1      -8.329  -0.577 124.213  0.00  0.00    +0.000 C 
ATOM     12  C   UNL     1      -7.957  -2.093 123.542  0.00  0.00    +0.000 C 
ATOM     13  O   UNL     1      -7.385  -2.066 122.507  0.00  0.00    +0.000 OA
ATOM     14  C   UNL     1      -8.192  -3.601 124.738  0.00  0.00    +0.000 C 
ATOM     15  C   UNL     1      -8.588  -3.425 126.132  0.00  0.00    +0.000 C 
ATOM     16  C   UNL     1      -8.879  -4.112 127.569  0.00  0.00    +0.000 C 
ATOM     17  C   UNL     1      -8.104  -3.514 128.807  0.00  0.00    +0.000 C 
ATOM     18  C   UNL     1      -8.075  -1.993 128.828  0.00  0.00    +0.000 C 
ENDROOT
BRANCH   4  19
ATOM     19  O   UNL     1      -7.968   1.626 129.178  0.00  0.00    +0.000 OA
ATOM     20  H   UNL     1      -8.291   1.993 128.347  0.00  0.00    +0.000 HD
ENDBRANCH   4  19
BRANCH   4  21
ATOM     21  C   UNL     1      -8.397   0.171 130.753  0.00  0.00    +0.000 C 
ATOM     22  C   UNL     1      -9.017   0.276 131.765  0.00  0.00    +0.000 C 
ENDBRANCH   4  21
BRANCH   5  23
ATOM     23  C   UNL     1      -5.612   1.196 130.567  0.00  0.00    +0.000 C 
ATOM     24  C   UNL     1      -4.177   1.031 130.144  0.00  0.00    +0.000 C 
ENDBRANCH   5  23
TORSDOF 3
ENDMDL
MODEL 7
REMARK VINA RESULT:      -6.9      7.611      9.310
REMARK  Name = Levonorgestrel
REMARK  4 active torsions:
REMARK  status: ('A' for Active; 'I' for Inactive)
REMARK    1  A    between atoms: C_5  and  O_6
REMARK    2  A    between atoms: C_5  and  C_7
REMARK    3  A    between atoms: C_9  and  C_10
REMARK    4  A    between atoms: C_10  and  C_11
REMARK                            x       y       z     vdW  Elec       q    Type
REMARK                         _______ _______ _______ _____ _____    ______ ____
ROOT
ATOM      1  C   UNL     1      -9.001   4.421 131.909  0.00  0.00    +0.000 C 
ATOM      2  C   UNL     1      -9.912   3.346 131.780  0.00  0.00    +0.000 C 
ATOM      3  C   UNL     1      -9.366   3.881 130.507  0.00  0.00    +0.000 C 
ATOM      4  C   UNL     1      -7.782   5.230 130.694  0.00  0.00    +0.000 C 
ATOM      5  C   UNL     1      -7.776   3.877 130.543  0.00  0.00    +0.000 C 
ATOM      6  C   UNL     1      -8.099   4.249 128.784  0.00  0.00    +0.000 C 
ATOM      7  C   UNL     1      -8.965   5.622 128.716  0.00  0.00    +0.000 C 
ATOM      8  C   UNL     1     -10.091   6.012 129.857  0.00  0.00    +0.000 C 
ATOM      9  C   UNL     1     -10.709   7.310 129.598  0.00  0.00    +0.000 C 
ATOM     10  C   UNL     1     -10.926   7.244 128.218  0.00  0.00    +0.000 C 
ATOM     11  C   UNL     1     -10.669   7.318 126.850  0.00  0.00    +0.000 C 
ATOM     12  C   UNL     1     -12.363   7.237 126.944  0.00  0.00    +0.000 C 
ATOM     13  O   UNL     1     -12.917   6.961 125.936  0.00  0.00    +0.000 OA
ATOM     14  C   UNL     1     -13.087   7.242 128.743  0.00  0.00    +0.000 C 
ATOM     15  C   UNL     1     -12.226   7.240 129.921  0.00  0.00    +0.000 C 
ATOM     16  C   UNL     1     -12.115   7.181 131.535  0.00  0.00    +0.000 C 
ATOM     17  C   UNL     1     -11.174   6.068 132.138  0.00  0.00    +0.000 C 
ATOM     18  C   UNL     1      -9.845   5.935 131.409  0.00  0.00    +0.000 C 
ENDROOT
BRANCH   4  19
ATOM     19  O   UNL     1      -6.555   5.505 129.921  0.00  0.00    +0.000 OA
ATOM     20  H   UNL     1      -5.977   4.807 129.589  0.00  0.00    +0.000 HD
ENDBRANCH   4  19
BRANCH   4  21
ATOM     21  C   UNL     1      -7.024   5.592 132.054  0.00  0.00    +0.000 C 
ATOM     22  C   UNL     1      -6.412   5.975 133.002  0.00  0.00    +0.000 C 
ENDBRANCH   4  21
BRANCH   5  23
ATOM     23  C   UNL     1      -6.731   2.897 130.833  0.00  0.00    +0.000 C 
ATOM     24  C   UNL     1      -7.350   1.633 130.300  0.00  0.00    +0.000 C 
ENDBRANCH   5  23
TORSDOF 3
ENDMDL
MODEL 8
REMARK VINA RESULT:      -6.7      6.102      9.373
REMARK  Name = Levonorgestrel
REMARK  4 active torsions:
REMARK  status: ('A' for Active; 'I' for Inactive)
REMARK    1  A    between atoms: C_5  and  O_6
REMARK    2  A    between atoms: C_5  and  C_7
REMARK    3  A    between atoms: C_9  and  C_10
REMARK    4  A    between atoms: C_10  and  C_11
REMARK                            x       y       z     vdW  Elec       q    Type
REMARK                         _______ _______ _______ _____ _____    ______ ____
ROOT
ATOM      1  C   UNL     1      -2.394   5.635 129.858  0.00  0.00    +0.000 C 
ATOM      2  C   UNL     1      -2.201   6.692 128.938  0.00  0.00    +0.000 C 
ATOM      3  C   UNL     1      -3.592   6.509 129.423  0.00  0.00    +0.000 C 
ATOM      4  C   UNL     1      -3.830   5.182 131.019  0.00  0.00    +0.000 C 
ATOM      5  C   UNL     1      -3.630   6.529 131.013  0.00  0.00    +0.000 C 
ATOM      6  C   UNL     1      -5.409   6.614 130.606  0.00  0.00    +0.000 C 
ATOM      7  C   UNL     1      -5.786   5.290 129.744  0.00  0.00    +0.000 C 
ATOM      8  C   UNL     1      -4.733   4.603 128.675  0.00  0.00    +0.000 C 
ATOM      9  C   UNL     1      -5.287   3.405 128.050  0.00  0.00    +0.000 C 
ATOM     10  C   UNL     1      -6.592   3.819 127.766  0.00  0.00    +0.000 C 
ATOM     11  C   UNL     1      -7.944   4.101 127.957  0.00  0.00    +0.000 C 
ATOM     12  C   UNL     1      -7.754   4.128 126.269  0.00  0.00    +0.000 C 
ATOM     13  O   UNL     1      -8.631   4.644 125.666  0.00  0.00    +0.000 OA
ATOM     14  C   UNL     1      -5.986   3.652 125.633  0.00  0.00    +0.000 C 
ATOM     15  C   UNL     1      -4.887   3.366 126.550  0.00  0.00    +0.000 C 
ATOM     16  C   UNL     1      -3.319   3.012 126.739  0.00  0.00    +0.000 C 
ATOM     17  C   UNL     1      -2.494   3.949 127.705  0.00  0.00    +0.000 C 
ATOM     18  C   UNL     1      -3.226   4.285 128.996  0.00  0.00    +0.000 C 
ENDROOT
BRANCH   4  19
ATOM     19  O   UNL     1      -4.703   5.134 132.209  0.00  0.00    +0.000 OA
ATOM     20  H   UNL     1      -5.556   5.583 132.253  0.00  0.00    +0.000 HD
ENDBRANCH   4  19
BRANCH   4  21
ATOM     21  C   UNL     1      -2.645   4.496 131.843  0.00  0.00    +0.000 C 
ATOM     22  C   UNL     1      -1.828   4.026 132.572  0.00  0.00    +0.000 C 
ENDBRANCH   4  21
BRANCH   5  23
ATOM     23  C   UNL     1      -3.147   7.418 132.067  0.00  0.00    +0.000 C 
ATOM     24  C   UNL     1      -3.177   8.752 131.370  0.00  0.00    +0.000 C 
ENDBRANCH   5  23
TORSDOF 3
ENDMDL
MODEL 9
REMARK VINA RESULT:      -6.5      7.789      9.788
REMARK  Name = Levonorgestrel
REMARK  4 active torsions:
REMARK  status: ('A' for Active; 'I' for Inactive)
REMARK    1  A    between atoms: C_5  and  O_6
REMARK    2  A    between atoms: C_5  and  C_7
REMARK    3  A    between atoms: C_9  and  C_10
REMARK    4  A    between atoms: C_10  and  C_11
REMARK                            x       y       z     vdW  Elec       q    Type
REMARK                         _______ _______ _______ _____ _____    ______ ____
ROOT
ATOM      1  C   UNL     1      -3.582   3.996 130.117  0.00  0.00    +0.000 C 
ATOM      2  C   UNL     1      -3.824   3.817 128.736  0.00  0.00    +0.000 C 
ATOM      3  C   UNL     1      -4.428   5.031 129.341  0.00  0.00    +0.000 C 
ATOM      4  C   UNL     1      -3.807   5.481 131.284  0.00  0.00    +0.000 C 
ATOM      5  C   UNL     1      -3.314   5.891 130.082  0.00  0.00    +0.000 C 
ATOM      6  C   UNL     1      -4.731   7.044 130.093  0.00  0.00    +0.000 C 
ATOM      7  C   UNL     1      -5.951   6.326 130.891  0.00  0.00    +0.000 C 
ATOM      8  C   UNL     1      -6.218   4.699 130.816  0.00  0.00    +0.000 C 
ATOM      9  C   UNL     1      -7.349   4.289 131.645  0.00  0.00    +0.000 C 
ATOM     10  C   UNL     1      -8.282   5.289 131.356  0.00  0.00    +0.000 C 
ATOM     11  C   UNL     1      -8.943   6.516 131.412  0.00  0.00    +0.000 C 
ATOM     12  C   UNL     1     -10.016   5.511 130.560  0.00  0.00    +0.000 C 
ATOM     13  O   UNL     1     -10.871   6.069 129.963  0.00  0.00    +0.000 OA
ATOM     14  C   UNL     1      -9.455   3.662 130.395  0.00  0.00    +0.000 C 
ATOM     15  C   UNL     1      -8.169   3.198 130.906  0.00  0.00    +0.000 C 
ATOM     16  C   UNL     1      -7.117   1.977 131.058  0.00  0.00    +0.000 C 
ATOM     17  C   UNL     1      -5.640   2.253 130.574  0.00  0.00    +0.000 C 
ATOM     18  C   UNL     1      -5.101   3.608 131.009  0.00  0.00    +0.000 C 
ENDROOT
BRANCH   4  19
ATOM     19  O   UNL     1      -3.537   6.729 132.025  0.00  0.00    +0.000 OA
ATOM     20  H   UNL     1      -2.756   7.274 131.869  0.00  0.00    +0.000 HD
ENDBRANCH   4  19
BRANCH   4  21
ATOM     21  C   UNL     1      -2.640   4.737 132.084  0.00  0.00    +0.000 C 
ATOM     22  C   UNL     1      -1.761   4.297 132.757  0.00  0.00    +0.000 C 
ENDBRANCH   4  21
BRANCH   5  23
ATOM     23  C   UNL     1      -2.008   6.447 129.736  0.00  0.00    +0.000 C 
ATOM     24  C   UNL     1      -2.203   6.784 128.281  0.00  0.00    +0.000 C 
ENDBRANCH   5  23
TORSDOF 3
ENDMDL
