MODEL 1
REMARK VINA RESULT:      -8.9      0.000      0.000
REMARK  Name = Levocabastine
REMARK  7 active torsions:
REMARK  status: ('A' for Active; 'I' for Inactive)
REMARK    1  A    between atoms: C_1  and  C_2
REMARK    2  A    between atoms: N_4  and  C_17
REMARK    3  A    between atoms: C_7  and  C_8
REMARK    4  A    between atoms: C_7  and  C_11
REMARK    5  A    between atoms: C_8  and  O_9
REMARK    6  A    between atoms: C_20  and  C_23
REMARK    7  A    between atoms: C_20  and  C_25
REMARK                            x       y       z     vdW  Elec       q    Type
REMARK                         _______ _______ _______ _____ _____    ______ ____
ROOT
ATOM      1  C   UNL     1      -5.707   3.876 124.354  0.00  0.00    +0.000 C 
ATOM      2  C   UNL     1      -7.047   3.157 124.589  0.00  0.00    +0.000 C 
ATOM      3  C   UNL     1      -6.844   2.297 125.843  0.00  0.00    +0.000 C 
ATOM      4  N   UNL     1      -5.996   1.111 125.596  0.00  0.00    +0.000 NA
ATOM      5  C   UNL     1      -6.503   0.277 124.491  0.00  0.00    +0.000 C 
ATOM      6  C   UNL     1      -6.712   1.048 123.212  0.00  0.00    +0.000 C 
ATOM      7  C   UNL     1      -7.638   2.280 123.415  0.00  0.00    +0.000 C 
ENDROOT
BRANCH   7   8
ATOM      8  C   UNL     1      -7.609   3.062 122.080  0.00  0.00    +0.000 A 
ATOM      9  C   UNL     1      -8.743   3.537 121.433  0.00  0.00    +0.000 A 
ATOM     10  C   UNL     1      -8.733   3.934 120.107  0.00  0.00    +0.000 A 
ATOM     11  C   UNL     1      -7.529   4.281 119.531  0.00  0.00    +0.000 A 
ATOM     12  C   UNL     1      -6.351   4.024 120.210  0.00  0.00    +0.000 A 
ATOM     13  C   UNL     1      -6.395   3.334 121.417  0.00  0.00    +0.000 A 
ENDBRANCH   7   8
BRANCH   4  14
ATOM     14  C   UNL     1      -5.887   0.315 126.835  0.00  0.00    +0.000 C 
ATOM     15  C   UNL     1      -7.209   0.355 127.614  0.00  0.00    +0.000 C 
ATOM     16  C   UNL     1      -7.250  -0.567 128.782  0.00  0.00    +0.000 C 
ATOM     17  C   UNL     1      -6.825  -2.010 128.479  0.00  0.00    +0.000 C 
ATOM     18  C   UNL     1      -5.428  -1.990 127.789  0.00  0.00    +0.000 C 
ATOM     19  C   UNL     1      -5.446  -1.127 126.531  0.00  0.00    +0.000 C 
BRANCH  17  20
ATOM     20  C   UNL     1      -6.763  -2.755 129.811  0.00  0.00    +0.000 A 
ATOM     21  C   UNL     1      -7.541  -2.361 130.923  0.00  0.00    +0.000 A 
ATOM     22  C   UNL     1      -7.341  -2.922 132.169  0.00  0.00    +0.000 A 
ATOM     23  C   UNL     1      -6.478  -3.993 132.283  0.00  0.00    +0.000 A 
ATOM     24  F   UNL     1      -6.370  -4.613 133.462  0.00  0.00    +0.000 F 
ATOM     25  C   UNL     1      -5.751  -4.455 131.192  0.00  0.00    +0.000 A 
ATOM     26  C   UNL     1      -5.883  -3.833 129.956  0.00  0.00    +0.000 A 
ENDBRANCH  17  20
BRANCH  17  27
ATOM     27  C   UNL     1      -7.785  -2.687 127.566  0.00  0.00    +0.000 C 
ATOM     28  N   UNL     1      -8.602  -3.226 126.925  0.00  0.00    +0.000 NA
ENDBRANCH  17  27
ENDBRANCH   4  14
BRANCH   7  29
ATOM     29  C   UNL     1      -9.061   1.712 123.914  0.00  0.00    +0.000 C 
ATOM     30  O   UNL     1      -9.504   0.609 123.608  0.00  0.00    +0.000 OA
BRANCH  29  31
ATOM     31  O   UNL     1      -9.872   2.409 124.723  0.00  0.00    +0.000 OA
ATOM     32  H   UNL     1      -9.588   2.563 125.633  0.00  0.00    +0.000 HD
ENDBRANCH  29  31
ENDBRANCH   7  29
TORSDOF 6
ENDMDL
MODEL 2
REMARK VINA RESULT:      -8.8      6.547      9.495
REMARK  Name = Levocabastine
REMARK  7 active torsions:
REMARK  status: ('A' for Active; 'I' for Inactive)
REMARK    1  A    between atoms: C_1  and  C_2
REMARK    2  A    between atoms: N_4  and  C_17
REMARK    3  A    between atoms: C_7  and  C_8
REMARK    4  A    between atoms: C_7  and  C_11
REMARK    5  A    between atoms: C_8  and  O_9
REMARK    6  A    between atoms: C_20  and  C_23
REMARK    7  A    between atoms: C_20  and  C_25
REMARK                            x       y       z     vdW  Elec       q    Type
REMARK                         _______ _______ _______ _____ _____    ______ ____
ROOT
ATOM      1  C   UNL     1      -3.058   4.298 132.148  0.00  0.00    +0.000 C 
ATOM      2  C   UNL     1      -3.919   5.294 131.352  0.00  0.00    +0.000 C 
ATOM      3  C   UNL     1      -4.675   4.454 130.315  0.00  0.00    +0.000 C 
ATOM      4  N   UNL     1      -3.808   3.980 129.215  0.00  0.00    +0.000 NA
ATOM      5  C   UNL     1      -3.096   5.083 128.545  0.00  0.00    +0.000 C 
ATOM      6  C   UNL     1      -2.309   5.948 129.497  0.00  0.00    +0.000 C 
ATOM      7  C   UNL     1      -3.193   6.509 130.646  0.00  0.00    +0.000 C 
ENDROOT
BRANCH   7   8
ATOM      8  C   UNL     1      -2.226   7.212 131.628  0.00  0.00    +0.000 A 
ATOM      9  C   UNL     1      -0.913   6.813 131.845  0.00  0.00    +0.000 A 
ATOM     10  C   UNL     1      -0.180   7.231 132.942  0.00  0.00    +0.000 A 
ATOM     11  C   UNL     1      -0.569   8.379 133.599  0.00  0.00    +0.000 A 
ATOM     12  C   UNL     1      -1.787   8.960 133.289  0.00  0.00    +0.000 A 
ATOM     13  C   UNL     1      -2.639   8.324 132.391  0.00  0.00    +0.000 A 
ENDBRANCH   7   8
BRANCH   4  14
ATOM     14  C   UNL     1      -4.617   3.220 128.240  0.00  0.00    +0.000 C 
ATOM     15  C   UNL     1      -6.086   3.662 128.306  0.00  0.00    +0.000 C 
ATOM     16  C   UNL     1      -6.939   3.081 127.234  0.00  0.00    +0.000 C 
ATOM     17  C   UNL     1      -6.377   3.226 125.813  0.00  0.00    +0.000 C 
ATOM     18  C   UNL     1      -4.924   2.661 125.786  0.00  0.00    +0.000 C 
ATOM     19  C   UNL     1      -4.043   3.354 126.820  0.00  0.00    +0.000 C 
BRANCH  17  20
ATOM     20  C   UNL     1      -7.288   2.430 124.880  0.00  0.00    +0.000 A 
ATOM     21  C   UNL     1      -8.592   2.869 124.558  0.00  0.00    +0.000 A 
ATOM     22  C   UNL     1      -9.469   2.056 123.867  0.00  0.00    +0.000 A 
ATOM     23  C   UNL     1      -9.000   0.864 123.351  0.00  0.00    +0.000 A 
ATOM     24  F   UNL     1      -9.812   0.130 122.583  0.00  0.00    +0.000 F 
ATOM     25  C   UNL     1      -7.699   0.436 123.586  0.00  0.00    +0.000 A 
ATOM     26  C   UNL     1      -6.842   1.211 124.358  0.00  0.00    +0.000 A 
ENDBRANCH  17  20
BRANCH  17  27
ATOM     27  C   UNL     1      -6.330   4.648 125.381  0.00  0.00    +0.000 C 
ATOM     28  N   UNL     1      -6.262   5.790 125.133  0.00  0.00    +0.000 NA
ENDBRANCH  17  27
ENDBRANCH   4  14
BRANCH   7  29
ATOM     29  C   UNL     1      -4.336   7.409 129.954  0.00  0.00    +0.000 C 
ATOM     30  O   UNL     1      -5.493   7.479 130.360  0.00  0.00    +0.000 OA
BRANCH  29  31
ATOM     31  O   UNL     1      -4.101   8.169 128.875  0.00  0.00    +0.000 OA
ATOM     32  H   UNL     1      -4.858   8.536 128.401  0.00  0.00    +0.000 HD
ENDBRANCH  29  31
ENDBRANCH   7  29
TORSDOF 6
ENDMDL
MODEL 3
REMARK VINA RESULT:      -8.7      1.305      1.862
REMARK  Name = Levocabastine
REMARK  7 active torsions:
REMARK  status: ('A' for Active; 'I' for Inactive)
REMARK    1  A    between atoms: C_1  and  C_2
REMARK    2  A    between atoms: N_4  and  C_17
REMARK    3  A    between atoms: C_7  and  C_8
REMARK    4  A    between atoms: C_7  and  C_11
REMARK    5  A    between atoms: C_8  and  O_9
REMARK    6  A    between atoms: C_20  and  C_23
REMARK    7  A    between atoms: C_20  and  C_25
REMARK                            x       y       z     vdW  Elec       q    Type
REMARK                         _______ _______ _______ _____ _____    ______ ____
ROOT
ATOM      1  C   UNL     1      -6.117   3.031 124.942  0.00  0.00    +0.000 C 
ATOM      2  C   UNL     1      -7.519   2.401 124.874  0.00  0.00    +0.000 C 
ATOM      3  C   UNL     1      -7.570   1.376 126.014  0.00  0.00    +0.000 C 
ATOM      4  N   UNL     1      -6.769   0.165 125.734  0.00  0.00    +0.000 NA
ATOM      5  C   UNL     1      -7.146  -0.479 124.463  0.00  0.00    +0.000 C 
ATOM      6  C   UNL     1      -7.102   0.462 123.285  0.00  0.00    +0.000 C 
ATOM      7  C   UNL     1      -7.971   1.731 123.515  0.00  0.00    +0.000 C 
ENDROOT
BRANCH   7   8
ATOM      8  C   UNL     1      -7.683   2.671 122.321  0.00  0.00    +0.000 A 
ATOM      9  C   UNL     1      -8.666   3.348 121.610  0.00  0.00    +0.000 A 
ATOM     10  C   UNL     1      -8.434   3.908 120.366  0.00  0.00    +0.000 A 
ATOM     11  C   UNL     1      -7.134   4.191 120.002  0.00  0.00    +0.000 A 
ATOM     12  C   UNL     1      -6.092   3.721 120.780  0.00  0.00    +0.000 A 
ATOM     13  C   UNL     1      -6.368   2.889 121.862  0.00  0.00    +0.000 A 
ENDBRANCH   7   8
BRANCH   4  14
ATOM     14  C   UNL     1      -6.906  -0.788 126.855  0.00  0.00    +0.000 C 
ATOM     15  C   UNL     1      -5.633  -1.634 126.995  0.00  0.00    +0.000 C 
ATOM     16  C   UNL     1      -5.609  -2.493 128.210  0.00  0.00    +0.000 C 
ATOM     17  C   UNL     1      -5.940  -1.766 129.519  0.00  0.00    +0.000 C 
ATOM     18  C   UNL     1      -7.297  -1.016 129.351  0.00  0.00    +0.000 C 
ATOM     19  C   UNL     1      -7.254  -0.058 128.163  0.00  0.00    +0.000 C 
BRANCH  17  20
ATOM     20  C   UNL     1      -6.038  -2.825 130.616  0.00  0.00    +0.000 A 
ATOM     21  C   UNL     1      -6.750  -2.592 131.815  0.00  0.00    +0.000 A 
ATOM     22  C   UNL     1      -6.677  -3.478 132.872  0.00  0.00    +0.000 A 
ATOM     23  C   UNL     1      -6.027  -4.682 132.683  0.00  0.00    +0.000 A 
ATOM     24  F   UNL     1      -6.055  -5.591 133.663  0.00  0.00    +0.000 F 
ATOM     25  C   UNL     1      -5.380  -4.975 131.489  0.00  0.00    +0.000 A 
ATOM     26  C   UNL     1      -5.374  -4.045 130.456  0.00  0.00    +0.000 A 
ENDBRANCH  17  20
BRANCH  17  27
ATOM     27  C   UNL     1      -4.898  -0.766 129.874  0.00  0.00    +0.000 C 
ATOM     28  N   UNL     1      -4.150   0.077 130.191  0.00  0.00    +0.000 NA
ENDBRANCH  17  27
ENDBRANCH   4  14
BRANCH   7  29
ATOM     29  C   UNL     1      -9.486   1.224 123.716  0.00  0.00    +0.000 C 
ATOM     30  O   UNL     1      -9.943   0.207 123.200  0.00  0.00    +0.000 OA
BRANCH  29  31
ATOM     31  O   UNL     1     -10.371   1.879 124.481  0.00  0.00    +0.000 OA
ATOM     32  H   UNL     1     -10.462   1.614 125.404  0.00  0.00    +0.000 HD
ENDBRANCH  29  31
ENDBRANCH   7  29
TORSDOF 6
ENDMDL
MODEL 4
REMARK VINA RESULT:      -8.4      3.602      9.501
REMARK  Name = Levocabastine
REMARK  7 active torsions:
REMARK  status: ('A' for Active; 'I' for Inactive)
REMARK    1  A    between atoms: C_1  and  C_2
REMARK    2  A    between atoms: N_4  and  C_17
REMARK    3  A    between atoms: C_7  and  C_8
REMARK    4  A    between atoms: C_7  and  C_11
REMARK    5  A    between atoms: C_8  and  O_9
REMARK    6  A    between atoms: C_20  and  C_23
REMARK    7  A    between atoms: C_20  and  C_25
REMARK                            x       y       z     vdW  Elec       q    Type
REMARK                         _______ _______ _______ _____ _____    ______ ____
ROOT
ATOM      1  C   UNL     1      -3.978  -2.448 129.165  0.00  0.00    +0.000 C 
ATOM      2  C   UNL     1      -5.298  -2.795 128.455  0.00  0.00    +0.000 C 
ATOM      3  C   UNL     1      -5.341  -1.912 127.202  0.00  0.00    +0.000 C 
ATOM      4  N   UNL     1      -5.619  -0.492 127.506  0.00  0.00    +0.000 NA
ATOM      5  C   UNL     1      -6.857  -0.316 128.287  0.00  0.00    +0.000 C 
ATOM      6  C   UNL     1      -6.885  -1.139 129.550  0.00  0.00    +0.000 C 
ATOM      7  C   UNL     1      -6.644  -2.649 129.272  0.00  0.00    +0.000 C 
ENDROOT
BRANCH   7   8
ATOM      8  C   UNL     1      -6.519  -3.326 130.657  0.00  0.00    +0.000 A 
ATOM      9  C   UNL     1      -7.117  -2.844 131.815  0.00  0.00    +0.000 A 
ATOM     10  C   UNL     1      -6.734  -3.259 133.079  0.00  0.00    +0.000 A 
ATOM     11  C   UNL     1      -6.073  -4.462 133.207  0.00  0.00    +0.000 A 
ATOM     12  C   UNL     1      -5.621  -5.114 132.073  0.00  0.00    +0.000 A 
ATOM     13  C   UNL     1      -5.756  -4.499 130.832  0.00  0.00    +0.000 A 
ENDBRANCH   7   8
BRANCH   4  14
ATOM     14  C   UNL     1      -5.687   0.279 126.248  0.00  0.00    +0.000 C 
ATOM     15  C   UNL     1      -6.516  -0.479 125.202  0.00  0.00    +0.000 C 
ATOM     16  C   UNL     1      -6.792   0.304 123.967  0.00  0.00    +0.000 C 
ATOM     17  C   UNL     1      -7.354   1.712 124.209  0.00  0.00    +0.000 C 
ATOM     18  C   UNL     1      -6.411   2.469 125.192  0.00  0.00    +0.000 C 
ATOM     19  C   UNL     1      -6.236   1.695 126.495  0.00  0.00    +0.000 C 
BRANCH  17  20
ATOM     20  C   UNL     1      -7.408   2.419 122.856  0.00  0.00    +0.000 A 
ATOM     21  C   UNL     1      -6.235   2.754 122.142  0.00  0.00    +0.000 A 
ATOM     22  C   UNL     1      -6.287   3.554 121.017  0.00  0.00    +0.000 A 
ATOM     23  C   UNL     1      -7.523   3.890 120.501  0.00  0.00    +0.000 A 
ATOM     24  F   UNL     1      -7.578   4.564 119.348  0.00  0.00    +0.000 F 
ATOM     25  C   UNL     1      -8.700   3.513 121.137  0.00  0.00    +0.000 A 
ATOM     26  C   UNL     1      -8.646   2.786 122.320  0.00  0.00    +0.000 A 
ENDBRANCH  17  20
BRANCH  17  27
ATOM     27  C   UNL     1      -8.713   1.667 124.810  0.00  0.00    +0.000 C 
ATOM     28  N   UNL     1      -9.739   1.634 125.373  0.00  0.00    +0.000 NA
ENDBRANCH  17  27
ENDBRANCH   4  14
BRANCH   7  29
ATOM     29  C   UNL     1      -7.840  -3.139 128.309  0.00  0.00    +0.000 C 
ATOM     30  O   UNL     1      -7.765  -3.167 127.084  0.00  0.00    +0.000 OA
BRANCH  29  31
ATOM     31  O   UNL     1      -9.017  -3.570 128.784  0.00  0.00    +0.000 OA
ATOM     32  H   UNL     1      -9.013  -4.171 129.539  0.00  0.00    +0.000 HD
ENDBRANCH  29  31
ENDBRANCH   7  29
TORSDOF 6
ENDMDL
MODEL 5
REMARK VINA RESULT:      -8.4      1.791      2.683
REMARK  Name = Levocabastine
REMARK  7 active torsions:
REMARK  status: ('A' for Active; 'I' for Inactive)
REMARK    1  A    between atoms: C_1  and  C_2
REMARK    2  A    between atoms: N_4  and  C_17
REMARK    3  A    between atoms: C_7  and  C_8
REMARK    4  A    between atoms: C_7  and  C_11
REMARK    5  A    between atoms: C_8  and  O_9
REMARK    6  A    between atoms: C_20  and  C_23
REMARK    7  A    between atoms: C_20  and  C_25
REMARK                            x       y       z     vdW  Elec       q    Type
REMARK                         _______ _______ _______ _____ _____    ______ ____
ROOT
ATOM      1  C   UNL     1      -7.173  -0.520 123.442  0.00  0.00    +0.000 C 
ATOM      2  C   UNL     1      -6.532   0.482 124.419  0.00  0.00    +0.000 C 
ATOM      3  C   UNL     1      -6.588  -0.189 125.797  0.00  0.00    +0.000 C 
ATOM      4  N   UNL     1      -7.951  -0.217 126.369  0.00  0.00    +0.000 NA
ATOM      5  C   UNL     1      -8.561   1.124 126.438  0.00  0.00    +0.000 C 
ATOM      6  C   UNL     1      -8.563   1.844 125.114  0.00  0.00    +0.000 C 
ATOM      7  C   UNL     1      -7.139   1.940 124.496  0.00  0.00    +0.000 C 
ENDROOT
BRANCH   7   8
ATOM      8  C   UNL     1      -7.324   2.530 123.078  0.00  0.00    +0.000 A 
ATOM      9  C   UNL     1      -6.276   2.820 122.214  0.00  0.00    +0.000 A 
ATOM     10  C   UNL     1      -6.429   3.637 121.106  0.00  0.00    +0.000 A 
ATOM     11  C   UNL     1      -7.694   3.822 120.592  0.00  0.00    +0.000 A 
ATOM     12  C   UNL     1      -8.791   3.373 121.305  0.00  0.00    +0.000 A 
ATOM     13  C   UNL     1      -8.606   2.829 122.572  0.00  0.00    +0.000 A 
ENDBRANCH   7   8
BRANCH   4  14
ATOM     14  C   UNL     1      -7.913  -0.836 127.710  0.00  0.00    +0.000 C 
ATOM     15  C   UNL     1      -7.930  -2.366 127.593  0.00  0.00    +0.000 C 
ATOM     16  C   UNL     1      -7.708  -3.074 128.883  0.00  0.00    +0.000 C 
ATOM     17  C   UNL     1      -6.491  -2.590 129.683  0.00  0.00    +0.000 C 
ATOM     18  C   UNL     1      -6.588  -1.045 129.863  0.00  0.00    +0.000 C 
ATOM     19  C   UNL     1      -6.701  -0.338 128.515  0.00  0.00    +0.000 C 
BRANCH  17  20
ATOM     20  C   UNL     1      -6.525  -3.298 131.036  0.00  0.00    +0.000 A 
ATOM     21  C   UNL     1      -7.378  -2.871 132.079  0.00  0.00    +0.000 A 
ATOM     22  C   UNL     1      -7.268  -3.397 133.352  0.00  0.00    +0.000 A 
ATOM     23  C   UNL     1      -6.419  -4.466 133.555  0.00  0.00    +0.000 A 
ATOM     24  F   UNL     1      -6.396  -5.053 134.756  0.00  0.00    +0.000 F 
ATOM     25  C   UNL     1      -5.619  -4.960 132.531  0.00  0.00    +0.000 A 
ATOM     26  C   UNL     1      -5.662  -4.373 131.272  0.00  0.00    +0.000 A 
ENDBRANCH  17  20
BRANCH  17  27
ATOM     27  C   UNL     1      -5.215  -2.897 128.984  0.00  0.00    +0.000 C 
ATOM     28  N   UNL     1      -4.199  -3.041 128.421  0.00  0.00    +0.000 NA
ENDBRANCH  17  27
ENDBRANCH   4  14
BRANCH   7  29
ATOM     29  C   UNL     1      -6.238   2.775 125.538  0.00  0.00    +0.000 C 
ATOM     30  O   UNL     1      -5.082   2.483 125.833  0.00  0.00    +0.000 OA
BRANCH  29  31
ATOM     31  O   UNL     1      -6.686   3.875 126.160  0.00  0.00    +0.000 OA
ATOM     32  H   UNL     1      -6.250   4.716 125.973  0.00  0.00    +0.000 HD
ENDBRANCH  29  31
ENDBRANCH   7  29
TORSDOF 6
ENDMDL
MODEL 6
REMARK VINA RESULT:      -8.4      6.219     10.064
REMARK  Name = Levocabastine
REMARK  7 active torsions:
REMARK  status: ('A' for Active; 'I' for Inactive)
REMARK    1  A    between atoms: C_1  and  C_2
REMARK    2  A    between atoms: N_4  and  C_17
REMARK    3  A    between atoms: C_7  and  C_8
REMARK    4  A    between atoms: C_7  and  C_11
REMARK    5  A    between atoms: C_8  and  O_9
REMARK    6  A    between atoms: C_20  and  C_23
REMARK    7  A    between atoms: C_20  and  C_25
REMARK                            x       y       z     vdW  Elec       q    Type
REMARK                         _______ _______ _______ _____ _____    ______ ____
ROOT
ATOM      1  C   UNL     1      -7.666  -0.195 132.394  0.00  0.00    +0.000 C 
ATOM      2  C   UNL     1      -6.717   0.626 131.505  0.00  0.00    +0.000 C 
ATOM      3  C   UNL     1      -7.513   1.868 131.083  0.00  0.00    +0.000 C 
ATOM      4  N   UNL     1      -8.556   1.570 130.079  0.00  0.00    +0.000 NA
ATOM      5  C   UNL     1      -8.014   0.893 128.887  0.00  0.00    +0.000 C 
ATOM      6  C   UNL     1      -7.232  -0.353 129.216  0.00  0.00    +0.000 C 
ATOM      7  C   UNL     1      -6.090  -0.077 130.235  0.00  0.00    +0.000 C 
ENDROOT
BRANCH   7   8
ATOM      8  C   UNL     1      -5.505  -1.459 130.609  0.00  0.00    +0.000 A 
ATOM      9  C   UNL     1      -6.022  -2.669 130.161  0.00  0.00    +0.000 A 
ATOM     10  C   UNL     1      -5.705  -3.879 130.754  0.00  0.00    +0.000 A 
ATOM     11  C   UNL     1      -4.551  -3.966 131.504  0.00  0.00    +0.000 A 
ATOM     12  C   UNL     1      -3.859  -2.811 131.822  0.00  0.00    +0.000 A 
ATOM     13  C   UNL     1      -4.390  -1.575 131.464  0.00  0.00    +0.000 A 
ENDBRANCH   7   8
BRANCH   4  14
ATOM     14  C   UNL     1      -9.244   2.820 129.695  0.00  0.00    +0.000 C 
ATOM     15  C   UNL     1     -10.432   3.085 130.630  0.00  0.00    +0.000 C 
ATOM     16  C   UNL     1     -11.072   4.414 130.433  0.00  0.00    +0.000 C 
ATOM     17  C   UNL     1     -10.099   5.601 130.418  0.00  0.00    +0.000 C 
ATOM     18  C   UNL     1      -8.978   5.321 129.372  0.00  0.00    +0.000 C 
ATOM     19  C   UNL     1      -8.265   4.005 129.666  0.00  0.00    +0.000 C 
BRANCH  17  20
ATOM     20  C   UNL     1     -10.902   6.843 130.035  0.00  0.00    +0.000 A 
ATOM     21  C   UNL     1     -11.992   7.295 130.814  0.00  0.00    +0.000 A 
ATOM     22  C   UNL     1     -12.822   8.302 130.363  0.00  0.00    +0.000 A 
ATOM     23  C   UNL     1     -12.477   8.978 129.208  0.00  0.00    +0.000 A 
ATOM     24  F   UNL     1     -13.213  10.029 128.832  0.00  0.00    +0.000 F 
ATOM     25  C   UNL     1     -11.368   8.607 128.457  0.00  0.00    +0.000 A 
ATOM     26  C   UNL     1     -10.584   7.534 128.862  0.00  0.00    +0.000 A 
ENDBRANCH  17  20
BRANCH  17  27
ATOM     27  C   UNL     1      -9.457   5.804 131.744  0.00  0.00    +0.000 C 
ATOM     28  N   UNL     1      -9.033   6.012 132.815  0.00  0.00    +0.000 NA
ENDBRANCH  17  27
ENDBRANCH   4  14
BRANCH   7  29
ATOM     29  C   UNL     1      -5.099   0.987 129.542  0.00  0.00    +0.000 C 
ATOM     30  O   UNL     1      -4.624   1.960 130.122  0.00  0.00    +0.000 OA
BRANCH  29  31
ATOM     31  O   UNL     1      -4.705   0.881 128.265  0.00  0.00    +0.000 OA
ATOM     32  H   UNL     1      -3.931   0.339 128.069  0.00  0.00    +0.000 HD
ENDBRANCH  29  31
ENDBRANCH   7  29
TORSDOF 6
ENDMDL
MODEL 7
REMARK VINA RESULT:      -8.3      4.480     10.226
REMARK  Name = Levocabastine
REMARK  7 active torsions:
REMARK  status: ('A' for Active; 'I' for Inactive)
REMARK    1  A    between atoms: C_1  and  C_2
REMARK    2  A    between atoms: N_4  and  C_17
REMARK    3  A    between atoms: C_7  and  C_8
REMARK    4  A    between atoms: C_7  and  C_11
REMARK    5  A    between atoms: C_8  and  O_9
REMARK    6  A    between atoms: C_20  and  C_23
REMARK    7  A    between atoms: C_20  and  C_25
REMARK                            x       y       z     vdW  Elec       q    Type
REMARK                         _______ _______ _______ _____ _____    ______ ____
ROOT
ATOM      1  C   UNL     1      -7.159  -3.222 133.448  0.00  0.00    +0.000 C 
ATOM      2  C   UNL     1      -6.088  -2.670 132.490  0.00  0.00    +0.000 C 
ATOM      3  C   UNL     1      -6.854  -2.135 131.275  0.00  0.00    +0.000 C 
ATOM      4  N   UNL     1      -7.391  -3.210 130.413  0.00  0.00    +0.000 NA
ATOM      5  C   UNL     1      -6.348  -4.153 129.973  0.00  0.00    +0.000 C 
ATOM      6  C   UNL     1      -5.559  -4.741 131.115  0.00  0.00    +0.000 C 
ATOM      7  C   UNL     1      -4.934  -3.644 132.023  0.00  0.00    +0.000 C 
ENDROOT
BRANCH   7   8
ATOM      8  C   UNL     1      -4.321  -4.387 133.234  0.00  0.00    +0.000 A 
ATOM      9  C   UNL     1      -4.509  -5.738 133.493  0.00  0.00    +0.000 A 
ATOM     10  C   UNL     1      -4.239  -6.305 134.727  0.00  0.00    +0.000 A 
ATOM     11  C   UNL     1      -3.378  -5.649 135.580  0.00  0.00    +0.000 A 
ATOM     12  C   UNL     1      -2.977  -4.359 135.283  0.00  0.00    +0.000 A 
ATOM     13  C   UNL     1      -3.525  -3.710 134.181  0.00  0.00    +0.000 A 
ENDBRANCH   7   8
BRANCH   4  14
ATOM     14  C   UNL     1      -8.074  -2.614 129.246  0.00  0.00    +0.000 C 
ATOM     15  C   UNL     1      -7.332  -1.353 128.780  0.00  0.00    +0.000 C 
ATOM     16  C   UNL     1      -7.842  -0.791 127.500  0.00  0.00    +0.000 C 
ATOM     17  C   UNL     1      -7.982  -1.808 126.360  0.00  0.00    +0.000 C 
ATOM     18  C   UNL     1      -8.837  -3.012 126.860  0.00  0.00    +0.000 C 
ATOM     19  C   UNL     1      -8.228  -3.639 128.111  0.00  0.00    +0.000 C 
BRANCH  17  20
ATOM     20  C   UNL     1      -8.674  -1.097 125.198  0.00  0.00    +0.000 A 
ATOM     21  C   UNL     1      -8.815  -1.706 123.930  0.00  0.00    +0.000 A 
ATOM     22  C   UNL     1      -9.272  -0.990 122.841  0.00  0.00    +0.000 A 
ATOM     23  C   UNL     1      -9.745   0.292 123.043  0.00  0.00    +0.000 A 
ATOM     24  F   UNL     1     -10.296   0.945 122.015  0.00  0.00    +0.000 F 
ATOM     25  C   UNL     1      -9.690   0.895 124.294  0.00  0.00    +0.000 A 
ATOM     26  C   UNL     1      -9.146   0.208 125.372  0.00  0.00    +0.000 A 
ENDBRANCH  17  20
BRANCH  17  27
ATOM     27  C   UNL     1      -6.660  -2.329 125.919  0.00  0.00    +0.000 C 
ATOM     28  N   UNL     1      -5.588  -2.644 125.574  0.00  0.00    +0.000 NA
ENDBRANCH  17  27
ENDBRANCH   4  14
BRANCH   7  29
ATOM     29  C   UNL     1      -3.936  -2.787 131.093  0.00  0.00    +0.000 C 
ATOM     30  O   UNL     1      -3.134  -3.285 130.308  0.00  0.00    +0.000 OA
BRANCH  29  31
ATOM     31  O   UNL     1      -3.916  -1.446 131.099  0.00  0.00    +0.000 OA
ATOM     32  H   UNL     1      -3.491  -0.992 130.361  0.00  0.00    +0.000 HD
ENDBRANCH  29  31
ENDBRANCH   7  29
TORSDOF 6
ENDMDL
MODEL 8
REMARK VINA RESULT:      -8.2      5.228      6.606
REMARK  Name = Levocabastine
REMARK  7 active torsions:
REMARK  status: ('A' for Active; 'I' for Inactive)
REMARK    1  A    between atoms: C_1  and  C_2
REMARK    2  A    between atoms: N_4  and  C_17
REMARK    3  A    between atoms: C_7  and  C_8
REMARK    4  A    between atoms: C_7  and  C_11
REMARK    5  A    between atoms: C_8  and  O_9
REMARK    6  A    between atoms: C_20  and  C_23
REMARK    7  A    between atoms: C_20  and  C_25
REMARK                            x       y       z     vdW  Elec       q    Type
REMARK                         _______ _______ _______ _____ _____    ______ ____
ROOT
ATOM      1  C   UNL     1      -8.618   4.750 128.250  0.00  0.00    +0.000 C 
ATOM      2  C   UNL     1      -8.636   5.071 129.754  0.00  0.00    +0.000 C 
ATOM      3  C   UNL     1      -7.990   3.864 130.446  0.00  0.00    +0.000 C 
ATOM      4  N   UNL     1      -8.866   2.673 130.462  0.00  0.00    +0.000 NA
ATOM      5  C   UNL     1     -10.183   2.951 131.064  0.00  0.00    +0.000 C 
ATOM      6  C   UNL     1     -10.894   4.117 130.425  0.00  0.00    +0.000 C 
ATOM      7  C   UNL     1     -10.027   5.407 130.428  0.00  0.00    +0.000 C 
ENDROOT
BRANCH   7   8
ATOM      8  C   UNL     1     -10.803   6.449 129.589  0.00  0.00    +0.000 A 
ATOM      9  C   UNL     1     -10.264   7.651 129.150  0.00  0.00    +0.000 A 
ATOM     10  C   UNL     1     -11.049   8.698 128.697  0.00  0.00    +0.000 A 
ATOM     11  C   UNL     1     -12.327   8.424 128.259  0.00  0.00    +0.000 A 
ATOM     12  C   UNL     1     -12.866   7.169 128.478  0.00  0.00    +0.000 A 
ATOM     13  C   UNL     1     -12.149   6.237 129.222  0.00  0.00    +0.000 A 
ENDBRANCH   7   8
BRANCH   4  14
ATOM     14  C   UNL     1      -8.192   1.573 131.181  0.00  0.00    +0.000 C 
ATOM     15  C   UNL     1      -9.199   0.469 131.532  0.00  0.00    +0.000 C 
ATOM     16  C   UNL     1      -8.575  -0.760 132.095  0.00  0.00    +0.000 C 
ATOM     17  C   UNL     1      -7.399  -1.317 131.281  0.00  0.00    +0.000 C 
ATOM     18  C   UNL     1      -6.360  -0.177 131.052  0.00  0.00    +0.000 C 
ATOM     19  C   UNL     1      -7.004   1.027 130.371  0.00  0.00    +0.000 C 
BRANCH  17  20
ATOM     20  C   UNL     1      -6.784  -2.457 132.091  0.00  0.00    +0.000 A 
ATOM     21  C   UNL     1      -6.030  -3.483 131.478  0.00  0.00    +0.000 A 
ATOM     22  C   UNL     1      -5.638  -4.602 132.187  0.00  0.00    +0.000 A 
ATOM     23  C   UNL     1      -5.854  -4.630 133.551  0.00  0.00    +0.000 A 
ATOM     24  F   UNL     1      -5.373  -5.657 134.259  0.00  0.00    +0.000 F 
ATOM     25  C   UNL     1      -6.528  -3.601 134.199  0.00  0.00    +0.000 A 
ATOM     26  C   UNL     1      -7.003  -2.518 133.471  0.00  0.00    +0.000 A 
ENDBRANCH  17  20
BRANCH  17  27
ATOM     27  C   UNL     1      -7.837  -1.820 129.952  0.00  0.00    +0.000 C 
ATOM     28  N   UNL     1      -8.263  -2.252 128.951  0.00  0.00    +0.000 NA
ENDBRANCH  17  27
ENDBRANCH   4  14
BRANCH   7  29
ATOM     29  C   UNL     1      -9.734   5.764 131.971  0.00  0.00    +0.000 C 
ATOM     30  O   UNL     1      -8.792   6.456 132.348  0.00  0.00    +0.000 OA
BRANCH  29  31
ATOM     31  O   UNL     1     -10.516   5.335 132.972  0.00  0.00    +0.000 OA
ATOM     32  H   UNL     1     -10.181   5.402 133.875  0.00  0.00    +0.000 HD
ENDBRANCH  29  31
ENDBRANCH   7  29
TORSDOF 6
ENDMDL
MODEL 9
REMARK VINA RESULT:      -8.2      5.281      7.734
REMARK  Name = Levocabastine
REMARK  7 active torsions:
REMARK  status: ('A' for Active; 'I' for Inactive)
REMARK    1  A    between atoms: C_1  and  C_2
REMARK    2  A    between atoms: N_4  and  C_17
REMARK    3  A    between atoms: C_7  and  C_8
REMARK    4  A    between atoms: C_7  and  C_11
REMARK    5  A    between atoms: C_8  and  O_9
REMARK    6  A    between atoms: C_20  and  C_23
REMARK    7  A    between atoms: C_20  and  C_25
REMARK                            x       y       z     vdW  Elec       q    Type
REMARK                         _______ _______ _______ _____ _____    ______ ____
ROOT
ATOM      1  C   UNL     1      -6.208   4.777 130.892  0.00  0.00    +0.000 C 
ATOM      2  C   UNL     1      -5.653   4.943 129.467  0.00  0.00    +0.000 C 
ATOM      3  C   UNL     1      -6.181   3.743 128.672  0.00  0.00    +0.000 C 
ATOM      4  N   UNL     1      -5.507   2.476 129.026  0.00  0.00    +0.000 NA
ATOM      5  C   UNL     1      -4.042   2.561 128.892  0.00  0.00    +0.000 C 
ATOM      6  C   UNL     1      -3.440   3.708 129.663  0.00  0.00    +0.000 C 
ATOM      7  C   UNL     1      -4.087   5.071 129.286  0.00  0.00    +0.000 C 
ENDROOT
BRANCH   7   8
ATOM      8  C   UNL     1      -3.506   6.109 130.275  0.00  0.00    +0.000 A 
ATOM      9  C   UNL     1      -2.593   5.803 131.276  0.00  0.00    +0.000 A 
ATOM     10  C   UNL     1      -2.341   6.653 132.340  0.00  0.00    +0.000 A 
ATOM     11  C   UNL     1      -2.650   7.990 132.205  0.00  0.00    +0.000 A 
ATOM     12  C   UNL     1      -3.391   8.409 131.114  0.00  0.00    +0.000 A 
ATOM     13  C   UNL     1      -3.893   7.465 130.224  0.00  0.00    +0.000 A 
ENDBRANCH   7   8
BRANCH   4  14
ATOM     14  C   UNL     1      -6.040   1.382 128.189  0.00  0.00    +0.000 C 
ATOM     15  C   UNL     1      -7.544   1.202 128.438  0.00  0.00    +0.000 C 
ATOM     16  C   UNL     1      -8.201   0.246 127.505  0.00  0.00    +0.000 C 
ATOM     17  C   UNL     1      -7.908   0.492 126.019  0.00  0.00    +0.000 C 
ATOM     18  C   UNL     1      -6.364   0.554 125.813  0.00  0.00    +0.000 C 
ATOM     19  C   UNL     1      -5.732   1.622 126.701  0.00  0.00    +0.000 C 
BRANCH  17  20
ATOM     20  C   UNL     1      -8.513  -0.673 125.237  0.00  0.00    +0.000 A 
ATOM     21  C   UNL     1      -9.022  -1.821 125.886  0.00  0.00    +0.000 A 
ATOM     22  C   UNL     1      -9.395  -2.940 125.167  0.00  0.00    +0.000 A 
ATOM     23  C   UNL     1      -9.417  -2.866 123.789  0.00  0.00    +0.000 A 
ATOM     24  F   UNL     1      -9.887  -3.906 123.093  0.00  0.00    +0.000 F 
ATOM     25  C   UNL     1      -8.993  -1.723 123.119  0.00  0.00    +0.000 A 
ATOM     26  C   UNL     1      -8.531  -0.629 123.840  0.00  0.00    +0.000 A 
ENDBRANCH  17  20
BRANCH  17  27
ATOM     27  C   UNL     1      -8.492   1.775 125.546  0.00  0.00    +0.000 C 
ATOM     28  N   UNL     1      -9.032   2.733 125.146  0.00  0.00    +0.000 NA
ENDBRANCH  17  27
ENDBRANCH   4  14
BRANCH   7  29
ATOM     29  C   UNL     1      -3.805   5.299 127.717  0.00  0.00    +0.000 C 
ATOM     30  O   UNL     1      -4.531   5.960 126.980  0.00  0.00    +0.000 OA
BRANCH  29  31
ATOM     31  O   UNL     1      -2.735   4.786 127.094  0.00  0.00    +0.000 OA
ATOM     32  H   UNL     1      -2.655   3.825 127.040  0.00  0.00    +0.000 HD
ENDBRANCH  29  31
ENDBRANCH   7  29
TORSDOF 6
ENDMDL
