MODEL 1
REMARK VINA RESULT:      -6.6      0.000      0.000
REMARK  Name = Levomenol
REMARK  9 active torsions:
REMARK  status: ('A' for Active; 'I' for Inactive)
REMARK    1  A    between atoms: C_2  and  C_9
REMARK    2  A    between atoms: C_5  and  C_6
REMARK    3  A    between atoms: C_9  and  C_10
REMARK    4  A    between atoms: C_9  and  O_11
REMARK    5  A    between atoms: C_9  and  C_12
REMARK    6  A    between atoms: C_12  and  C_13
REMARK    7  A    between atoms: C_13  and  C_14
REMARK    8  A    between atoms: C_15  and  C_16
REMARK    9  A    between atoms: C_15  and  C_17
REMARK                            x       y       z     vdW  Elec       q    Type
REMARK                         _______ _______ _______ _____ _____    ______ ____
ROOT
ATOM      1  C   UNL     1      -8.883  -1.989 123.655  0.00  0.00    +0.000 C 
ATOM      2  C   UNL     1      -9.697  -3.226 123.240  0.00  0.00    +0.000 C 
ENDROOT
BRANCH   1   3
ATOM      3  C   UNL     1      -8.289  -2.193 125.071  0.00  0.00    +0.000 C 
ATOM      4  C   UNL     1      -8.571  -0.982 125.976  0.00  0.00    +0.000 C 
ATOM      5  C   UNL     1      -7.959  -1.127 127.352  0.00  0.00    +0.000 C 
ATOM      6  C   UNL     1      -8.127  -2.498 127.936  0.00  0.00    +0.000 C 
ATOM      7  C   UNL     1      -7.846  -2.602 129.400  0.00  0.00    +0.000 C 
ATOM      8  C   UNL     1      -8.504  -3.563 127.202  0.00  0.00    +0.000 C 
ATOM      9  C   UNL     1      -8.793  -3.496 125.731  0.00  0.00    +0.000 C 
ENDBRANCH   1   3
BRANCH   1  10
ATOM     10  O   UNL     1      -9.785  -0.878 123.716  0.00  0.00    +0.000 OA
ATOM     11  H   UNL     1      -9.610  -0.367 124.522  0.00  0.00    +0.000 HD
ENDBRANCH   1  10
BRANCH   1  12
ATOM     12  C   UNL     1      -7.752  -1.696 122.643  0.00  0.00    +0.000 C 
BRANCH  12  13
ATOM     13  C   UNL     1      -6.393  -1.596 123.288  0.00  0.00    +0.000 C 
BRANCH  13  14
ATOM     14  C   UNL     1      -5.528  -2.758 122.945  0.00  0.00    +0.000 C 
ATOM     15  C   UNL     1      -4.920  -3.478 123.906  0.00  0.00    +0.000 C 
ATOM     16  C   UNL     1      -5.077  -3.164 125.370  0.00  0.00    +0.000 C 
ATOM     17  C   UNL     1      -4.053  -4.643 123.549  0.00  0.00    +0.000 C 
ENDBRANCH  13  14
ENDBRANCH  12  13
ENDBRANCH   1  12
TORSDOF 5
ENDMDL
MODEL 2
REMARK VINA RESULT:      -6.3     10.594     12.055
REMARK  Name = Levomenol
REMARK  9 active torsions:
REMARK  status: ('A' for Active; 'I' for Inactive)
REMARK    1  A    between atoms: C_2  and  C_9
REMARK    2  A    between atoms: C_5  and  C_6
REMARK    3  A    between atoms: C_9  and  C_10
REMARK    4  A    between atoms: C_9  and  O_11
REMARK    5  A    between atoms: C_9  and  C_12
REMARK    6  A    between atoms: C_12  and  C_13
REMARK    7  A    between atoms: C_13  and  C_14
REMARK    8  A    between atoms: C_15  and  C_16
REMARK    9  A    between atoms: C_15  and  C_17
REMARK                            x       y       z     vdW  Elec       q    Type
REMARK                         _______ _______ _______ _____ _____    ______ ____
ROOT
ATOM      1  C   UNL     1      -9.485   5.840 132.105  0.00  0.00    +0.000 C 
ATOM      2  C   UNL     1      -8.080   6.384 131.797  0.00  0.00    +0.000 C 
ENDROOT
BRANCH   1   3
ATOM      3  C   UNL     1     -10.477   6.269 130.995  0.00  0.00    +0.000 C 
ATOM      4  C   UNL     1     -11.785   6.810 131.593  0.00  0.00    +0.000 C 
ATOM      5  C   UNL     1     -12.797   7.190 130.535  0.00  0.00    +0.000 C 
ATOM      6  C   UNL     1     -12.196   7.924 129.372  0.00  0.00    +0.000 C 
ATOM      7  C   UNL     1     -13.178   8.605 128.476  0.00  0.00    +0.000 C 
ATOM      8  C   UNL     1     -10.868   7.970 129.147  0.00  0.00    +0.000 C 
ATOM      9  C   UNL     1      -9.854   7.296 130.024  0.00  0.00    +0.000 C 
ENDBRANCH   1   3
BRANCH   1  10
ATOM     10  O   UNL     1      -9.920   6.436 133.333  0.00  0.00    +0.000 OA
ATOM     11  H   UNL     1     -10.758   6.031 133.606  0.00  0.00    +0.000 HD
ENDBRANCH   1  10
BRANCH   1  12
ATOM     12  C   UNL     1      -9.473   4.301 132.241  0.00  0.00    +0.000 C 
BRANCH  12  13
ATOM     13  C   UNL     1      -9.295   3.834 133.663  0.00  0.00    +0.000 C 
BRANCH  13  14
ATOM     14  C   UNL     1      -7.906   3.369 133.926  0.00  0.00    +0.000 C 
ATOM     15  C   UNL     1      -7.091   4.050 134.754  0.00  0.00    +0.000 C 
ATOM     16  C   UNL     1      -7.527   5.305 135.463  0.00  0.00    +0.000 C 
ATOM     17  C   UNL     1      -5.698   3.573 135.010  0.00  0.00    +0.000 C 
ENDBRANCH  13  14
ENDBRANCH  12  13
ENDBRANCH   1  12
TORSDOF 5
ENDMDL
MODEL 3
REMARK VINA RESULT:      -6.2      4.694      6.905
REMARK  Name = Levomenol
REMARK  9 active torsions:
REMARK  status: ('A' for Active; 'I' for Inactive)
REMARK    1  A    between atoms: C_2  and  C_9
REMARK    2  A    between atoms: C_5  and  C_6
REMARK    3  A    between atoms: C_9  and  C_10
REMARK    4  A    between atoms: C_9  and  O_11
REMARK    5  A    between atoms: C_9  and  C_12
REMARK    6  A    between atoms: C_12  and  C_13
REMARK    7  A    between atoms: C_13  and  C_14
REMARK    8  A    between atoms: C_15  and  C_16
REMARK    9  A    between atoms: C_15  and  C_17
REMARK                            x       y       z     vdW  Elec       q    Type
REMARK                         _______ _______ _______ _____ _____    ______ ____
ROOT
ATOM      1  C   UNL     1      -8.144   2.394 123.078  0.00  0.00    +0.000 C 
ATOM      2  C   UNL     1      -8.497   3.074 124.412  0.00  0.00    +0.000 C 
ENDROOT
BRANCH   1   3
ATOM      3  C   UNL     1      -7.656   3.451 122.056  0.00  0.00    +0.000 C 
ATOM      4  C   UNL     1      -6.191   3.207 121.656  0.00  0.00    +0.000 C 
ATOM      5  C   UNL     1      -5.666   4.253 120.698  0.00  0.00    +0.000 C 
ATOM      6  C   UNL     1      -6.642   4.613 119.617  0.00  0.00    +0.000 C 
ATOM      7  C   UNL     1      -6.064   5.376 118.469  0.00  0.00    +0.000 C 
ATOM      8  C   UNL     1      -7.945   4.275 119.669  0.00  0.00    +0.000 C 
ATOM      9  C   UNL     1      -8.560   3.512 120.805  0.00  0.00    +0.000 C 
ENDBRANCH   1   3
BRANCH   1  10
ATOM     10  O   UNL     1      -9.345   1.808 122.561  0.00  0.00    +0.000 OA
ATOM     11  H   UNL     1      -9.429   0.902 122.899  0.00  0.00    +0.000 HD
ENDBRANCH   1  10
BRANCH   1  12
ATOM     12  C   UNL     1      -7.065   1.305 123.272  0.00  0.00    +0.000 C 
BRANCH  12  13
ATOM     13  C   UNL     1      -7.638  -0.028 123.682  0.00  0.00    +0.000 C 
BRANCH  13  14
ATOM     14  C   UNL     1      -6.837  -1.164 123.150  0.00  0.00    +0.000 C 
ATOM     15  C   UNL     1      -5.957  -1.819 123.932  0.00  0.00    +0.000 C 
ATOM     16  C   UNL     1      -5.732  -1.453 125.375  0.00  0.00    +0.000 C 
ATOM     17  C   UNL     1      -5.158  -2.958 123.386  0.00  0.00    +0.000 C 
ENDBRANCH  13  14
ENDBRANCH  12  13
ENDBRANCH   1  12
TORSDOF 5
ENDMDL
MODEL 4
REMARK VINA RESULT:      -6.1      2.634      4.244
REMARK  Name = Levomenol
REMARK  9 active torsions:
REMARK  status: ('A' for Active; 'I' for Inactive)
REMARK    1  A    between atoms: C_2  and  C_9
REMARK    2  A    between atoms: C_5  and  C_6
REMARK    3  A    between atoms: C_9  and  C_10
REMARK    4  A    between atoms: C_9  and  O_11
REMARK    5  A    between atoms: C_9  and  C_12
REMARK    6  A    between atoms: C_12  and  C_13
REMARK    7  A    between atoms: C_13  and  C_14
REMARK    8  A    between atoms: C_15  and  C_16
REMARK    9  A    between atoms: C_15  and  C_17
REMARK                            x       y       z     vdW  Elec       q    Type
REMARK                         _______ _______ _______ _____ _____    ______ ____
ROOT
ATOM      1  C   UNL     1      -5.909  -1.018 127.162  0.00  0.00    +0.000 C 
ATOM      2  C   UNL     1      -7.304  -0.395 127.340  0.00  0.00    +0.000 C 
ENDROOT
BRANCH   1   3
ATOM      3  C   UNL     1      -5.810  -2.337 127.970  0.00  0.00    +0.000 C 
ATOM      4  C   UNL     1      -4.522  -2.382 128.808  0.00  0.00    +0.000 C 
ATOM      5  C   UNL     1      -4.367  -3.680 129.570  0.00  0.00    +0.000 C 
ATOM      6  C   UNL     1      -5.641  -4.151 130.207  0.00  0.00    +0.000 C 
ATOM      7  C   UNL     1      -5.477  -5.227 131.231  0.00  0.00    +0.000 C 
ATOM      8  C   UNL     1      -6.848  -3.646 129.885  0.00  0.00    +0.000 C 
ATOM      9  C   UNL     1      -7.050  -2.568 128.861  0.00  0.00    +0.000 C 
ENDBRANCH   1   3
BRANCH   1  10
ATOM     10  O   UNL     1      -4.953  -0.100 127.705  0.00  0.00    +0.000 OA
ATOM     11  H   UNL     1      -5.394   0.743 127.899  0.00  0.00    +0.000 HD
ENDBRANCH   1  10
BRANCH   1  12
ATOM     12  C   UNL     1      -5.599  -1.284 125.672  0.00  0.00    +0.000 C 
BRANCH  12  13
ATOM     13  C   UNL     1      -5.930  -2.691 125.242  0.00  0.00    +0.000 C 
BRANCH  13  14
ATOM     14  C   UNL     1      -6.976  -2.717 124.183  0.00  0.00    +0.000 C 
ATOM     15  C   UNL     1      -8.230  -3.125 124.457  0.00  0.00    +0.000 C 
ATOM     16  C   UNL     1      -8.651  -3.571 125.831  0.00  0.00    +0.000 C 
ATOM     17  C   UNL     1      -9.272  -3.147 123.385  0.00  0.00    +0.000 C 
ENDBRANCH  13  14
ENDBRANCH  12  13
ENDBRANCH   1  12
TORSDOF 5
ENDMDL
MODEL 5
REMARK VINA RESULT:      -6.0      2.934      5.065
REMARK  Name = Levomenol
REMARK  9 active torsions:
REMARK  status: ('A' for Active; 'I' for Inactive)
REMARK    1  A    between atoms: C_2  and  C_9
REMARK    2  A    between atoms: C_5  and  C_6
REMARK    3  A    between atoms: C_9  and  C_10
REMARK    4  A    between atoms: C_9  and  O_11
REMARK    5  A    between atoms: C_9  and  C_12
REMARK    6  A    between atoms: C_12  and  C_13
REMARK    7  A    between atoms: C_13  and  C_14
REMARK    8  A    between atoms: C_15  and  C_16
REMARK    9  A    between atoms: C_15  and  C_17
REMARK                            x       y       z     vdW  Elec       q    Type
REMARK                         _______ _______ _______ _____ _____    ______ ____
ROOT
ATOM      1  C   UNL     1      -8.581  -0.204 124.420  0.00  0.00    +0.000 C 
ATOM      2  C   UNL     1      -9.382   0.185 123.165  0.00  0.00    +0.000 C 
ENDROOT
BRANCH   1   3
ATOM      3  C   UNL     1      -7.675  -1.423 124.115  0.00  0.00    +0.000 C 
ATOM      4  C   UNL     1      -6.724  -1.133 122.943  0.00  0.00    +0.000 C 
ATOM      5  C   UNL     1      -5.860  -2.322 122.585  0.00  0.00    +0.000 C 
ATOM      6  C   UNL     1      -5.307  -3.038 123.781  0.00  0.00    +0.000 C 
ATOM      7  C   UNL     1      -4.197  -3.995 123.491  0.00  0.00    +0.000 C 
ATOM      8  C   UNL     1      -5.771  -2.836 125.030  0.00  0.00    +0.000 C 
ATOM      9  C   UNL     1      -6.884  -1.885 125.359  0.00  0.00    +0.000 C 
ENDBRANCH   1   3
BRANCH   1  10
ATOM     10  O   UNL     1      -9.521  -0.598 125.427  0.00  0.00    +0.000 OA
ATOM     11  H   UNL     1      -9.598   0.110 126.087  0.00  0.00    +0.000 HD
ENDBRANCH   1  10
BRANCH   1  12
ATOM     12  C   UNL     1      -7.727   0.978 124.928  0.00  0.00    +0.000 C 
BRANCH  12  13
ATOM     13  C   UNL     1      -7.944   2.246 124.141  0.00  0.00    +0.000 C 
BRANCH  13  14
ATOM     14  C   UNL     1      -6.742   2.619 123.345  0.00  0.00    +0.000 C 
ATOM     15  C   UNL     1      -6.864   3.150 122.114  0.00  0.00    +0.000 C 
ATOM     16  C   UNL     1      -8.202   3.403 121.472  0.00  0.00    +0.000 C 
ATOM     17  C   UNL     1      -5.650   3.520 121.324  0.00  0.00    +0.000 C 
ENDBRANCH  13  14
ENDBRANCH  12  13
ENDBRANCH   1  12
TORSDOF 5
ENDMDL
MODEL 6
REMARK VINA RESULT:      -6.0      9.527     11.433
REMARK  Name = Levomenol
REMARK  9 active torsions:
REMARK  status: ('A' for Active; 'I' for Inactive)
REMARK    1  A    between atoms: C_2  and  C_9
REMARK    2  A    between atoms: C_5  and  C_6
REMARK    3  A    between atoms: C_9  and  C_10
REMARK    4  A    between atoms: C_9  and  O_11
REMARK    5  A    between atoms: C_9  and  C_12
REMARK    6  A    between atoms: C_12  and  C_13
REMARK    7  A    between atoms: C_13  and  C_14
REMARK    8  A    between atoms: C_15  and  C_16
REMARK    9  A    between atoms: C_15  and  C_17
REMARK                            x       y       z     vdW  Elec       q    Type
REMARK                         _______ _______ _______ _____ _____    ______ ____
ROOT
ATOM      1  C   UNL     1      -9.882   5.129 130.184  0.00  0.00    +0.000 C 
ATOM      2  C   UNL     1     -10.957   4.056 130.423  0.00  0.00    +0.000 C 
ENDROOT
BRANCH   1   3
ATOM      3  C   UNL     1     -10.532   6.536 130.160  0.00  0.00    +0.000 C 
ATOM      4  C   UNL     1     -10.618   7.087 128.728  0.00  0.00    +0.000 C 
ATOM      5  C   UNL     1     -11.200   8.483 128.674  0.00  0.00    +0.000 C 
ATOM      6  C   UNL     1     -12.387   8.667 129.573  0.00  0.00    +0.000 C 
ATOM      7  C   UNL     1     -13.192   9.899 129.315  0.00  0.00    +0.000 C 
ATOM      8  C   UNL     1     -12.709   7.791 130.545  0.00  0.00    +0.000 C 
ATOM      9  C   UNL     1     -11.922   6.546 130.833  0.00  0.00    +0.000 C 
ENDBRANCH   1   3
BRANCH   1  10
ATOM     10  O   UNL     1      -9.312   4.890 128.892  0.00  0.00    +0.000 OA
ATOM     11  H   UNL     1      -9.957   5.131 128.208  0.00  0.00    +0.000 HD
ENDBRANCH   1  10
BRANCH   1  12
ATOM     12  C   UNL     1      -8.781   5.072 131.266  0.00  0.00    +0.000 C 
BRANCH  12  13
ATOM     13  C   UNL     1      -8.347   6.435 131.741  0.00  0.00    +0.000 C 
BRANCH  13  14
ATOM     14  C   UNL     1      -7.181   6.947 130.969  0.00  0.00    +0.000 C 
ATOM     15  C   UNL     1      -5.923   6.776 131.419  0.00  0.00    +0.000 C 
ATOM     16  C   UNL     1      -5.617   6.063 132.708  0.00  0.00    +0.000 C 
ATOM     17  C   UNL     1      -4.760   7.294 130.635  0.00  0.00    +0.000 C 
ENDBRANCH  13  14
ENDBRANCH  12  13
ENDBRANCH   1  12
TORSDOF 5
ENDMDL
MODEL 7
REMARK VINA RESULT:      -6.0      8.428     10.882
REMARK  Name = Levomenol
REMARK  9 active torsions:
REMARK  status: ('A' for Active; 'I' for Inactive)
REMARK    1  A    between atoms: C_2  and  C_9
REMARK    2  A    between atoms: C_5  and  C_6
REMARK    3  A    between atoms: C_9  and  C_10
REMARK    4  A    between atoms: C_9  and  O_11
REMARK    5  A    between atoms: C_9  and  C_12
REMARK    6  A    between atoms: C_12  and  C_13
REMARK    7  A    between atoms: C_13  and  C_14
REMARK    8  A    between atoms: C_15  and  C_16
REMARK    9  A    between atoms: C_15  and  C_17
REMARK                            x       y       z     vdW  Elec       q    Type
REMARK                         _______ _______ _______ _____ _____    ______ ____
ROOT
ATOM      1  C   UNL     1      -9.406   5.835 132.115  0.00  0.00    +0.000 C 
ATOM      2  C   UNL     1      -8.008   6.376 131.774  0.00  0.00    +0.000 C 
ENDROOT
BRANCH   1   3
ATOM      3  C   UNL     1     -10.423   6.266 131.029  0.00  0.00    +0.000 C 
ATOM      4  C   UNL     1     -11.703   6.840 131.658  0.00  0.00    +0.000 C 
ATOM      5  C   UNL     1     -12.740   7.223 130.625  0.00  0.00    +0.000 C 
ATOM      6  C   UNL     1     -12.161   7.929 129.434  0.00  0.00    +0.000 C 
ATOM      7  C   UNL     1     -13.157   8.615 128.557  0.00  0.00    +0.000 C 
ATOM      8  C   UNL     1     -10.840   7.947 129.168  0.00  0.00    +0.000 C 
ATOM      9  C   UNL     1      -9.812   7.268 130.024  0.00  0.00    +0.000 C 
ENDBRANCH   1   3
BRANCH   1  10
ATOM     10  O   UNL     1      -9.810   6.432 133.353  0.00  0.00    +0.000 OA
ATOM     11  H   UNL     1      -9.042   6.853 133.771  0.00  0.00    +0.000 HD
ENDBRANCH   1  10
BRANCH   1  12
ATOM     12  C   UNL     1      -9.394   4.296 132.250  0.00  0.00    +0.000 C 
BRANCH  12  13
ATOM     13  C   UNL     1     -10.019   3.594 131.070  0.00  0.00    +0.000 C 
BRANCH  13  14
ATOM     14  C   UNL     1      -9.015   2.822 130.288  0.00  0.00    +0.000 C 
ATOM     15  C   UNL     1      -8.732   1.542 130.596  0.00  0.00    +0.000 C 
ATOM     16  C   UNL     1      -9.404   0.817 131.731  0.00  0.00    +0.000 C 
ATOM     17  C   UNL     1      -7.721   0.776 129.803  0.00  0.00    +0.000 C 
ENDBRANCH  13  14
ENDBRANCH  12  13
ENDBRANCH   1  12
TORSDOF 5
ENDMDL
MODEL 8
REMARK VINA RESULT:      -6.0      9.459     11.818
REMARK  Name = Levomenol
REMARK  9 active torsions:
REMARK  status: ('A' for Active; 'I' for Inactive)
REMARK    1  A    between atoms: C_2  and  C_9
REMARK    2  A    between atoms: C_5  and  C_6
REMARK    3  A    between atoms: C_9  and  C_10
REMARK    4  A    between atoms: C_9  and  O_11
REMARK    5  A    between atoms: C_9  and  C_12
REMARK    6  A    between atoms: C_12  and  C_13
REMARK    7  A    between atoms: C_13  and  C_14
REMARK    8  A    between atoms: C_15  and  C_16
REMARK    9  A    between atoms: C_15  and  C_17
REMARK                            x       y       z     vdW  Elec       q    Type
REMARK                         _______ _______ _______ _____ _____    ______ ____
ROOT
ATOM      1  C   UNL     1      -9.761   5.573 129.919  0.00  0.00    +0.000 C 
ATOM      2  C   UNL     1     -10.315   4.235 130.438  0.00  0.00    +0.000 C 
ENDROOT
BRANCH   1   3
ATOM      3  C   UNL     1     -10.926   6.504 129.498  0.00  0.00    +0.000 C 
ATOM      4  C   UNL     1     -11.580   7.168 130.721  0.00  0.00    +0.000 C 
ATOM      5  C   UNL     1     -12.757   8.043 130.350  0.00  0.00    +0.000 C 
ATOM      6  C   UNL     1     -12.509   8.889 129.136  0.00  0.00    +0.000 C 
ATOM      7  C   UNL     1     -13.489   9.998 128.925  0.00  0.00    +0.000 C 
ATOM      8  C   UNL     1     -11.480   8.672 128.293  0.00  0.00    +0.000 C 
ATOM      9  C   UNL     1     -10.479   7.569 128.473  0.00  0.00    +0.000 C 
ENDBRANCH   1   3
BRANCH   1  10
ATOM     10  O   UNL     1      -8.981   5.294 128.750  0.00  0.00    +0.000 OA
ATOM     11  H   UNL     1      -8.198   5.868 128.744  0.00  0.00    +0.000 HD
ENDBRANCH   1  10
BRANCH   1  12
ATOM     12  C   UNL     1      -8.885   6.269 130.985  0.00  0.00    +0.000 C 
BRANCH  12  13
ATOM     13  C   UNL     1      -7.897   5.336 131.639  0.00  0.00    +0.000 C 
BRANCH  13  14
ATOM     14  C   UNL     1      -7.580   5.750 133.033  0.00  0.00    +0.000 C 
ATOM     15  C   UNL     1      -8.066   5.068 134.087  0.00  0.00    +0.000 C 
ATOM     16  C   UNL     1      -8.946   3.857 133.928  0.00  0.00    +0.000 C 
ATOM     17  C   UNL     1      -7.741   5.495 135.482  0.00  0.00    +0.000 C 
ENDBRANCH  13  14
ENDBRANCH  12  13
ENDBRANCH   1  12
TORSDOF 5
ENDMDL
MODEL 9
REMARK VINA RESULT:      -5.9      3.513      5.302
REMARK  Name = Levomenol
REMARK  9 active torsions:
REMARK  status: ('A' for Active; 'I' for Inactive)
REMARK    1  A    between atoms: C_2  and  C_9
REMARK    2  A    between atoms: C_5  and  C_6
REMARK    3  A    between atoms: C_9  and  C_10
REMARK    4  A    between atoms: C_9  and  O_11
REMARK    5  A    between atoms: C_9  and  C_12
REMARK    6  A    between atoms: C_12  and  C_13
REMARK    7  A    between atoms: C_13  and  C_14
REMARK    8  A    between atoms: C_15  and  C_16
REMARK    9  A    between atoms: C_15  and  C_17
REMARK                            x       y       z     vdW  Elec       q    Type
REMARK                         _______ _______ _______ _____ _____    ______ ____
ROOT
ATOM      1  C   UNL     1      -8.199   1.020 124.545  0.00  0.00    +0.000 C 
ATOM      2  C   UNL     1      -9.274   0.261 125.342  0.00  0.00    +0.000 C 
ENDROOT
BRANCH   1   3
ATOM      3  C   UNL     1      -7.048   0.058 124.156  0.00  0.00    +0.000 C 
ATOM      4  C   UNL     1      -6.556  -0.744 125.372  0.00  0.00    +0.000 C 
ATOM      5  C   UNL     1      -5.395  -1.655 125.039  0.00  0.00    +0.000 C 
ATOM      6  C   UNL     1      -5.564  -2.381 123.736  0.00  0.00    +0.000 C 
ATOM      7  C   UNL     1      -4.627  -3.525 123.522  0.00  0.00    +0.000 C 
ATOM      8  C   UNL     1      -6.490  -2.032 122.822  0.00  0.00    +0.000 C 
ATOM      9  C   UNL     1      -7.445  -0.888 123.002  0.00  0.00    +0.000 C 
ENDBRANCH   1   3
BRANCH   1  10
ATOM     10  O   UNL     1      -7.655   2.028 125.405  0.00  0.00    +0.000 OA
ATOM     11  H   UNL     1      -6.896   2.445 124.968  0.00  0.00    +0.000 HD
ENDBRANCH   1  10
BRANCH   1  12
ATOM     12  C   UNL     1      -8.797   1.671 123.278  0.00  0.00    +0.000 C 
BRANCH  12  13
ATOM     13  C   UNL     1      -8.315   3.083 123.056  0.00  0.00    +0.000 C 
BRANCH  13  14
ATOM     14  C   UNL     1      -7.357   3.171 121.920  0.00  0.00    +0.000 C 
ATOM     15  C   UNL     1      -6.124   3.684 122.090  0.00  0.00    +0.000 C 
ATOM     16  C   UNL     1      -5.638   4.190 123.422  0.00  0.00    +0.000 C 
ATOM     17  C   UNL     1      -5.171   3.768 120.941  0.00  0.00    +0.000 C 
ENDBRANCH  13  14
ENDBRANCH  12  13
ENDBRANCH   1  12
TORSDOF 5
ENDMDL
