MODEL 1
REMARK VINA RESULT:      -6.1      0.000      0.000
REMARK  Name = Levomilnacipran
REMARK  8 active torsions:
REMARK  status: ('A' for Active; 'I' for Inactive)
REMARK    1  A    between atoms: C_1  and  C_2
REMARK    2  A    between atoms: C_2  and  N_3
REMARK    3  A    between atoms: N_3  and  C_4
REMARK    4  A    between atoms: C_4  and  C_5
REMARK    5  A    between atoms: C_6  and  C_8
REMARK    6  A    between atoms: C_8  and  C_13
REMARK    7  A    between atoms: C_10  and  C_11
REMARK    8  A    between atoms: C_11  and  N_12
REMARK                            x       y       z     vdW  Elec       q    Type
REMARK                         _______ _______ _______ _____ _____    ______ ____
ROOT
ATOM      1  C   UNL     1      -7.746   2.469 123.611  0.00  0.00    +0.000 C 
ATOM      2  C   UNL     1      -7.538   0.943 123.490  0.00  0.00    +0.000 C 
ATOM      3  C   UNL     1      -8.810   1.543 123.016  0.00  0.00    +0.000 C 
ENDROOT
BRANCH   1   4
ATOM      4  C   UNL     1      -7.075   3.431 122.602  0.00  0.00    +0.000 A 
ATOM      5  C   UNL     1      -7.576   3.564 121.303  0.00  0.00    +0.000 A 
ATOM      6  C   UNL     1      -6.760   4.033 120.272  0.00  0.00    +0.000 A 
ATOM      7  C   UNL     1      -5.459   4.461 120.533  0.00  0.00    +0.000 A 
ATOM      8  C   UNL     1      -4.963   4.412 121.829  0.00  0.00    +0.000 A 
ATOM      9  C   UNL     1      -5.774   3.929 122.855  0.00  0.00    +0.000 A 
ENDBRANCH   1   4
BRANCH   1  11
ATOM     10  N   UNL     1      -7.037   3.056 126.008  0.00  0.00    +0.000 N 
ATOM     11  C   UNL     1      -7.936   3.228 124.934  0.00  0.00    +0.000 C 
ATOM     12  O   UNL     1      -8.797   4.092 124.990  0.00  0.00    +0.000 OA
BRANCH  10  14
ATOM     13  C   UNL     1      -7.671   3.643 128.416  0.00  0.00    +0.000 C 
ATOM     14  C   UNL     1      -7.170   4.071 127.061  0.00  0.00    +0.000 C 
ENDBRANCH  10  14
BRANCH  10  15
ATOM     15  C   UNL     1      -6.143   1.918 126.030  0.00  0.00    +0.000 C 
ATOM     16  C   UNL     1      -4.654   2.019 126.199  0.00  0.00    +0.000 C 
ENDBRANCH  10  15
ENDBRANCH   1  11
BRANCH   3  17
ATOM     17  C   UNL     1     -10.168   1.319 123.615  0.00  0.00    +0.000 C 
BRANCH  17  18
ATOM     18  N   UNL     1     -10.775   0.415 122.635  0.00  0.00    +0.000 NA
ATOM     19  H   UNL     1     -11.398  -0.218 123.143  0.00  0.00    +0.000 HD
ATOM     20  H   UNL     1     -10.024  -0.190 122.287  0.00  0.00    +0.000 HD
ENDBRANCH  17  18
ENDBRANCH   3  17
TORSDOF 6
ENDMDL
MODEL 2
REMARK VINA RESULT:      -6.0      4.202      7.148
REMARK  Name = Levomilnacipran
REMARK  8 active torsions:
REMARK  status: ('A' for Active; 'I' for Inactive)
REMARK    1  A    between atoms: C_1  and  C_2
REMARK    2  A    between atoms: C_2  and  N_3
REMARK    3  A    between atoms: N_3  and  C_4
REMARK    4  A    between atoms: C_4  and  C_5
REMARK    5  A    between atoms: C_6  and  C_8
REMARK    6  A    between atoms: C_8  and  C_13
REMARK    7  A    between atoms: C_10  and  C_11
REMARK    8  A    between atoms: C_11  and  N_12
REMARK                            x       y       z     vdW  Elec       q    Type
REMARK                         _______ _______ _______ _____ _____    ______ ____
ROOT
ATOM      1  C   UNL     1      -7.241  -0.700 126.224  0.00  0.00    +0.000 C 
ATOM      2  C   UNL     1      -5.860  -0.014 126.132  0.00  0.00    +0.000 C 
ATOM      3  C   UNL     1      -6.964   0.669 126.849  0.00  0.00    +0.000 C 
ENDROOT
BRANCH   1   4
ATOM      4  C   UNL     1      -7.478  -1.847 127.234  0.00  0.00    +0.000 A 
ATOM      5  C   UNL     1      -8.113  -3.027 126.836  0.00  0.00    +0.000 A 
ATOM      6  C   UNL     1      -8.741  -3.847 127.776  0.00  0.00    +0.000 A 
ATOM      7  C   UNL     1      -8.672  -3.552 129.137  0.00  0.00    +0.000 A 
ATOM      8  C   UNL     1      -7.980  -2.427 129.565  0.00  0.00    +0.000 A 
ATOM      9  C   UNL     1      -7.367  -1.600 128.624  0.00  0.00    +0.000 A 
ENDBRANCH   1   4
BRANCH   1  11
ATOM     10  N   UNL     1      -7.806  -1.639 123.901  0.00  0.00    +0.000 N 
ATOM     11  C   UNL     1      -8.201  -0.906 125.040  0.00  0.00    +0.000 C 
ATOM     12  O   UNL     1      -9.361  -0.547 125.163  0.00  0.00    +0.000 OA
BRANCH  10  14
ATOM     13  C   UNL     1      -9.629  -3.316 123.264  0.00  0.00    +0.000 C 
ATOM     14  C   UNL     1      -8.919  -2.010 123.019  0.00  0.00    +0.000 C 
ENDBRANCH  10  14
BRANCH  10  15
ATOM     15  C   UNL     1      -6.403  -1.901 123.658  0.00  0.00    +0.000 C 
ATOM     16  C   UNL     1      -5.728  -3.211 123.948  0.00  0.00    +0.000 C 
ENDBRANCH  10  15
ENDBRANCH   1  11
BRANCH   3  17
ATOM     17  C   UNL     1      -7.635   1.944 126.426  0.00  0.00    +0.000 C 
BRANCH  17  18
ATOM     18  N   UNL     1      -8.892   1.876 127.177  0.00  0.00    +0.000 NA
ATOM     19  H   UNL     1      -9.284   2.820 127.210  0.00  0.00    +0.000 HD
ATOM     20  H   UNL     1      -8.643   1.667 128.149  0.00  0.00    +0.000 HD
ENDBRANCH  17  18
ENDBRANCH   3  17
TORSDOF 6
ENDMDL
MODEL 3
REMARK VINA RESULT:      -5.8      6.123      8.336
REMARK  Name = Levomilnacipran
REMARK  8 active torsions:
REMARK  status: ('A' for Active; 'I' for Inactive)
REMARK    1  A    between atoms: C_1  and  C_2
REMARK    2  A    between atoms: C_2  and  N_3
REMARK    3  A    between atoms: N_3  and  C_4
REMARK    4  A    between atoms: C_4  and  C_5
REMARK    5  A    between atoms: C_6  and  C_8
REMARK    6  A    between atoms: C_8  and  C_13
REMARK    7  A    between atoms: C_10  and  C_11
REMARK    8  A    between atoms: C_11  and  N_12
REMARK                            x       y       z     vdW  Elec       q    Type
REMARK                         _______ _______ _______ _____ _____    ______ ____
ROOT
ATOM      1  C   UNL     1      -9.197   5.772 130.868  0.00  0.00    +0.000 C 
ATOM      2  C   UNL     1      -9.175   5.702 132.412  0.00  0.00    +0.000 C 
ATOM      3  C   UNL     1      -8.242   6.620 131.712  0.00  0.00    +0.000 C 
ENDROOT
BRANCH   1   4
ATOM      4  C   UNL     1     -10.307   6.564 130.138  0.00  0.00    +0.000 A 
ATOM      5  C   UNL     1     -11.561   5.989 129.912  0.00  0.00    +0.000 A 
ATOM      6  C   UNL     1     -12.387   6.465 128.892  0.00  0.00    +0.000 A 
ATOM      7  C   UNL     1     -12.016   7.579 128.137  0.00  0.00    +0.000 A 
ATOM      8  C   UNL     1     -10.810   8.216 128.395  0.00  0.00    +0.000 A 
ATOM      9  C   UNL     1      -9.978   7.729 129.403  0.00  0.00    +0.000 A 
ENDBRANCH   1   4
BRANCH   1  11
ATOM     10  N   UNL     1      -9.293   3.361 129.987  0.00  0.00    +0.000 N 
ATOM     11  C   UNL     1      -8.721   4.650 129.930  0.00  0.00    +0.000 C 
ATOM     12  O   UNL     1      -7.939   4.932 129.036  0.00  0.00    +0.000 OA
BRANCH  10  14
ATOM     13  C   UNL     1      -7.998   1.372 129.034  0.00  0.00    +0.000 C 
ATOM     14  C   UNL     1      -8.961   2.513 128.836  0.00  0.00    +0.000 C 
ENDBRANCH  10  14
BRANCH  10  15
ATOM     15  C   UNL     1     -10.067   2.962 131.144  0.00  0.00    +0.000 C 
ATOM     16  C   UNL     1      -9.568   2.029 132.211  0.00  0.00    +0.000 C 
ENDBRANCH  10  15
ENDBRANCH   1  11
BRANCH   3  17
ATOM     17  C   UNL     1      -6.746   6.498 131.676  0.00  0.00    +0.000 C 
BRANCH  17  18
ATOM     18  N   UNL     1      -6.413   7.331 130.516  0.00  0.00    +0.000 NA
ATOM     19  H   UNL     1      -5.721   8.020 130.819  0.00  0.00    +0.000 HD
ATOM     20  H   UNL     1      -7.249   7.883 130.301  0.00  0.00    +0.000 HD
ENDBRANCH  17  18
ENDBRANCH   3  17
TORSDOF 6
ENDMDL
MODEL 4
REMARK VINA RESULT:      -5.7      4.835      7.086
REMARK  Name = Levomilnacipran
REMARK  8 active torsions:
REMARK  status: ('A' for Active; 'I' for Inactive)
REMARK    1  A    between atoms: C_1  and  C_2
REMARK    2  A    between atoms: C_2  and  N_3
REMARK    3  A    between atoms: N_3  and  C_4
REMARK    4  A    between atoms: C_4  and  C_5
REMARK    5  A    between atoms: C_6  and  C_8
REMARK    6  A    between atoms: C_8  and  C_13
REMARK    7  A    between atoms: C_10  and  C_11
REMARK    8  A    between atoms: C_11  and  N_12
REMARK                            x       y       z     vdW  Elec       q    Type
REMARK                         _______ _______ _______ _____ _____    ______ ____
ROOT
ATOM      1  C   UNL     1      -7.742  -2.245 127.280  0.00  0.00    +0.000 C 
ATOM      2  C   UNL     1      -8.705  -3.371 127.718  0.00  0.00    +0.000 C 
ATOM      3  C   UNL     1      -7.773  -2.785 128.713  0.00  0.00    +0.000 C 
ENDROOT
BRANCH   1   4
ATOM      4  C   UNL     1      -8.259  -0.796 127.115  0.00  0.00    +0.000 A 
ATOM      5  C   UNL     1      -8.879  -0.392 125.929  0.00  0.00    +0.000 A 
ATOM      6  C   UNL     1      -8.926   0.958 125.576  0.00  0.00    +0.000 A 
ATOM      7  C   UNL     1      -8.435   1.937 126.441  0.00  0.00    +0.000 A 
ATOM      8  C   UNL     1      -7.885   1.567 127.661  0.00  0.00    +0.000 A 
ATOM      9  C   UNL     1      -7.824   0.216 128.004  0.00  0.00    +0.000 A 
ENDBRANCH   1   4
BRANCH   1  11
ATOM     10  N   UNL     1      -6.710  -2.978 125.046  0.00  0.00    +0.000 N 
ATOM     11  C   UNL     1      -6.543  -2.431 126.336  0.00  0.00    +0.000 C 
ATOM     12  O   UNL     1      -5.465  -1.964 126.667  0.00  0.00    +0.000 OA
BRANCH  10  14
ATOM     13  C   UNL     1      -4.738  -4.007 123.783  0.00  0.00    +0.000 C 
ATOM     14  C   UNL     1      -5.547  -2.796 124.170  0.00  0.00    +0.000 C 
ENDBRANCH  10  14
BRANCH  10  15
ATOM     15  C   UNL     1      -7.920  -3.701 124.716  0.00  0.00    +0.000 C 
ATOM     16  C   UNL     1      -8.926  -3.240 123.700  0.00  0.00    +0.000 C 
ENDBRANCH  10  15
ENDBRANCH   1  11
BRANCH   3  17
ATOM     17  C   UNL     1      -6.627  -3.496 129.373  0.00  0.00    +0.000 C 
BRANCH  17  18
ATOM     18  N   UNL     1      -5.793  -2.369 129.802  0.00  0.00    +0.000 NA
ATOM     19  H   UNL     1      -4.819  -2.616 129.610  0.00  0.00    +0.000 HD
ATOM     20  H   UNL     1      -5.852  -2.331 130.824  0.00  0.00    +0.000 HD
ENDBRANCH  17  18
ENDBRANCH   3  17
TORSDOF 6
ENDMDL
MODEL 5
REMARK VINA RESULT:      -5.6      3.714      6.982
REMARK  Name = Levomilnacipran
REMARK  8 active torsions:
REMARK  status: ('A' for Active; 'I' for Inactive)
REMARK    1  A    between atoms: C_1  and  C_2
REMARK    2  A    between atoms: C_2  and  N_3
REMARK    3  A    between atoms: N_3  and  C_4
REMARK    4  A    between atoms: C_4  and  C_5
REMARK    5  A    between atoms: C_6  and  C_8
REMARK    6  A    between atoms: C_8  and  C_13
REMARK    7  A    between atoms: C_10  and  C_11
REMARK    8  A    between atoms: C_11  and  N_12
REMARK                            x       y       z     vdW  Elec       q    Type
REMARK                         _______ _______ _______ _____ _____    ______ ____
ROOT
ATOM      1  C   UNL     1      -6.973  -0.768 125.988  0.00  0.00    +0.000 C 
ATOM      2  C   UNL     1      -5.707  -1.364 125.333  0.00  0.00    +0.000 C 
ATOM      3  C   UNL     1      -5.561  -0.395 126.448  0.00  0.00    +0.000 C 
ENDROOT
BRANCH   1   4
ATOM      4  C   UNL     1      -7.793  -1.600 127.001  0.00  0.00    +0.000 A 
ATOM      5  C   UNL     1      -7.569  -1.473 128.375  0.00  0.00    +0.000 A 
ATOM      6  C   UNL     1      -7.932  -2.497 129.252  0.00  0.00    +0.000 A 
ATOM      7  C   UNL     1      -8.605  -3.627 128.787  0.00  0.00    +0.000 A 
ATOM      8  C   UNL     1      -8.910  -3.741 127.437  0.00  0.00    +0.000 A 
ATOM      9  C   UNL     1      -8.532  -2.725 126.560  0.00  0.00    +0.000 A 
ENDBRANCH   1   4
BRANCH   1  11
ATOM     10  N   UNL     1      -8.530  -0.069 124.070  0.00  0.00    +0.000 N 
ATOM     11  C   UNL     1      -7.928   0.228 125.310  0.00  0.00    +0.000 C 
ATOM     12  O   UNL     1      -8.269   1.222 125.933  0.00  0.00    +0.000 OA
BRANCH  10  14
ATOM     13  C   UNL     1      -9.384   1.945 122.745  0.00  0.00    +0.000 C 
ATOM     14  C   UNL     1      -9.640   0.825 123.719  0.00  0.00    +0.000 C 
ENDBRANCH  10  14
BRANCH  10  15
ATOM     15  C   UNL     1      -8.000  -1.132 123.243  0.00  0.00    +0.000 C 
ATOM     16  C   UNL     1      -8.724  -2.417 122.954  0.00  0.00    +0.000 C 
ENDBRANCH  10  15
ENDBRANCH   1  11
BRANCH   3  17
ATOM     17  C   UNL     1      -4.975   0.984 126.347  0.00  0.00    +0.000 C 
BRANCH  17  18
ATOM     18  N   UNL     1      -5.537   1.627 127.538  0.00  0.00    +0.000 NA
ATOM     19  H   UNL     1      -5.748   0.890 128.216  0.00  0.00    +0.000 HD
ATOM     20  H   UNL     1      -6.453   1.998 127.268  0.00  0.00    +0.000 HD
ENDBRANCH  17  18
ENDBRANCH   3  17
TORSDOF 6
ENDMDL
MODEL 6
REMARK VINA RESULT:      -5.6      3.262      6.309
REMARK  Name = Levomilnacipran
REMARK  8 active torsions:
REMARK  status: ('A' for Active; 'I' for Inactive)
REMARK    1  A    between atoms: C_1  and  C_2
REMARK    2  A    between atoms: C_2  and  N_3
REMARK    3  A    between atoms: N_3  and  C_4
REMARK    4  A    between atoms: C_4  and  C_5
REMARK    5  A    between atoms: C_6  and  C_8
REMARK    6  A    between atoms: C_8  and  C_13
REMARK    7  A    between atoms: C_10  and  C_11
REMARK    8  A    between atoms: C_11  and  N_12
REMARK                            x       y       z     vdW  Elec       q    Type
REMARK                         _______ _______ _______ _____ _____    ______ ____
ROOT
ATOM      1  C   UNL     1      -7.578   0.521 125.479  0.00  0.00    +0.000 C 
ATOM      2  C   UNL     1      -6.170   1.090 125.196  0.00  0.00    +0.000 C 
ATOM      3  C   UNL     1      -7.295   2.025 125.449  0.00  0.00    +0.000 C 
ENDROOT
BRANCH   1   4
ATOM      4  C   UNL     1      -7.923  -0.053 126.873  0.00  0.00    +0.000 A 
ATOM      5  C   UNL     1      -7.995   0.784 127.990  0.00  0.00    +0.000 A 
ATOM      6  C   UNL     1      -7.840   0.265 129.277  0.00  0.00    +0.000 A 
ATOM      7  C   UNL     1      -7.699  -1.108 129.479  0.00  0.00    +0.000 A 
ATOM      8  C   UNL     1      -7.704  -1.969 128.390  0.00  0.00    +0.000 A 
ATOM      9  C   UNL     1      -7.842  -1.448 127.104  0.00  0.00    +0.000 A 
ENDBRANCH   1   4
BRANCH   1  11
ATOM     10  N   UNL     1      -7.960  -1.247 123.656  0.00  0.00    +0.000 N 
ATOM     11  C   UNL     1      -8.464  -0.190 124.442  0.00  0.00    +0.000 C 
ATOM     12  O   UNL     1      -9.654   0.081 124.411  0.00  0.00    +0.000 OA
BRANCH  10  14
ATOM     13  C   UNL     1      -9.487  -3.298 123.578  0.00  0.00    +0.000 C 
ATOM     14  C   UNL     1      -8.998  -2.015 122.958  0.00  0.00    +0.000 C 
ENDBRANCH  10  14
BRANCH  10  15
ATOM     15  C   UNL     1      -6.531  -1.449 123.543  0.00  0.00    +0.000 C 
ATOM     16  C   UNL     1      -5.815  -2.684 124.011  0.00  0.00    +0.000 C 
ENDBRANCH  10  15
ENDBRANCH   1  11
BRANCH   3  17
ATOM     17  C   UNL     1      -7.890   2.979 124.452  0.00  0.00    +0.000 C 
BRANCH  17  18
ATOM     18  N   UNL     1      -9.205   3.237 125.046  0.00  0.00    +0.000 NA
ATOM     19  H   UNL     1      -9.912   2.902 124.387  0.00  0.00    +0.000 HD
ATOM     20  H   UNL     1      -9.328   4.254 125.060  0.00  0.00    +0.000 HD
ENDBRANCH  17  18
ENDBRANCH   3  17
TORSDOF 6
ENDMDL
MODEL 7
REMARK VINA RESULT:      -5.6      4.659      7.060
REMARK  Name = Levomilnacipran
REMARK  8 active torsions:
REMARK  status: ('A' for Active; 'I' for Inactive)
REMARK    1  A    between atoms: C_1  and  C_2
REMARK    2  A    between atoms: C_2  and  N_3
REMARK    3  A    between atoms: N_3  and  C_4
REMARK    4  A    between atoms: C_4  and  C_5
REMARK    5  A    between atoms: C_6  and  C_8
REMARK    6  A    between atoms: C_8  and  C_13
REMARK    7  A    between atoms: C_10  and  C_11
REMARK    8  A    between atoms: C_11  and  N_12
REMARK                            x       y       z     vdW  Elec       q    Type
REMARK                         _______ _______ _______ _____ _____    ______ ____
ROOT
ATOM      1  C   UNL     1      -6.943  -2.159 125.078  0.00  0.00    +0.000 C 
ATOM      2  C   UNL     1      -7.514  -2.813 123.800  0.00  0.00    +0.000 C 
ATOM      3  C   UNL     1      -6.273  -3.359 124.404  0.00  0.00    +0.000 C 
ENDROOT
BRANCH   1   4
ATOM      4  C   UNL     1      -7.579  -2.452 126.457  0.00  0.00    +0.000 A 
ATOM      5  C   UNL     1      -6.878  -2.185 127.637  0.00  0.00    +0.000 A 
ATOM      6  C   UNL     1      -7.206  -2.844 128.823  0.00  0.00    +0.000 A 
ATOM      7  C   UNL     1      -8.295  -3.713 128.876  0.00  0.00    +0.000 A 
ATOM      8  C   UNL     1      -9.057  -3.936 127.737  0.00  0.00    +0.000 A 
ATOM      9  C   UNL     1      -8.718  -3.290 126.548  0.00  0.00    +0.000 A 
ENDBRANCH   1   4
BRANCH   1  11
ATOM     10  N   UNL     1      -7.097   0.404 125.138  0.00  0.00    +0.000 N 
ATOM     11  C   UNL     1      -6.303  -0.762 125.140  0.00  0.00    +0.000 C 
ATOM     12  O   UNL     1      -5.101  -0.682 125.336  0.00  0.00    +0.000 OA
BRANCH  10  14
ATOM     13  C   UNL     1      -6.312   2.763 124.537  0.00  0.00    +0.000 C 
ATOM     14  C   UNL     1      -6.367   1.620 125.517  0.00  0.00    +0.000 C 
ENDBRANCH  10  14
BRANCH  10  15
ATOM     15  C   UNL     1      -8.481   0.337 124.720  0.00  0.00    +0.000 C 
ATOM     16  C   UNL     1      -9.651   0.547 125.639  0.00  0.00    +0.000 C 
ENDBRANCH  10  15
ENDBRANCH   1  11
BRANCH   3  17
ATOM     17  C   UNL     1      -4.904  -3.327 123.787  0.00  0.00    +0.000 C 
BRANCH  17  18
ATOM     18  N   UNL     1      -4.591  -4.756 123.699  0.00  0.00    +0.000 NA
ATOM     19  H   UNL     1      -5.386  -5.220 123.253  0.00  0.00    +0.000 HD
ATOM     20  H   UNL     1      -4.588  -5.117 124.658  0.00  0.00    +0.000 HD
ENDBRANCH  17  18
ENDBRANCH   3  17
TORSDOF 6
ENDMDL
MODEL 8
REMARK VINA RESULT:      -5.5      2.738      4.530
REMARK  Name = Levomilnacipran
REMARK  8 active torsions:
REMARK  status: ('A' for Active; 'I' for Inactive)
REMARK    1  A    between atoms: C_1  and  C_2
REMARK    2  A    between atoms: C_2  and  N_3
REMARK    3  A    between atoms: N_3  and  C_4
REMARK    4  A    between atoms: C_4  and  C_5
REMARK    5  A    between atoms: C_6  and  C_8
REMARK    6  A    between atoms: C_8  and  C_13
REMARK    7  A    between atoms: C_10  and  C_11
REMARK    8  A    between atoms: C_11  and  N_12
REMARK                            x       y       z     vdW  Elec       q    Type
REMARK                         _______ _______ _______ _____ _____    ______ ____
ROOT
ATOM      1  C   UNL     1      -8.964   0.191 123.857  0.00  0.00    +0.000 C 
ATOM      2  C   UNL     1      -9.931   0.731 122.779  0.00  0.00    +0.000 C 
ATOM      3  C   UNL     1      -8.588   1.345 122.924  0.00  0.00    +0.000 C 
ENDROOT
BRANCH   1   4
ATOM      4  C   UNL     1      -8.186  -1.124 123.620  0.00  0.00    +0.000 A 
ATOM      5  C   UNL     1      -8.500  -2.278 124.344  0.00  0.00    +0.000 A 
ATOM      6  C   UNL     1      -7.559  -3.298 124.497  0.00  0.00    +0.000 A 
ATOM      7  C   UNL     1      -6.322  -3.227 123.857  0.00  0.00    +0.000 A 
ATOM      8  C   UNL     1      -6.016  -2.127 123.067  0.00  0.00    +0.000 A 
ATOM      9  C   UNL     1      -6.950  -1.101 122.929  0.00  0.00    +0.000 A 
ENDBRANCH   1   4
BRANCH   1  11
ATOM     10  N   UNL     1      -8.091   0.785 126.198  0.00  0.00    +0.000 N 
ATOM     11  C   UNL     1      -9.155   0.362 125.373  0.00  0.00    +0.000 C 
ATOM     12  O   UNL     1     -10.282   0.264 125.832  0.00  0.00    +0.000 OA
BRANCH  10  14
ATOM     13  C   UNL     1      -8.059   2.541 128.057  0.00  0.00    +0.000 C 
ATOM     14  C   UNL     1      -8.511   1.200 127.542  0.00  0.00    +0.000 C 
ENDBRANCH  10  14
BRANCH  10  15
ATOM     15  C   UNL     1      -6.729   0.721 125.713  0.00  0.00    +0.000 C 
ATOM     16  C   UNL     1      -5.674  -0.187 126.280  0.00  0.00    +0.000 C 
ENDBRANCH  10  15
ENDBRANCH   1  11
BRANCH   3  17
ATOM     17  C   UNL     1      -8.303   2.747 123.384  0.00  0.00    +0.000 C 
BRANCH  17  18
ATOM     18  N   UNL     1      -8.528   3.509 122.152  0.00  0.00    +0.000 NA
ATOM     19  H   UNL     1      -8.235   4.473 122.328  0.00  0.00    +0.000 HD
ATOM     20  H   UNL     1      -9.543   3.569 122.023  0.00  0.00    +0.000 HD
ENDBRANCH  17  18
ENDBRANCH   3  17
TORSDOF 6
ENDMDL
MODEL 9
REMARK VINA RESULT:      -5.5      3.812      5.557
REMARK  Name = Levomilnacipran
REMARK  8 active torsions:
REMARK  status: ('A' for Active; 'I' for Inactive)
REMARK    1  A    between atoms: C_1  and  C_2
REMARK    2  A    between atoms: C_2  and  N_3
REMARK    3  A    between atoms: N_3  and  C_4
REMARK    4  A    between atoms: C_4  and  C_5
REMARK    5  A    between atoms: C_6  and  C_8
REMARK    6  A    between atoms: C_8  and  C_13
REMARK    7  A    between atoms: C_10  and  C_11
REMARK    8  A    between atoms: C_11  and  N_12
REMARK                            x       y       z     vdW  Elec       q    Type
REMARK                         _______ _______ _______ _____ _____    ______ ____
ROOT
ATOM      1  C   UNL     1      -7.268  -1.256 126.382  0.00  0.00    +0.000 C 
ATOM      2  C   UNL     1      -6.583  -0.917 127.725  0.00  0.00    +0.000 C 
ATOM      3  C   UNL     1      -7.165  -2.267 127.527  0.00  0.00    +0.000 C 
ENDROOT
BRANCH   1   4
ATOM      4  C   UNL     1      -6.417  -1.590 125.134  0.00  0.00    +0.000 A 
ATOM      5  C   UNL     1      -6.721  -1.024 123.892  0.00  0.00    +0.000 A 
ATOM      6  C   UNL     1      -6.298  -1.636 122.710  0.00  0.00    +0.000 A 
ATOM      7  C   UNL     1      -5.490  -2.772 122.747  0.00  0.00    +0.000 A 
ATOM      8  C   UNL     1      -5.109  -3.309 123.969  0.00  0.00    +0.000 A 
ATOM      9  C   UNL     1      -5.545  -2.706 125.149  0.00  0.00    +0.000 A 
ENDBRANCH   1   4
BRANCH   1  11
ATOM     10  N   UNL     1      -8.747   0.725 125.687  0.00  0.00    +0.000 N 
ATOM     11  C   UNL     1      -8.602  -0.662 125.900  0.00  0.00    +0.000 C 
ATOM     12  O   UNL     1      -9.492  -1.429 125.567  0.00  0.00    +0.000 OA
BRANCH  10  14
ATOM     13  C   UNL     1      -9.810   1.541 123.509  0.00  0.00    +0.000 C 
ATOM     14  C   UNL     1      -9.956   1.086 124.938  0.00  0.00    +0.000 C 
ENDBRANCH  10  14
BRANCH  10  15
ATOM     15  C   UNL     1      -7.786   1.649 126.250  0.00  0.00    +0.000 C 
ATOM     16  C   UNL     1      -6.682   2.299 125.464  0.00  0.00    +0.000 C 
ENDBRANCH  10  15
ENDBRANCH   1  11
BRANCH   3  17
ATOM     17  C   UNL     1      -8.345  -2.836 128.262  0.00  0.00    +0.000 C 
BRANCH  17  18
ATOM     18  N   UNL     1      -8.800  -3.870 127.327  0.00  0.00    +0.000 NA
ATOM     19  H   UNL     1      -8.426  -4.765 127.651  0.00  0.00    +0.000 HD
ATOM     20  H   UNL     1      -8.319  -3.696 126.439  0.00  0.00    +0.000 HD
ENDBRANCH  17  18
ENDBRANCH   3  17
TORSDOF 6
ENDMDL
