MODEL 1
REMARK VINA RESULT:      -8.9      0.000      0.000
REMARK  Name = Levoketoconazole
REMARK  8 active torsions:
REMARK  status: ('A' for Active; 'I' for Inactive)
REMARK    1  A    between atoms: C_1  and  C_2
REMARK    2  A    between atoms: N_7  and  C_10
REMARK    3  A    between atoms: C_13  and  O_14
REMARK    4  A    between atoms: O_14  and  C_15
REMARK    5  A    between atoms: C_15  and  C_16
REMARK    6  A    between atoms: C_19  and  C_20
REMARK    7  A    between atoms: C_19  and  C_27
REMARK    8  A    between atoms: C_20  and  N_21
REMARK                            x       y       z     vdW  Elec       q    Type
REMARK                         _______ _______ _______ _____ _____    ______ ____
ROOT
ATOM      1  C   UNL     1      -7.055  -0.762 130.911  0.00  0.00    +0.000 C 
ATOM      2  C   UNL     1      -5.737  -1.200 130.243  0.00  0.00    +0.000 C 
ATOM      3  O   UNL     1      -5.835  -0.890 128.843  0.00  0.00    +0.000 OA
ATOM      4  C   UNL     1      -7.199  -0.540 128.613  0.00  0.00    +0.000 C 
ATOM      5  O   UNL     1      -7.975  -0.752 129.810  0.00  0.00    +0.000 OA
ENDROOT
BRANCH   4   6
ATOM      6  C   UNL     1      -7.827  -1.308 127.437  0.00  0.00    +0.000 A 
ATOM      7  C   UNL     1      -8.112  -0.651 126.196  0.00  0.00    +0.000 A 
ATOM      8  C   UNL     1      -8.725  -1.289 125.130  0.00  0.00    +0.000 A 
ATOM      9  C   UNL     1      -9.016  -2.630 125.248  0.00  0.00    +0.000 A 
ATOM     10 CL   UNL     1      -9.678  -3.466 123.906  0.00  0.00    +0.000 Cl
ATOM     11  C   UNL     1      -8.751  -3.310 126.433  0.00  0.00    +0.000 A 
ATOM     12  C   UNL     1      -8.173  -2.658 127.525  0.00  0.00    +0.000 A 
ATOM     13 CL   UNL     1      -7.933  -3.628 128.928  0.00  0.00    +0.000 Cl
ENDBRANCH   4   6
BRANCH   1  14
ATOM     14  C   UNL     1      -7.080   0.572 131.789  0.00  0.00    +0.000 C 
BRANCH  14  15
ATOM     15  O   UNL     1      -8.289   0.784 132.607  0.00  0.00    +0.000 OA
BRANCH  15  19
ATOM     16  C   UNL     1      -9.822   4.727 132.016  0.00  0.00    +0.000 A 
ATOM     17  C   UNL     1      -9.956   3.703 131.071  0.00  0.00    +0.000 A 
ATOM     18  C   UNL     1      -9.663   2.350 131.377  0.00  0.00    +0.000 A 
ATOM     19  C   UNL     1      -8.984   2.005 132.576  0.00  0.00    +0.000 A 
ATOM     20  C   UNL     1      -8.830   3.027 133.517  0.00  0.00    +0.000 A 
ATOM     21  C   UNL     1      -9.235   4.369 133.234  0.00  0.00    +0.000 A 
BRANCH  16  28
ATOM     22  C   UNL     1     -12.739   9.432 129.388  0.00  0.00    +0.000 C 
ATOM     23  C   UNL     1     -11.836   8.437 128.714  0.00  0.00    +0.000 C 
ATOM     24  O   UNL     1     -11.344   8.693 127.587  0.00  0.00    +0.000 OA
ATOM     25  N   UNL     1     -11.449   7.345 129.445  0.00  0.00    +0.000 N 
ATOM     26  C   UNL     1     -10.088   6.817 129.346  0.00  0.00    +0.000 C 
ATOM     27  C   UNL     1      -9.460   6.739 130.755  0.00  0.00    +0.000 C 
ATOM     28  N   UNL     1     -10.323   5.978 131.690  0.00  0.00    +0.000 N 
ATOM     29  C   UNL     1     -11.739   6.379 131.717  0.00  0.00    +0.000 C 
ATOM     30  C   UNL     1     -12.327   6.541 130.305  0.00  0.00    +0.000 C 
ENDBRANCH  16  28
ENDBRANCH  15  19
ENDBRANCH  14  15
ENDBRANCH   1  14
BRANCH   4  31
ATOM     31  C   UNL     1      -7.260   0.924 128.219  0.00  0.00    +0.000 C 
BRANCH  31  32
ATOM     32  N   UNL     1      -6.051   1.609 127.917  0.00  0.00    +0.000 N 
ATOM     33  C   UNL     1      -5.257   1.691 126.821  0.00  0.00    +0.000 A 
ATOM     34  C   UNL     1      -4.139   2.338 127.291  0.00  0.00    +0.000 A 
ATOM     35  N   UNL     1      -4.407   2.923 128.490  0.00  0.00    +0.000 NA
ATOM     36  C   UNL     1      -5.497   2.342 128.899  0.00  0.00    +0.000 A 
ENDBRANCH  31  32
ENDBRANCH   4  31
TORSDOF 7
ENDMDL
MODEL 2
REMARK VINA RESULT:      -8.9      1.815      2.339
REMARK  Name = Levoketoconazole
REMARK  8 active torsions:
REMARK  status: ('A' for Active; 'I' for Inactive)
REMARK    1  A    between atoms: C_1  and  C_2
REMARK    2  A    between atoms: N_7  and  C_10
REMARK    3  A    between atoms: C_13  and  O_14
REMARK    4  A    between atoms: O_14  and  C_15
REMARK    5  A    between atoms: C_15  and  C_16
REMARK    6  A    between atoms: C_19  and  C_20
REMARK    7  A    between atoms: C_19  and  C_27
REMARK    8  A    between atoms: C_20  and  N_21
REMARK                            x       y       z     vdW  Elec       q    Type
REMARK                         _______ _______ _______ _____ _____    ______ ____
ROOT
ATOM      1  C   UNL     1      -8.065  -0.495 131.143  0.00  0.00    +0.000 C 
ATOM      2  C   UNL     1      -7.810  -2.006 131.307  0.00  0.00    +0.000 C 
ATOM      3  O   UNL     1      -7.170  -2.471 130.107  0.00  0.00    +0.000 OA
ATOM      4  C   UNL     1      -7.263  -1.399 129.171  0.00  0.00    +0.000 C 
ATOM      5  O   UNL     1      -8.061  -0.329 129.718  0.00  0.00    +0.000 OA
ENDROOT
BRANCH   4   6
ATOM      6  C   UNL     1      -7.834  -1.837 127.811  0.00  0.00    +0.000 A 
ATOM      7  C   UNL     1      -8.132  -3.214 127.545  0.00  0.00    +0.000 A 
ATOM      8  C   UNL     1      -8.596  -3.660 126.318  0.00  0.00    +0.000 A 
ATOM      9  C   UNL     1      -8.841  -2.729 125.332  0.00  0.00    +0.000 A 
ATOM     10 CL   UNL     1      -9.515  -3.244 123.843  0.00  0.00    +0.000 Cl
ATOM     11  C   UNL     1      -8.572  -1.382 125.549  0.00  0.00    +0.000 A 
ATOM     12  C   UNL     1      -8.062  -0.934 126.770  0.00  0.00    +0.000 A 
ATOM     13 CL   UNL     1      -7.756   0.758 126.873  0.00  0.00    +0.000 Cl
ENDBRANCH   4   6
BRANCH   1  14
ATOM     14  C   UNL     1      -7.129   0.543 131.918  0.00  0.00    +0.000 C 
BRANCH  14  15
ATOM     15  O   UNL     1      -7.733   1.208 133.088  0.00  0.00    +0.000 OA
BRANCH  15  19
ATOM     16  C   UNL     1      -9.529   4.978 132.191  0.00  0.00    +0.000 A 
ATOM     17  C   UNL     1      -9.492   3.912 131.284  0.00  0.00    +0.000 A 
ATOM     18  C   UNL     1      -9.116   2.601 131.674  0.00  0.00    +0.000 A 
ATOM     19  C   UNL     1      -8.521   2.362 132.942  0.00  0.00    +0.000 A 
ATOM     20  C   UNL     1      -8.538   3.428 133.847  0.00  0.00    +0.000 A 
ATOM     21  C   UNL     1      -9.026   4.718 133.469  0.00  0.00    +0.000 A 
BRANCH  16  28
ATOM     22  C   UNL     1     -12.773   9.268 129.253  0.00  0.00    +0.000 C 
ATOM     23  C   UNL     1     -11.856   8.248 128.638  0.00  0.00    +0.000 C 
ATOM     24  O   UNL     1     -11.426   8.409 127.469  0.00  0.00    +0.000 OA
ATOM     25  N   UNL     1     -11.387   7.252 129.454  0.00  0.00    +0.000 N 
ATOM     26  C   UNL     1     -10.009   6.774 129.342  0.00  0.00    +0.000 C 
ATOM     27  C   UNL     1      -9.317   6.865 130.720  0.00  0.00    +0.000 C 
ATOM     28  N   UNL     1     -10.101   6.167 131.767  0.00  0.00    +0.000 N 
ATOM     29  C   UNL     1     -11.532   6.511 131.823  0.00  0.00    +0.000 C 
ATOM     30  C   UNL     1     -12.188   6.504 130.431  0.00  0.00    +0.000 C 
ENDBRANCH  16  28
ENDBRANCH  15  19
ENDBRANCH  14  15
ENDBRANCH   1  14
BRANCH   4  31
ATOM     31  C   UNL     1      -5.864  -0.892 128.879  0.00  0.00    +0.000 C 
BRANCH  31  32
ATOM     32  N   UNL     1      -4.750  -1.725 129.180  0.00  0.00    +0.000 N 
ATOM     33  C   UNL     1      -4.284  -2.898 128.687  0.00  0.00    +0.000 A 
ATOM     34  C   UNL     1      -3.305  -3.249 129.585  0.00  0.00    +0.000 A 
ATOM     35  N   UNL     1      -2.965  -2.176 130.350  0.00  0.00    +0.000 NA
ATOM     36  C   UNL     1      -3.947  -1.337 130.186  0.00  0.00    +0.000 A 
ENDBRANCH  31  32
ENDBRANCH   4  31
TORSDOF 7
ENDMDL
MODEL 3
REMARK VINA RESULT:      -8.4      1.718      1.825
REMARK  Name = Levoketoconazole
REMARK  8 active torsions:
REMARK  status: ('A' for Active; 'I' for Inactive)
REMARK    1  A    between atoms: C_1  and  C_2
REMARK    2  A    between atoms: N_7  and  C_10
REMARK    3  A    between atoms: C_13  and  O_14
REMARK    4  A    between atoms: O_14  and  C_15
REMARK    5  A    between atoms: C_15  and  C_16
REMARK    6  A    between atoms: C_19  and  C_20
REMARK    7  A    between atoms: C_19  and  C_27
REMARK    8  A    between atoms: C_20  and  N_21
REMARK                            x       y       z     vdW  Elec       q    Type
REMARK                         _______ _______ _______ _____ _____    ______ ____
ROOT
ATOM      1  C   UNL     1      -7.403  -0.875 131.089  0.00  0.00    +0.000 C 
ATOM      2  C   UNL     1      -6.011  -0.228 130.947  0.00  0.00    +0.000 C 
ATOM      3  O   UNL     1      -5.976   0.454 129.682  0.00  0.00    +0.000 OA
ATOM      4  C   UNL     1      -7.147   0.041 128.980  0.00  0.00    +0.000 C 
ATOM      5  O   UNL     1      -7.839  -0.982 129.726  0.00  0.00    +0.000 OA
ENDROOT
BRANCH   4   6
ATOM      6  C   UNL     1      -6.849  -0.460 127.557  0.00  0.00    +0.000 A 
ATOM      7  C   UNL     1      -7.490   0.131 126.419  0.00  0.00    +0.000 A 
ATOM      8  C   UNL     1      -7.293  -0.322 125.124  0.00  0.00    +0.000 A 
ATOM      9  C   UNL     1      -6.392  -1.345 124.917  0.00  0.00    +0.000 A 
ATOM     10 CL   UNL     1      -6.052  -1.851 123.316  0.00  0.00    +0.000 Cl
ATOM     11  C   UNL     1      -5.742  -1.942 125.992  0.00  0.00    +0.000 A 
ATOM     12  C   UNL     1      -5.973  -1.517 127.303  0.00  0.00    +0.000 A 
ATOM     13 CL   UNL     1      -5.114  -2.375 128.525  0.00  0.00    +0.000 Cl
ENDBRANCH   4   6
BRANCH   1  14
ATOM     14  C   UNL     1      -8.479  -0.207 132.063  0.00  0.00    +0.000 C 
BRANCH  14  15
ATOM     15  O   UNL     1      -7.997   0.921 132.883  0.00  0.00    +0.000 OA
BRANCH  15  19
ATOM     16  C   UNL     1      -9.567   4.825 132.149  0.00  0.00    +0.000 A 
ATOM     17  C   UNL     1      -9.992   3.685 131.456  0.00  0.00    +0.000 A 
ATOM     18  C   UNL     1      -9.645   2.374 131.872  0.00  0.00    +0.000 A 
ATOM     19  C   UNL     1      -8.648   2.165 132.862  0.00  0.00    +0.000 A 
ATOM     20  C   UNL     1      -8.205   3.301 133.546  0.00  0.00    +0.000 A 
ATOM     21  C   UNL     1      -8.653   4.611 133.184  0.00  0.00    +0.000 A 
BRANCH  16  28
ATOM     22  C   UNL     1     -12.721   9.320 129.428  0.00  0.00    +0.000 C 
ATOM     23  C   UNL     1     -11.803   8.329 128.765  0.00  0.00    +0.000 C 
ATOM     24  O   UNL     1     -11.353   8.556 127.615  0.00  0.00    +0.000 OA
ATOM     25  N   UNL     1     -11.357   7.281 129.527  0.00  0.00    +0.000 N 
ATOM     26  C   UNL     1      -9.982   6.796 129.408  0.00  0.00    +0.000 C 
ATOM     27  C   UNL     1      -9.312   6.795 130.799  0.00  0.00    +0.000 C 
ATOM     28  N   UNL     1     -10.120   6.044 131.789  0.00  0.00    +0.000 N 
ATOM     29  C   UNL     1     -11.548   6.398 131.843  0.00  0.00    +0.000 C 
ATOM     30  C   UNL     1     -12.182   6.484 130.444  0.00  0.00    +0.000 C 
ENDBRANCH  16  28
ENDBRANCH  15  19
ENDBRANCH  14  15
ENDBRANCH   1  14
BRANCH   4  31
ATOM     31  C   UNL     1      -8.053   1.244 128.805  0.00  0.00    +0.000 C 
BRANCH  31  32
ATOM     32  N   UNL     1      -7.503   2.549 128.936  0.00  0.00    +0.000 N 
ATOM     33  C   UNL     1      -6.737   3.165 129.869  0.00  0.00    +0.000 A 
ATOM     34  C   UNL     1      -6.764   4.482 129.478  0.00  0.00    +0.000 A 
ATOM     35  N   UNL     1      -7.211   4.580 128.197  0.00  0.00    +0.000 NA
ATOM     36  C   UNL     1      -7.782   3.434 127.963  0.00  0.00    +0.000 A 
ENDBRANCH  31  32
ENDBRANCH   4  31
TORSDOF 7
ENDMDL
MODEL 4
REMARK VINA RESULT:      -8.4      4.867      8.955
REMARK  Name = Levoketoconazole
REMARK  8 active torsions:
REMARK  status: ('A' for Active; 'I' for Inactive)
REMARK    1  A    between atoms: C_1  and  C_2
REMARK    2  A    between atoms: N_7  and  C_10
REMARK    3  A    between atoms: C_13  and  O_14
REMARK    4  A    between atoms: O_14  and  C_15
REMARK    5  A    between atoms: C_15  and  C_16
REMARK    6  A    between atoms: C_19  and  C_20
REMARK    7  A    between atoms: C_19  and  C_27
REMARK    8  A    between atoms: C_20  and  N_21
REMARK                            x       y       z     vdW  Elec       q    Type
REMARK                         _______ _______ _______ _____ _____    ______ ____
ROOT
ATOM      1  C   UNL     1      -7.752  -0.147 123.812  0.00  0.00    +0.000 C 
ATOM      2  C   UNL     1      -6.404   0.289 124.418  0.00  0.00    +0.000 C 
ATOM      3  O   UNL     1      -6.316   1.719 124.297  0.00  0.00    +0.000 OA
ATOM      4  C   UNL     1      -7.392   2.108 123.446  0.00  0.00    +0.000 C 
ATOM      5  O   UNL     1      -8.067   0.942 122.931  0.00  0.00    +0.000 OA
ENDROOT
BRANCH   4   6
ATOM      6  C   UNL     1      -6.943   3.010 122.283  0.00  0.00    +0.000 A 
ATOM      7  C   UNL     1      -5.620   3.558 122.244  0.00  0.00    +0.000 A 
ATOM      8  C   UNL     1      -5.189   4.417 121.246  0.00  0.00    +0.000 A 
ATOM      9  C   UNL     1      -6.054   4.706 120.212  0.00  0.00    +0.000 A 
ATOM     10 CL   UNL     1      -5.510   5.680 118.911  0.00  0.00    +0.000 Cl
ATOM     11  C   UNL     1      -7.346   4.190 120.205  0.00  0.00    +0.000 A 
ATOM     12  C   UNL     1      -7.797   3.359 121.234  0.00  0.00    +0.000 A 
ATOM     13 CL   UNL     1      -9.429   2.825 121.097  0.00  0.00    +0.000 Cl
ENDBRANCH   4   6
BRANCH   1  14
ATOM     14  C   UNL     1      -8.950  -0.559 124.786  0.00  0.00    +0.000 C 
BRANCH  14  15
ATOM     15  O   UNL     1      -8.967  -1.966 125.230  0.00  0.00    +0.000 OA
BRANCH  15  19
ATOM     16  C   UNL     1      -7.694  -3.178 129.123  0.00  0.00    +0.000 A 
ATOM     17  C   UNL     1      -7.343  -1.950 128.550  0.00  0.00    +0.000 A 
ATOM     18  C   UNL     1      -7.965  -1.460 127.373  0.00  0.00    +0.000 A 
ATOM     19  C   UNL     1      -8.792  -2.303 126.583  0.00  0.00    +0.000 A 
ATOM     20  C   UNL     1      -9.131  -3.539 127.140  0.00  0.00    +0.000 A 
ATOM     21  C   UNL     1      -8.579  -3.971 128.387  0.00  0.00    +0.000 A 
BRANCH  16  28
ATOM     22  C   UNL     1      -4.554  -3.180 134.386  0.00  0.00    +0.000 C 
ATOM     23  C   UNL     1      -3.988  -3.100 132.994  0.00  0.00    +0.000 C 
ATOM     24  O   UNL     1      -2.776  -3.357 132.790  0.00  0.00    +0.000 OA
ATOM     25  N   UNL     1      -4.874  -2.909 131.967  0.00  0.00    +0.000 N 
ATOM     26  C   UNL     1      -4.703  -3.598 130.688  0.00  0.00    +0.000 C 
ATOM     27  C   UNL     1      -5.996  -4.366 130.338  0.00  0.00    +0.000 C 
ATOM     28  N   UNL     1      -7.181  -3.477 130.376  0.00  0.00    +0.000 N 
ATOM     29  C   UNL     1      -7.318  -2.652 131.588  0.00  0.00    +0.000 C 
ATOM     30  C   UNL     1      -5.998  -1.964 131.977  0.00  0.00    +0.000 C 
ENDBRANCH  16  28
ENDBRANCH  15  19
ENDBRANCH  14  15
ENDBRANCH   1  14
BRANCH   4  31
ATOM     31  C   UNL     1      -8.366   2.944 124.254  0.00  0.00    +0.000 C 
BRANCH  31  32
ATOM     32  N   UNL     1      -7.998   3.362 125.562  0.00  0.00    +0.000 N 
ATOM     33  C   UNL     1      -8.023   2.778 126.786  0.00  0.00    +0.000 A 
ATOM     34  C   UNL     1      -7.742   3.819 127.637  0.00  0.00    +0.000 A 
ATOM     35  N   UNL     1      -7.225   4.867 126.939  0.00  0.00    +0.000 NA
ATOM     36  C   UNL     1      -7.535   4.616 125.700  0.00  0.00    +0.000 A 
ENDBRANCH  31  32
ENDBRANCH   4  31
TORSDOF 7
ENDMDL
MODEL 5
REMARK VINA RESULT:      -8.4      3.890      8.779
REMARK  Name = Levoketoconazole
REMARK  8 active torsions:
REMARK  status: ('A' for Active; 'I' for Inactive)
REMARK    1  A    between atoms: C_1  and  C_2
REMARK    2  A    between atoms: N_7  and  C_10
REMARK    3  A    between atoms: C_13  and  O_14
REMARK    4  A    between atoms: O_14  and  C_15
REMARK    5  A    between atoms: C_15  and  C_16
REMARK    6  A    between atoms: C_19  and  C_20
REMARK    7  A    between atoms: C_19  and  C_27
REMARK    8  A    between atoms: C_20  and  N_21
REMARK                            x       y       z     vdW  Elec       q    Type
REMARK                         _______ _______ _______ _____ _____    ______ ____
ROOT
ATOM      1  C   UNL     1      -6.865   6.437 131.120  0.00  0.00    +0.000 C 
ATOM      2  C   UNL     1      -7.791   6.139 132.315  0.00  0.00    +0.000 C 
ATOM      3  O   UNL     1      -9.088   5.812 131.788  0.00  0.00    +0.000 OA
ATOM      4  C   UNL     1      -9.043   6.141 130.401  0.00  0.00    +0.000 C 
ATOM      5  O   UNL     1      -7.794   6.786 130.083  0.00  0.00    +0.000 OA
ENDROOT
BRANCH   4   6
ATOM      6  C   UNL     1     -10.219   7.026 129.955  0.00  0.00    +0.000 A 
ATOM      7  C   UNL     1     -10.131   7.825 128.768  0.00  0.00    +0.000 A 
ATOM      8  C   UNL     1     -11.144   8.677 128.358  0.00  0.00    +0.000 A 
ATOM      9  C   UNL     1     -12.311   8.709 129.090  0.00  0.00    +0.000 A 
ATOM     10 CL   UNL     1     -13.617   9.675 128.543  0.00  0.00    +0.000 Cl
ATOM     11  C   UNL     1     -12.443   7.945 130.245  0.00  0.00    +0.000 A 
ATOM     12  C   UNL     1     -11.406   7.119 130.686  0.00  0.00    +0.000 A 
ATOM     13 CL   UNL     1     -11.711   6.258 132.146  0.00  0.00    +0.000 Cl
ENDBRANCH   4   6
BRANCH   1  14
ATOM     14  C   UNL     1      -5.783   5.346 130.680  0.00  0.00    +0.000 C 
BRANCH  14  15
ATOM     15  O   UNL     1      -5.384   5.368 129.260  0.00  0.00    +0.000 OA
BRANCH  15  19
ATOM     16  C   UNL     1      -6.128   1.691 127.218  0.00  0.00    +0.000 A 
ATOM     17  C   UNL     1      -6.707   2.909 126.840  0.00  0.00    +0.000 A 
ATOM     18  C   UNL     1      -6.267   4.150 127.366  0.00  0.00    +0.000 A 
ATOM     19  C   UNL     1      -5.392   4.197 128.484  0.00  0.00    +0.000 A 
ATOM     20  C   UNL     1      -4.824   2.983 128.880  0.00  0.00    +0.000 A 
ATOM     21  C   UNL     1      -5.197   1.748 128.260  0.00  0.00    +0.000 A 
BRANCH  16  28
ATOM     22  C   UNL     1      -9.085  -3.121 124.840  0.00  0.00    +0.000 C 
ATOM     23  C   UNL     1      -8.927  -2.786 126.298  0.00  0.00    +0.000 C 
ATOM     24  O   UNL     1      -9.123  -3.665 127.172  0.00  0.00    +0.000 OA
ATOM     25  N   UNL     1      -8.405  -1.557 126.606  0.00  0.00    +0.000 N 
ATOM     26  C   UNL     1      -7.467  -1.396 127.717  0.00  0.00    +0.000 C 
ATOM     27  C   UNL     1      -6.179  -0.710 127.210  0.00  0.00    +0.000 C 
ATOM     28  N   UNL     1      -6.482   0.557 126.504  0.00  0.00    +0.000 N 
ATOM     29  C   UNL     1      -7.529   0.474 125.471  0.00  0.00    +0.000 C 
ATOM     30  C   UNL     1      -8.771  -0.290 125.961  0.00  0.00    +0.000 C 
ENDBRANCH  16  28
ENDBRANCH  15  19
ENDBRANCH  14  15
ENDBRANCH   1  14
BRANCH   4  31
ATOM     31  C   UNL     1      -9.173   4.860 129.599  0.00  0.00    +0.000 C 
BRANCH  31  32
ATOM     32  N   UNL     1      -9.391   3.634 130.285  0.00  0.00    +0.000 N 
ATOM     33  C   UNL     1     -10.439   3.098 130.958  0.00  0.00    +0.000 A 
ATOM     34  C   UNL     1      -9.892   1.990 131.560  0.00  0.00    +0.000 A 
ATOM     35  N   UNL     1      -8.696   1.688 130.985  0.00  0.00    +0.000 NA
ATOM     36  C   UNL     1      -8.362   2.770 130.343  0.00  0.00    +0.000 A 
ENDBRANCH  31  32
ENDBRANCH   4  31
TORSDOF 7
ENDMDL
MODEL 6
REMARK VINA RESULT:      -8.1      3.524      4.438
REMARK  Name = Levoketoconazole
REMARK  8 active torsions:
REMARK  status: ('A' for Active; 'I' for Inactive)
REMARK    1  A    between atoms: C_1  and  C_2
REMARK    2  A    between atoms: N_7  and  C_10
REMARK    3  A    between atoms: C_13  and  O_14
REMARK    4  A    between atoms: O_14  and  C_15
REMARK    5  A    between atoms: C_15  and  C_16
REMARK    6  A    between atoms: C_19  and  C_20
REMARK    7  A    between atoms: C_19  and  C_27
REMARK    8  A    between atoms: C_20  and  N_21
REMARK                            x       y       z     vdW  Elec       q    Type
REMARK                         _______ _______ _______ _____ _____    ______ ____
ROOT
ATOM      1  C   UNL     1      -5.647   1.031 131.803  0.00  0.00    +0.000 C 
ATOM      2  C   UNL     1      -4.170   1.467 131.757  0.00  0.00    +0.000 C 
ATOM      3  O   UNL     1      -4.106   2.709 131.035  0.00  0.00    +0.000 OA
ATOM      4  C   UNL     1      -5.395   2.890 130.450  0.00  0.00    +0.000 C 
ATOM      5  O   UNL     1      -6.215   1.727 130.683  0.00  0.00    +0.000 OA
ENDROOT
BRANCH   4   6
ATOM      6  C   UNL     1      -5.334   3.195 128.944  0.00  0.00    +0.000 A 
ATOM      7  C   UNL     1      -6.361   2.735 128.056  0.00  0.00    +0.000 A 
ATOM      8  C   UNL     1      -6.320   2.940 126.687  0.00  0.00    +0.000 A 
ATOM      9  C   UNL     1      -5.277   3.674 126.165  0.00  0.00    +0.000 A 
ATOM     10 CL   UNL     1      -5.260   4.032 124.489  0.00  0.00    +0.000 Cl
ATOM     11  C   UNL     1      -4.262   4.146 126.990  0.00  0.00    +0.000 A 
ATOM     12  C   UNL     1      -4.277   3.902 128.366  0.00  0.00    +0.000 A 
ATOM     13 CL   UNL     1      -2.936   4.528 129.247  0.00  0.00    +0.000 Cl
ENDBRANCH   4   6
BRANCH   1  14
ATOM     14  C   UNL     1      -6.472   1.207 133.161  0.00  0.00    +0.000 C 
BRANCH  14  15
ATOM     15  O   UNL     1      -7.941   1.174 133.033  0.00  0.00    +0.000 OA
BRANCH  15  19
ATOM     16  C   UNL     1      -9.663   4.986 132.169  0.00  0.00    +0.000 A 
ATOM     17  C   UNL     1      -9.785   3.880 131.320  0.00  0.00    +0.000 A 
ATOM     18  C   UNL     1      -9.424   2.570 131.728  0.00  0.00    +0.000 A 
ATOM     19  C   UNL     1      -8.688   2.359 132.925  0.00  0.00    +0.000 A 
ATOM     20  C   UNL     1      -8.545   3.463 133.769  0.00  0.00    +0.000 A 
ATOM     21  C   UNL     1      -9.018   4.759 133.388  0.00  0.00    +0.000 A 
BRANCH  16  28
ATOM     22  C   UNL     1     -12.824   9.335 129.227  0.00  0.00    +0.000 C 
ATOM     23  C   UNL     1     -11.871   8.342 128.620  0.00  0.00    +0.000 C 
ATOM     24  O   UNL     1     -11.394   8.542 127.476  0.00  0.00    +0.000 OA
ATOM     25  N   UNL     1     -11.427   7.326 129.425  0.00  0.00    +0.000 N 
ATOM     26  C   UNL     1     -10.040   6.864 129.358  0.00  0.00    +0.000 C 
ATOM     27  C   UNL     1      -9.407   6.919 130.765  0.00  0.00    +0.000 C 
ATOM     28  N   UNL     1     -10.228   6.183 131.757  0.00  0.00    +0.000 N 
ATOM     29  C   UNL     1     -11.664   6.512 131.762  0.00  0.00    +0.000 C 
ATOM     30  C   UNL     1     -12.260   6.542 130.345  0.00  0.00    +0.000 C 
ENDBRANCH  16  28
ENDBRANCH  15  19
ENDBRANCH  14  15
ENDBRANCH   1  14
BRANCH   4  31
ATOM     31  C   UNL     1      -6.044   4.105 131.084  0.00  0.00    +0.000 C 
BRANCH  31  32
ATOM     32  N   UNL     1      -5.330   4.831 132.077  0.00  0.00    +0.000 N 
ATOM     33  C   UNL     1      -5.019   4.603 133.377  0.00  0.00    +0.000 A 
ATOM     34  C   UNL     1      -4.514   5.811 133.795  0.00  0.00    +0.000 A 
ATOM     35  N   UNL     1      -4.207   6.587 132.720  0.00  0.00    +0.000 NA
ATOM     36  C   UNL     1      -4.845   6.036 131.729  0.00  0.00    +0.000 A 
ENDBRANCH  31  32
ENDBRANCH   4  31
TORSDOF 7
ENDMDL
MODEL 7
REMARK VINA RESULT:      -8.1      4.775      6.476
REMARK  Name = Levoketoconazole
REMARK  8 active torsions:
REMARK  status: ('A' for Active; 'I' for Inactive)
REMARK    1  A    between atoms: C_1  and  C_2
REMARK    2  A    between atoms: N_7  and  C_10
REMARK    3  A    between atoms: C_13  and  O_14
REMARK    4  A    between atoms: O_14  and  C_15
REMARK    5  A    between atoms: C_15  and  C_16
REMARK    6  A    between atoms: C_19  and  C_20
REMARK    7  A    between atoms: C_19  and  C_27
REMARK    8  A    between atoms: C_20  and  N_21
REMARK                            x       y       z     vdW  Elec       q    Type
REMARK                         _______ _______ _______ _____ _____    ______ ____
ROOT
ATOM      1  C   UNL     1      -5.185   1.983 133.198  0.00  0.00    +0.000 C 
ATOM      2  C   UNL     1      -3.831   2.329 133.847  0.00  0.00    +0.000 C 
ATOM      3  O   UNL     1      -3.590   3.730 133.626  0.00  0.00    +0.000 OA
ATOM      4  C   UNL     1      -4.577   4.155 132.689  0.00  0.00    +0.000 C 
ATOM      5  O   UNL     1      -5.342   3.025 132.224  0.00  0.00    +0.000 OA
ENDROOT
BRANCH   4   6
ATOM      6  C   UNL     1      -3.981   4.914 131.491  0.00  0.00    +0.000 A 
ATOM      7  C   UNL     1      -2.602   5.308 131.480  0.00  0.00    +0.000 A 
ATOM      8  C   UNL     1      -2.036   6.038 130.448  0.00  0.00    +0.000 A 
ATOM      9  C   UNL     1      -2.819   6.345 129.356  0.00  0.00    +0.000 A 
ATOM     10 CL   UNL     1      -2.114   7.155 128.020  0.00  0.00    +0.000 Cl
ATOM     11  C   UNL     1      -4.160   5.977 129.321  0.00  0.00    +0.000 A 
ATOM     12  C   UNL     1      -4.745   5.279 130.381  0.00  0.00    +0.000 A 
ATOM     13 CL   UNL     1      -6.420   4.921 130.201  0.00  0.00    +0.000 Cl
ENDBRANCH   4   6
BRANCH   1  14
ATOM     14  C   UNL     1      -6.466   1.769 134.130  0.00  0.00    +0.000 C 
BRANCH  14  15
ATOM     15  O   UNL     1      -7.748   1.565 133.429  0.00  0.00    +0.000 OA
BRANCH  15  19
ATOM     16  C   UNL     1      -9.732   5.110 132.109  0.00  0.00    +0.000 A 
ATOM     17  C   UNL     1      -9.577   3.974 131.306  0.00  0.00    +0.000 A 
ATOM     18  C   UNL     1      -9.139   2.731 131.830  0.00  0.00    +0.000 A 
ATOM     19  C   UNL     1      -8.599   2.645 133.141  0.00  0.00    +0.000 A 
ATOM     20  C   UNL     1      -8.733   3.781 133.944  0.00  0.00    +0.000 A 
ATOM     21  C   UNL     1      -9.283   4.998 133.429  0.00  0.00    +0.000 A 
BRANCH  16  28
ATOM     22  C   UNL     1     -12.901   8.934 128.519  0.00  0.00    +0.000 C 
ATOM     23  C   UNL     1     -11.783   8.018 128.102  0.00  0.00    +0.000 C 
ATOM     24  O   UNL     1     -11.184   8.208 127.015  0.00  0.00    +0.000 OA
ATOM     25  N   UNL     1     -11.349   7.100 129.021  0.00  0.00    +0.000 N 
ATOM     26  C   UNL     1      -9.926   6.786 129.156  0.00  0.00    +0.000 C 
ATOM     27  C   UNL     1      -9.490   6.982 130.624  0.00  0.00    +0.000 C 
ATOM     28  N   UNL     1     -10.355   6.216 131.553  0.00  0.00    +0.000 N 
ATOM     29  C   UNL     1     -11.805   6.389 131.359  0.00  0.00    +0.000 C 
ATOM     30  C   UNL     1     -12.213   6.280 129.880  0.00  0.00    +0.000 C 
ENDBRANCH  16  28
ENDBRANCH  15  19
ENDBRANCH  14  15
ENDBRANCH   1  14
BRANCH   4  31
ATOM     31  C   UNL     1      -5.498   5.145 133.377  0.00  0.00    +0.000 C 
BRANCH  31  32
ATOM     32  N   UNL     1      -5.260   5.479 134.739  0.00  0.00    +0.000 N 
ATOM     33  C   UNL     1      -5.720   5.008 135.924  0.00  0.00    +0.000 A 
ATOM     34  C   UNL     1      -5.256   5.931 136.830  0.00  0.00    +0.000 A 
ATOM     35  N   UNL     1      -4.280   6.692 136.264  0.00  0.00    +0.000 NA
ATOM     36  C   UNL     1      -4.419   6.498 134.985  0.00  0.00    +0.000 A 
ENDBRANCH  31  32
ENDBRANCH   4  31
TORSDOF 7
ENDMDL
MODEL 8
REMARK VINA RESULT:      -8.1      2.037      3.031
REMARK  Name = Levoketoconazole
REMARK  8 active torsions:
REMARK  status: ('A' for Active; 'I' for Inactive)
REMARK    1  A    between atoms: C_1  and  C_2
REMARK    2  A    between atoms: N_7  and  C_10
REMARK    3  A    between atoms: C_13  and  O_14
REMARK    4  A    between atoms: O_14  and  C_15
REMARK    5  A    between atoms: C_15  and  C_16
REMARK    6  A    between atoms: C_19  and  C_20
REMARK    7  A    between atoms: C_19  and  C_27
REMARK    8  A    between atoms: C_20  and  N_21
REMARK                            x       y       z     vdW  Elec       q    Type
REMARK                         _______ _______ _______ _____ _____    ______ ____
ROOT
ATOM      1  C   UNL     1      -5.198  -3.329 130.098  0.00  0.00    +0.000 C 
ATOM      2  C   UNL     1      -4.162  -2.927 129.031  0.00  0.00    +0.000 C 
ATOM      3  O   UNL     1      -4.824  -2.073 128.082  0.00  0.00    +0.000 OA
ATOM      4  C   UNL     1      -6.216  -2.156 128.384  0.00  0.00    +0.000 C 
ATOM      5  O   UNL     1      -6.444  -3.143 129.411  0.00  0.00    +0.000 OA
ENDROOT
BRANCH   4   6
ATOM      6  C   UNL     1      -7.080  -2.473 127.151  0.00  0.00    +0.000 A 
ATOM      7  C   UNL     1      -6.648  -2.107 125.834  0.00  0.00    +0.000 A 
ATOM      8  C   UNL     1      -7.416  -2.324 124.702  0.00  0.00    +0.000 A 
ATOM      9  C   UNL     1      -8.622  -2.977 124.844  0.00  0.00    +0.000 A 
ATOM     10 CL   UNL     1      -9.541  -3.351 123.446  0.00  0.00    +0.000 Cl
ATOM     11  C   UNL     1      -9.077  -3.356 126.102  0.00  0.00    +0.000 A 
ATOM     12  C   UNL     1      -8.324  -3.099 127.250  0.00  0.00    +0.000 A 
ATOM     13 CL   UNL     1      -9.036  -3.604 128.735  0.00  0.00    +0.000 Cl
ENDBRANCH   4   6
BRANCH   1  14
ATOM     14  C   UNL     1      -5.143  -2.640 131.539  0.00  0.00    +0.000 C 
BRANCH  14  15
ATOM     15  O   UNL     1      -6.426  -2.551 132.261  0.00  0.00    +0.000 OA
BRANCH  15  19
ATOM     16  C   UNL     1      -8.061   1.394 132.376  0.00  0.00    +0.000 A 
ATOM     17  C   UNL     1      -8.731   0.303 131.809  0.00  0.00    +0.000 A 
ATOM     18  C   UNL     1      -8.291  -1.033 131.993  0.00  0.00    +0.000 A 
ATOM     19  C   UNL     1      -7.013  -1.307 132.550  0.00  0.00    +0.000 A 
ATOM     20  C   UNL     1      -6.330  -0.220 133.102  0.00  0.00    +0.000 A 
ATOM     21  C   UNL     1      -6.845   1.111 133.004  0.00  0.00    +0.000 A 
BRANCH  16  28
ATOM     22  C   UNL     1     -10.042   6.936 130.668  0.00  0.00    +0.000 C 
ATOM     23  C   UNL     1      -8.618   6.453 130.696  0.00  0.00    +0.000 C 
ATOM     24  O   UNL     1      -7.671   7.277 130.675  0.00  0.00    +0.000 OA
ATOM     25  N   UNL     1      -8.413   5.116 130.916  0.00  0.00    +0.000 N 
ATOM     26  C   UNL     1      -7.308   4.652 131.755  0.00  0.00    +0.000 C 
ATOM     27  C   UNL     1      -7.856   3.735 132.870  0.00  0.00    +0.000 C 
ATOM     28  N   UNL     1      -8.676   2.634 132.311  0.00  0.00    +0.000 N 
ATOM     29  C   UNL     1      -9.712   3.040 131.346  0.00  0.00    +0.000 C 
ATOM     30  C   UNL     1      -9.174   4.025 130.294  0.00  0.00    +0.000 C 
ENDBRANCH  16  28
ENDBRANCH  15  19
ENDBRANCH  14  15
ENDBRANCH   1  14
BRANCH   4  31
ATOM     31  C   UNL     1      -6.685  -0.798 128.869  0.00  0.00    +0.000 C 
BRANCH  31  32
ATOM     32  N   UNL     1      -5.863   0.340 128.639  0.00  0.00    +0.000 N 
ATOM     33  C   UNL     1      -5.619   1.130 127.565  0.00  0.00    +0.000 A 
ATOM     34  C   UNL     1      -4.556   1.898 127.976  0.00  0.00    +0.000 A 
ATOM     35  N   UNL     1      -4.419   1.822 129.328  0.00  0.00    +0.000 NA
ATOM     36  C   UNL     1      -5.112   0.773 129.666  0.00  0.00    +0.000 A 
ENDBRANCH  31  32
ENDBRANCH   4  31
TORSDOF 7
ENDMDL
MODEL 9
REMARK VINA RESULT:      -7.9      4.073      7.291
REMARK  Name = Levoketoconazole
REMARK  8 active torsions:
REMARK  status: ('A' for Active; 'I' for Inactive)
REMARK    1  A    between atoms: C_1  and  C_2
REMARK    2  A    between atoms: N_7  and  C_10
REMARK    3  A    between atoms: C_13  and  O_14
REMARK    4  A    between atoms: O_14  and  C_15
REMARK    5  A    between atoms: C_15  and  C_16
REMARK    6  A    between atoms: C_19  and  C_20
REMARK    7  A    between atoms: C_19  and  C_27
REMARK    8  A    between atoms: C_20  and  N_21
REMARK                            x       y       z     vdW  Elec       q    Type
REMARK                         _______ _______ _______ _____ _____    ______ ____
ROOT
ATOM      1  C   UNL     1      -6.109  -2.137 133.152  0.00  0.00    +0.000 C 
ATOM      2  C   UNL     1      -7.631  -2.251 133.370  0.00  0.00    +0.000 C 
ATOM      3  O   UNL     1      -8.240  -1.081 132.799  0.00  0.00    +0.000 OA
ATOM      4  C   UNL     1      -7.170  -0.189 132.494  0.00  0.00    +0.000 C 
ATOM      5  O   UNL     1      -5.922  -0.724 132.983  0.00  0.00    +0.000 OA
ENDROOT
BRANCH   4   6
ATOM      6  C   UNL     1      -7.388   1.227 133.054  0.00  0.00    +0.000 A 
ATOM      7  C   UNL     1      -6.383   1.868 133.850  0.00  0.00    +0.000 A 
ATOM      8  C   UNL     1      -6.558   3.119 134.419  0.00  0.00    +0.000 A 
ATOM      9  C   UNL     1      -7.726   3.802 134.155  0.00  0.00    +0.000 A 
ATOM     10 CL   UNL     1      -7.922   5.393 134.759  0.00  0.00    +0.000 Cl
ATOM     11  C   UNL     1      -8.726   3.220 133.382  0.00  0.00    +0.000 A 
ATOM     12  C   UNL     1      -8.570   1.940 132.844  0.00  0.00    +0.000 A 
ATOM     13 CL   UNL     1      -9.908   1.348 131.934  0.00  0.00    +0.000 Cl
ENDBRANCH   4   6
BRANCH   1  14
ATOM     14  C   UNL     1      -5.413  -3.023 132.019  0.00  0.00    +0.000 C 
BRANCH  14  15
ATOM     15  O   UNL     1      -6.324  -3.799 131.157  0.00  0.00    +0.000 OA
BRANCH  15  19
ATOM     16  C   UNL     1      -7.155  -1.774 127.489  0.00  0.00    +0.000 A 
ATOM     17  C   UNL     1      -5.861  -1.941 127.996  0.00  0.00    +0.000 A 
ATOM     18  C   UNL     1      -5.579  -2.817 129.075  0.00  0.00    +0.000 A 
ATOM     19  C   UNL     1      -6.629  -3.374 129.853  0.00  0.00    +0.000 A 
ATOM     20  C   UNL     1      -7.926  -3.196 129.363  0.00  0.00    +0.000 A 
ATOM     21  C   UNL     1      -8.182  -2.398 128.203  0.00  0.00    +0.000 A 
BRANCH  16  28
ATOM     22  C   UNL     1      -7.326   2.610 123.210  0.00  0.00    +0.000 C 
ATOM     23  C   UNL     1      -7.983   2.639 124.562  0.00  0.00    +0.000 C 
ATOM     24  O   UNL     1      -8.909   3.455 124.797  0.00  0.00    +0.000 OA
ATOM     25  N   UNL     1      -7.651   1.644 125.443  0.00  0.00    +0.000 N 
ATOM     26  C   UNL     1      -8.661   1.040 126.312  0.00  0.00    +0.000 C 
ATOM     27  C   UNL     1      -8.657  -0.493 126.121  0.00  0.00    +0.000 C 
ATOM     28  N   UNL     1      -7.300  -1.059 126.311  0.00  0.00    +0.000 N 
ATOM     29  C   UNL     1      -6.222  -0.387 125.564  0.00  0.00    +0.000 C 
ATOM     30  C   UNL     1      -6.292   1.144 125.690  0.00  0.00    +0.000 C 
ENDBRANCH  16  28
ENDBRANCH  15  19
ENDBRANCH  14  15
ENDBRANCH   1  14
BRANCH   4  31
ATOM     31  C   UNL     1      -7.096  -0.022 130.988  0.00  0.00    +0.000 C 
BRANCH  31  32
ATOM     32  N   UNL     1      -5.986   0.662 130.422  0.00  0.00    +0.000 N 
ATOM     33  C   UNL     1      -4.653   0.670 130.667  0.00  0.00    +0.000 A 
ATOM     34  C   UNL     1      -4.201   1.724 129.909  0.00  0.00    +0.000 A 
ATOM     35  N   UNL     1      -5.143   2.081 128.995  0.00  0.00    +0.000 NA
ATOM     36  C   UNL     1      -6.241   1.534 129.431  0.00  0.00    +0.000 A 
ENDBRANCH  31  32
ENDBRANCH   4  31
TORSDOF 7
ENDMDL
