MODEL 1
REMARK VINA RESULT:      -7.5      0.000      0.000
REMARK  Name = Levomefolic acid
REMARK  12 active torsions:
REMARK  status: ('A' for Active; 'I' for Inactive)
REMARK    1  A    between atoms: C_1  and  N_2
REMARK    2  A    between atoms: C_3  and  C_4
REMARK    3  A    between atoms: C_4  and  N_5
REMARK    4  A    between atoms: N_5  and  C_6
REMARK    5  A    between atoms: C_9  and  C_12
REMARK    6  A    between atoms: N_14  and  CA_15
REMARK    7  A    between atoms: CA_15  and  CB_16
REMARK    8  A    between atoms: CA_15  and  C_21
REMARK    9  A    between atoms: CB_16  and  CG_17
REMARK   10  A    between atoms: CG_17  and  CD_18
REMARK   11  A    between atoms: CD_18  and  OE1_19
REMARK   12  A    between atoms: C_21  and  O_22
REMARK                            x       y       z     vdW  Elec       q    Type
REMARK                         _______ _______ _______ _____ _____    ______ ____
ROOT
ATOM      1  C   UNK A   0      -5.937   4.690 130.899  0.00  0.00    +0.000 A 
ATOM      2  C   UNK A   0      -6.093   5.913 131.558  0.00  0.00    +0.000 A 
ATOM      3  C   UNK A   0      -7.321   6.562 131.542  0.00  0.00    +0.000 A 
ATOM      4  C   UNK A   0      -8.412   5.956 130.908  0.00  0.00    +0.000 A 
ATOM      5  C   UNK A   0      -8.244   4.750 130.224  0.00  0.00    +0.000 A 
ATOM      6  C   UNK A   0      -7.009   4.125 130.225  0.00  0.00    +0.000 A 
ENDROOT
BRANCH   4   7
ATOM      7  C   UNK A   0      -9.737   6.599 131.050  0.00  0.00    +0.000 C 
ATOM      8  O   UNK A   0     -10.256   6.654 132.158  0.00  0.00    +0.000 OA
ATOM      9  N   GLU A   1     -10.306   7.132 129.909  0.00  0.00    +0.000 N 
ATOM     10  H   GLU A   1      -9.856   6.930 129.042  0.00  0.00    +0.000 HD
BRANCH   9  11
ATOM     11  CA  GLU A   1     -11.515   7.961 129.939  0.00  0.00    +0.000 C 
BRANCH  11  12
ATOM     12  C   GLU A   1     -12.839   7.193 130.194  0.00  0.00    +0.000 C 
ATOM     13  OXT GLU A   1     -13.528   6.751 129.281  0.00  0.00    +0.000 OA
BRANCH  12  14
ATOM     14  O   GLU A   1     -13.192   6.961 131.475  0.00  0.00    +0.000 OA
ATOM     15  H   GLU A   1     -14.108   6.731 131.680  0.00  0.00    +0.000 HD
ENDBRANCH  12  14
ENDBRANCH  11  12
BRANCH  11  16
ATOM     16  CB  GLU A   1     -11.710   8.741 128.613  0.00  0.00    +0.000 C 
BRANCH  16  17
ATOM     17  CG  GLU A   1     -10.748   8.348 127.495  0.00  0.00    +0.000 C 
BRANCH  17  18
ATOM     18  CD  GLU A   1     -11.275   7.647 126.276  0.00  0.00    +0.000 C 
ATOM     19  OE2 GLU A   1     -10.944   7.984 125.146  0.00  0.00    +0.000 OA
BRANCH  18  20
ATOM     20  OE1 GLU A   1     -12.071   6.587 126.491  0.00  0.00    +0.000 OA
ATOM     21  HE1 GLU A   1     -12.261   6.033 125.716  0.00  0.00    +0.000 HD
ENDBRANCH  18  20
ENDBRANCH  17  18
ENDBRANCH  16  17
ENDBRANCH  11  16
ENDBRANCH   9  11
ENDBRANCH   4   7
BRANCH   1  22
ATOM     22  N   UNK A   0      -4.726   4.071 130.941  0.00  0.00    +0.000 N 
ATOM     23  H   UNK A   0      -4.346   3.773 130.051  0.00  0.00    +0.000 HD
BRANCH  22  24
ATOM     24  C   UNK A   0      -3.825   4.044 132.079  0.00  0.00    +0.000 C 
BRANCH  24  27
ATOM     25  C   UNK A   0      -6.062   1.355 132.414  0.00  0.00    +0.000 C 
ATOM     26  N   UNK A   0      -5.492   2.461 133.171  0.00  0.00    +0.000 N 
ATOM     27  C   UNK A   0      -4.047   2.784 132.978  0.00  0.00    +0.000 C 
ATOM     28  C   UNK A   0      -3.457   3.019 134.396  0.00  0.00    +0.000 C 
ATOM     29  N   UNK A   0      -4.208   4.067 135.107  0.00  0.00    +0.000 N 
ATOM     30  C   UNK A   0      -5.595   4.146 134.937  0.00  0.00    +0.000 A 
ATOM     31  C   UNK A   0      -6.229   3.286 134.081  0.00  0.00    +0.000 A 
ATOM     32  C   UNK A   0      -7.745   3.450 133.939  0.00  0.00    +0.000 A 
ATOM     33  O   UNK A   0      -8.363   2.778 133.108  0.00  0.00    +0.000 OA
ATOM     34  N   UNK A   0      -8.388   4.388 134.709  0.00  0.00    +0.000 NA
ATOM     35  C   UNK A   0      -7.679   5.158 135.466  0.00  0.00    +0.000 A 
ATOM     36  N   UNK A   0      -8.294   6.105 136.202  0.00  0.00    +0.000 N 
ATOM     37  N   UNK A   0      -6.333   5.099 135.583  0.00  0.00    +0.000 N 
ATOM     38  H   UNK A   0      -3.726   4.938 135.295  0.00  0.00    +0.000 HD
ATOM     39  H   UNK A   0      -9.308   6.094 136.185  0.00  0.00    +0.000 HD
ATOM     40  H   UNK A   0      -7.844   6.656 136.914  0.00  0.00    +0.000 HD
ATOM     41  H   UNK A   0      -5.836   5.716 136.202  0.00  0.00    +0.000 HD
ENDBRANCH  24  27
ENDBRANCH  22  24
ENDBRANCH   1  22
TORSDOF 11
ENDMDL
MODEL 2
REMARK VINA RESULT:      -7.5      2.304      4.071
REMARK  Name = Levomefolic acid
REMARK  12 active torsions:
REMARK  status: ('A' for Active; 'I' for Inactive)
REMARK    1  A    between atoms: C_1  and  N_2
REMARK    2  A    between atoms: C_3  and  C_4
REMARK    3  A    between atoms: C_4  and  N_5
REMARK    4  A    between atoms: N_5  and  C_6
REMARK    5  A    between atoms: C_9  and  C_12
REMARK    6  A    between atoms: N_14  and  CA_15
REMARK    7  A    between atoms: CA_15  and  CB_16
REMARK    8  A    between atoms: CA_15  and  C_21
REMARK    9  A    between atoms: CB_16  and  CG_17
REMARK   10  A    between atoms: CG_17  and  CD_18
REMARK   11  A    between atoms: CD_18  and  OE1_19
REMARK   12  A    between atoms: C_21  and  O_22
REMARK                            x       y       z     vdW  Elec       q    Type
REMARK                         _______ _______ _______ _____ _____    ______ ____
ROOT
ATOM      1  C   UNK A   0      -5.923   6.270 132.506  0.00  0.00    +0.000 A 
ATOM      2  C   UNK A   0      -6.315   6.855 131.298  0.00  0.00    +0.000 A 
ATOM      3  C   UNK A   0      -7.655   6.872 130.933  0.00  0.00    +0.000 A 
ATOM      4  C   UNK A   0      -8.613   6.348 131.809  0.00  0.00    +0.000 A 
ATOM      5  C   UNK A   0      -8.215   5.736 133.000  0.00  0.00    +0.000 A 
ATOM      6  C   UNK A   0      -6.874   5.702 133.340  0.00  0.00    +0.000 A 
ENDROOT
BRANCH   4   7
ATOM      7  C   UNK A   0     -10.039   6.528 131.459  0.00  0.00    +0.000 C 
ATOM      8  O   UNK A   0     -10.895   6.277 132.298  0.00  0.00    +0.000 OA
ATOM      9  N   GLU A   1     -10.324   7.005 130.193  0.00  0.00    +0.000 N 
ATOM     10  H   GLU A   1      -9.563   7.066 129.550  0.00  0.00    +0.000 HD
BRANCH   9  11
ATOM     11  CA  GLU A   1     -11.671   7.412 129.783  0.00  0.00    +0.000 C 
BRANCH  11  12
ATOM     12  C   GLU A   1     -12.579   6.266 129.264  0.00  0.00    +0.000 C 
ATOM     13  OXT GLU A   1     -12.365   5.088 129.527  0.00  0.00    +0.000 OA
BRANCH  12  14
ATOM     14  O   GLU A   1     -13.673   6.606 128.550  0.00  0.00    +0.000 OA
ATOM     15  H   GLU A   1     -13.645   6.553 127.585  0.00  0.00    +0.000 HD
ENDBRANCH  12  14
ENDBRANCH  11  12
BRANCH  11  16
ATOM     16  CB  GLU A   1     -11.633   8.482 128.661  0.00  0.00    +0.000 C 
BRANCH  16  17
ATOM     17  CG  GLU A   1     -10.546   8.266 127.611  0.00  0.00    +0.000 C 
BRANCH  17  18
ATOM     18  CD  GLU A   1     -10.662   7.119 126.649  0.00  0.00    +0.000 C 
ATOM     19  OE2 GLU A   1      -9.718   6.375 126.417  0.00  0.00    +0.000 OA
BRANCH  18  20
ATOM     20  OE1 GLU A   1     -11.874   6.910 126.110  0.00  0.00    +0.000 OA
ATOM     21  HE1 GLU A   1     -12.474   6.342 126.622  0.00  0.00    +0.000 HD
ENDBRANCH  18  20
ENDBRANCH  17  18
ENDBRANCH  16  17
ENDBRANCH  11  16
ENDBRANCH   9  11
ENDBRANCH   4   7
BRANCH   1  22
ATOM     22  N   UNK A   0      -4.605   6.279 132.843  0.00  0.00    +0.000 N 
ATOM     23  H   UNK A   0      -4.119   7.160 132.727  0.00  0.00    +0.000 HD
BRANCH  22  24
ATOM     24  C   UNK A   0      -3.913   5.245 133.592  0.00  0.00    +0.000 C 
BRANCH  24  27
ATOM     25  C   UNK A   0      -1.409   6.484 131.461  0.00  0.00    +0.000 C 
ATOM     26  N   UNK A   0      -2.407   5.428 131.548  0.00  0.00    +0.000 N 
ATOM     27  C   UNK A   0      -2.618   4.756 132.865  0.00  0.00    +0.000 C 
ATOM     28  C   UNK A   0      -2.704   3.233 132.572  0.00  0.00    +0.000 C 
ATOM     29  N   UNK A   0      -3.760   2.949 131.587  0.00  0.00    +0.000 N 
ATOM     30  C   UNK A   0      -3.969   3.847 130.534  0.00  0.00    +0.000 A 
ATOM     31  C   UNK A   0      -3.228   4.995 130.457  0.00  0.00    +0.000 A 
ATOM     32  C   UNK A   0      -3.531   5.932 129.284  0.00  0.00    +0.000 A 
ATOM     33  O   UNK A   0      -2.973   7.031 129.212  0.00  0.00    +0.000 OA
ATOM     34  N   UNK A   0      -4.466   5.551 128.352  0.00  0.00    +0.000 NA
ATOM     35  C   UNK A   0      -5.118   4.453 128.543  0.00  0.00    +0.000 A 
ATOM     36  N   UNK A   0      -6.061   4.084 127.654  0.00  0.00    +0.000 N 
ATOM     37  N   UNK A   0      -4.936   3.620 129.593  0.00  0.00    +0.000 N 
ATOM     38  H   UNK A   0      -4.572   2.436 131.911  0.00  0.00    +0.000 HD
ATOM     39  H   UNK A   0      -6.138   4.659 126.822  0.00  0.00    +0.000 HD
ATOM     40  H   UNK A   0      -6.522   3.189 127.649  0.00  0.00    +0.000 HD
ATOM     41  H   UNK A   0      -5.464   2.768 129.680  0.00  0.00    +0.000 HD
ENDBRANCH  24  27
ENDBRANCH  22  24
ENDBRANCH   1  22
TORSDOF 11
ENDMDL
MODEL 3
REMARK VINA RESULT:      -7.4      4.462      6.608
REMARK  Name = Levomefolic acid
REMARK  12 active torsions:
REMARK  status: ('A' for Active; 'I' for Inactive)
REMARK    1  A    between atoms: C_1  and  N_2
REMARK    2  A    between atoms: C_3  and  C_4
REMARK    3  A    between atoms: C_4  and  N_5
REMARK    4  A    between atoms: N_5  and  C_6
REMARK    5  A    between atoms: C_9  and  C_12
REMARK    6  A    between atoms: N_14  and  CA_15
REMARK    7  A    between atoms: CA_15  and  CB_16
REMARK    8  A    between atoms: CA_15  and  C_21
REMARK    9  A    between atoms: CB_16  and  CG_17
REMARK   10  A    between atoms: CG_17  and  CD_18
REMARK   11  A    between atoms: CD_18  and  OE1_19
REMARK   12  A    between atoms: C_21  and  O_22
REMARK                            x       y       z     vdW  Elec       q    Type
REMARK                         _______ _______ _______ _____ _____    ______ ____
ROOT
ATOM      1  C   UNK A   0      -6.956   1.847 129.276  0.00  0.00    +0.000 A 
ATOM      2  C   UNK A   0      -8.167   1.445 129.847  0.00  0.00    +0.000 A 
ATOM      3  C   UNK A   0      -9.148   2.384 130.136  0.00  0.00    +0.000 A 
ATOM      4  C   UNK A   0      -8.936   3.726 129.801  0.00  0.00    +0.000 A 
ATOM      5  C   UNK A   0      -7.713   4.129 129.259  0.00  0.00    +0.000 A 
ATOM      6  C   UNK A   0      -6.733   3.187 129.000  0.00  0.00    +0.000 A 
ENDROOT
BRANCH   4   7
ATOM      7  C   UNK A   0     -10.064   4.667 129.976  0.00  0.00    +0.000 C 
ATOM      8  O   UNK A   0     -11.201   4.223 130.069  0.00  0.00    +0.000 OA
ATOM      9  N   GLU A   1      -9.758   6.013 130.053  0.00  0.00    +0.000 N 
ATOM     10  H   GLU A   1      -8.817   6.276 129.848  0.00  0.00    +0.000 HD
BRANCH   9  11
ATOM     11  CA  GLU A   1     -10.747   7.032 130.416  0.00  0.00    +0.000 C 
BRANCH  11  12
ATOM     12  C   GLU A   1     -11.672   6.663 131.606  0.00  0.00    +0.000 C 
ATOM     13  OXT GLU A   1     -12.877   6.885 131.595  0.00  0.00    +0.000 OA
BRANCH  12  14
ATOM     14  O   GLU A   1     -11.117   6.018 132.654  0.00  0.00    +0.000 OA
ATOM     15  H   GLU A   1     -11.270   6.349 133.549  0.00  0.00    +0.000 HD
ENDBRANCH  12  14
ENDBRANCH  11  12
BRANCH  11  16
ATOM     16  CB  GLU A   1     -11.681   7.378 129.227  0.00  0.00    +0.000 C 
BRANCH  16  17
ATOM     17  CG  GLU A   1     -11.018   8.177 128.108  0.00  0.00    +0.000 C 
BRANCH  17  18
ATOM     18  CD  GLU A   1     -10.534   7.467 126.876  0.00  0.00    +0.000 C 
ATOM     19  OE2 GLU A   1      -9.888   6.430 126.942  0.00  0.00    +0.000 OA
BRANCH  18  20
ATOM     20  OE1 GLU A   1     -10.907   7.992 125.698  0.00  0.00    +0.000 OA
ATOM     21  HE1 GLU A   1     -10.405   7.694 124.921  0.00  0.00    +0.000 HD
ENDBRANCH  18  20
ENDBRANCH  17  18
ENDBRANCH  16  17
ENDBRANCH  11  16
ENDBRANCH   9  11
ENDBRANCH   4   7
BRANCH   1  22
ATOM     22  N   UNK A   0      -6.017   0.903 128.993  0.00  0.00    +0.000 N 
ATOM     23  H   UNK A   0      -5.207   0.883 129.600  0.00  0.00    +0.000 HD
BRANCH  22  24
ATOM     24  C   UNK A   0      -6.191  -0.226 128.098  0.00  0.00    +0.000 C 
BRANCH  24  27
ATOM     25  C   UNK A   0      -4.790   2.344 126.154  0.00  0.00    +0.000 C 
ATOM     26  N   UNK A   0      -5.749   1.251 126.073  0.00  0.00    +0.000 N 
ATOM     27  C   UNK A   0      -5.418  -0.037 126.752  0.00  0.00    +0.000 C 
ATOM     28  C   UNK A   0      -5.786  -1.167 125.751  0.00  0.00    +0.000 C 
ATOM     29  N   UNK A   0      -7.195  -1.061 125.339  0.00  0.00    +0.000 N 
ATOM     30  C   UNK A   0      -7.757   0.207 125.153  0.00  0.00    +0.000 A 
ATOM     31  C   UNK A   0      -7.012   1.329 125.401  0.00  0.00    +0.000 A 
ATOM     32  C   UNK A   0      -7.707   2.677 125.191  0.00  0.00    +0.000 A 
ATOM     33  O   UNK A   0      -7.128   3.724 125.494  0.00  0.00    +0.000 OA
ATOM     34  N   UNK A   0      -8.995   2.695 124.712  0.00  0.00    +0.000 NA
ATOM     35  C   UNK A   0      -9.604   1.570 124.535  0.00  0.00    +0.000 A 
ATOM     36  N   UNK A   0     -10.878   1.574 124.097  0.00  0.00    +0.000 N 
ATOM     37  N   UNK A   0      -9.061   0.353 124.764  0.00  0.00    +0.000 N 
ATOM     38  H   UNK A   0      -7.826  -1.794 125.644  0.00  0.00    +0.000 HD
ATOM     39  H   UNK A   0     -11.259   2.478 123.839  0.00  0.00    +0.000 HD
ATOM     40  H   UNK A   0     -11.384   0.753 123.806  0.00  0.00    +0.000 HD
ATOM     41  H   UNK A   0      -9.580  -0.491 124.593  0.00  0.00    +0.000 HD
ENDBRANCH  24  27
ENDBRANCH  22  24
ENDBRANCH   1  22
TORSDOF 11
ENDMDL
MODEL 4
REMARK VINA RESULT:      -7.3      2.060      3.554
REMARK  Name = Levomefolic acid
REMARK  12 active torsions:
REMARK  status: ('A' for Active; 'I' for Inactive)
REMARK    1  A    between atoms: C_1  and  N_2
REMARK    2  A    between atoms: C_3  and  C_4
REMARK    3  A    between atoms: C_4  and  N_5
REMARK    4  A    between atoms: N_5  and  C_6
REMARK    5  A    between atoms: C_9  and  C_12
REMARK    6  A    between atoms: N_14  and  CA_15
REMARK    7  A    between atoms: CA_15  and  CB_16
REMARK    8  A    between atoms: CA_15  and  C_21
REMARK    9  A    between atoms: CB_16  and  CG_17
REMARK   10  A    between atoms: CG_17  and  CD_18
REMARK   11  A    between atoms: CD_18  and  OE1_19
REMARK   12  A    between atoms: C_21  and  O_22
REMARK                            x       y       z     vdW  Elec       q    Type
REMARK                         _______ _______ _______ _____ _____    ______ ____
ROOT
ATOM      1  C   UNK A   0      -6.282   5.466 132.286  0.00  0.00    +0.000 A 
ATOM      2  C   UNK A   0      -6.507   6.579 131.472  0.00  0.00    +0.000 A 
ATOM      3  C   UNK A   0      -7.802   6.939 131.125  0.00  0.00    +0.000 A 
ATOM      4  C   UNK A   0      -8.881   6.213 131.642  0.00  0.00    +0.000 A 
ATOM      5  C   UNK A   0      -8.652   5.082 132.430  0.00  0.00    +0.000 A 
ATOM      6  C   UNK A   0      -7.355   4.717 132.747  0.00  0.00    +0.000 A 
ENDROOT
BRANCH   4   7
ATOM      7  C   UNK A   0     -10.245   6.723 131.382  0.00  0.00    +0.000 C 
ATOM      8  O   UNK A   0     -11.091   6.638 132.263  0.00  0.00    +0.000 OA
ATOM      9  N   GLU A   1     -10.479   7.300 130.148  0.00  0.00    +0.000 N 
ATOM     10  H   GLU A   1      -9.758   7.213 129.464  0.00  0.00    +0.000 HD
BRANCH   9  11
ATOM     11  CA  GLU A   1     -11.718   8.016 129.829  0.00  0.00    +0.000 C 
BRANCH  11  12
ATOM     12  C   GLU A   1     -13.010   7.157 129.878  0.00  0.00    +0.000 C 
ATOM     13  OXT GLU A   1     -13.444   6.566 128.895  0.00  0.00    +0.000 OA
BRANCH  12  14
ATOM     14  O   GLU A   1     -13.626   7.018 131.070  0.00  0.00    +0.000 OA
ATOM     15  H   GLU A   1     -13.498   7.692 131.751  0.00  0.00    +0.000 HD
ENDBRANCH  12  14
ENDBRANCH  11  12
BRANCH  11  16
ATOM     16  CB  GLU A   1     -11.668   8.651 128.415  0.00  0.00    +0.000 C 
BRANCH  16  17
ATOM     17  CG  GLU A   1     -10.495   8.194 127.553  0.00  0.00    +0.000 C 
BRANCH  17  18
ATOM     18  CD  GLU A   1     -10.664   7.019 126.632  0.00  0.00    +0.000 C 
ATOM     19  OE2 GLU A   1      -9.719   6.311 126.310  0.00  0.00    +0.000 OA
BRANCH  18  20
ATOM     20  OE1 GLU A   1     -11.918   6.743 126.238  0.00  0.00    +0.000 OA
ATOM     21  HE1 GLU A   1     -12.186   7.114 125.380  0.00  0.00    +0.000 HD
ENDBRANCH  18  20
ENDBRANCH  17  18
ENDBRANCH  16  17
ENDBRANCH  11  16
ENDBRANCH   9  11
ENDBRANCH   4   7
BRANCH   1  22
ATOM     22  N   UNK A   0      -5.003   5.142 132.619  0.00  0.00    +0.000 N 
ATOM     23  H   UNK A   0      -4.375   5.919 132.787  0.00  0.00    +0.000 HD
BRANCH  22  24
ATOM     24  C   UNK A   0      -4.535   3.826 133.015  0.00  0.00    +0.000 C 
BRANCH  24  27
ATOM     25  C   UNK A   0      -3.044   4.626 129.935  0.00  0.00    +0.000 C 
ATOM     26  N   UNK A   0      -3.943   3.656 130.545  0.00  0.00    +0.000 N 
ATOM     27  C   UNK A   0      -3.633   3.166 131.922  0.00  0.00    +0.000 C 
ATOM     28  C   UNK A   0      -3.847   1.628 131.898  0.00  0.00    +0.000 C 
ATOM     29  N   UNK A   0      -5.208   1.297 131.445  0.00  0.00    +0.000 N 
ATOM     30  C   UNK A   0      -5.799   2.070 130.440  0.00  0.00    +0.000 A 
ATOM     31  C   UNK A   0      -5.131   3.149 129.925  0.00  0.00    +0.000 A 
ATOM     32  C   UNK A   0      -5.855   3.953 128.842  0.00  0.00    +0.000 A 
ATOM     33  O   UNK A   0      -5.354   4.995 128.408  0.00  0.00    +0.000 OA
ATOM     34  N   UNK A   0      -7.084   3.524 128.403  0.00  0.00    +0.000 NA
ATOM     35  C   UNK A   0      -7.625   2.503 128.981  0.00  0.00    +0.000 A 
ATOM     36  N   UNK A   0      -8.845   2.092 128.583  0.00  0.00    +0.000 N 
ATOM     37  N   UNK A   0      -7.059   1.795 129.984  0.00  0.00    +0.000 N 
ATOM     38  H   UNK A   0      -5.836   0.882 132.124  0.00  0.00    +0.000 HD
ATOM     39  H   UNK A   0      -9.233   2.564 127.774  0.00  0.00    +0.000 HD
ATOM     40  H   UNK A   0      -9.283   1.235 128.880  0.00  0.00    +0.000 HD
ATOM     41  H   UNK A   0      -7.522   0.997 130.386  0.00  0.00    +0.000 HD
ENDBRANCH  24  27
ENDBRANCH  22  24
ENDBRANCH   1  22
TORSDOF 11
ENDMDL
MODEL 5
REMARK VINA RESULT:      -7.3      5.183      6.897
REMARK  Name = Levomefolic acid
REMARK  12 active torsions:
REMARK  status: ('A' for Active; 'I' for Inactive)
REMARK    1  A    between atoms: C_1  and  N_2
REMARK    2  A    between atoms: C_3  and  C_4
REMARK    3  A    between atoms: C_4  and  N_5
REMARK    4  A    between atoms: N_5  and  C_6
REMARK    5  A    between atoms: C_9  and  C_12
REMARK    6  A    between atoms: N_14  and  CA_15
REMARK    7  A    between atoms: CA_15  and  CB_16
REMARK    8  A    between atoms: CA_15  and  C_21
REMARK    9  A    between atoms: CB_16  and  CG_17
REMARK   10  A    between atoms: CG_17  and  CD_18
REMARK   11  A    between atoms: CD_18  and  OE1_19
REMARK   12  A    between atoms: C_21  and  O_22
REMARK                            x       y       z     vdW  Elec       q    Type
REMARK                         _______ _______ _______ _____ _____    ______ ____
ROOT
ATOM      1  C   UNK A   0      -7.818   1.660 129.404  0.00  0.00    +0.000 A 
ATOM      2  C   UNK A   0      -8.950   1.874 130.195  0.00  0.00    +0.000 A 
ATOM      3  C   UNK A   0      -9.475   3.152 130.331  0.00  0.00    +0.000 A 
ATOM      4  C   UNK A   0      -8.895   4.213 129.627  0.00  0.00    +0.000 A 
ATOM      5  C   UNK A   0      -7.744   4.002 128.863  0.00  0.00    +0.000 A 
ATOM      6  C   UNK A   0      -7.215   2.728 128.756  0.00  0.00    +0.000 A 
ENDROOT
BRANCH   4   7
ATOM      7  C   UNK A   0      -9.577   5.525 129.669  0.00  0.00    +0.000 C 
ATOM      8  O   UNK A   0      -8.936   6.539 129.422  0.00  0.00    +0.000 OA
ATOM      9  N   GLU A   1     -10.928   5.525 129.964  0.00  0.00    +0.000 N 
ATOM     10  H   GLU A   1     -11.326   4.661 130.264  0.00  0.00    +0.000 HD
BRANCH   9  11
ATOM     11  CA  GLU A   1     -11.764   6.724 129.851  0.00  0.00    +0.000 C 
BRANCH  11  12
ATOM     12  C   GLU A   1     -12.429   7.195 131.172  0.00  0.00    +0.000 C 
ATOM     13  OXT GLU A   1     -13.067   8.239 131.250  0.00  0.00    +0.000 OA
BRANCH  12  14
ATOM     14  O   GLU A   1     -12.340   6.380 132.244  0.00  0.00    +0.000 OA
ATOM     15  H   GLU A   1     -12.812   5.537 132.239  0.00  0.00    +0.000 HD
ENDBRANCH  12  14
ENDBRANCH  11  12
BRANCH  11  16
ATOM     16  CB  GLU A   1     -12.914   6.529 128.828  0.00  0.00    +0.000 C 
BRANCH  16  17
ATOM     17  CG  GLU A   1     -12.702   7.233 127.491  0.00  0.00    +0.000 C 
BRANCH  17  18
ATOM     18  CD  GLU A   1     -11.306   7.496 127.003  0.00  0.00    +0.000 C 
ATOM     19  OE2 GLU A   1     -10.709   6.693 126.298  0.00  0.00    +0.000 OA
BRANCH  18  20
ATOM     20  OE1 GLU A   1     -10.776   8.688 127.321  0.00  0.00    +0.000 OA
ATOM     21  HE1 GLU A   1     -10.002   8.961 126.800  0.00  0.00    +0.000 HD
ENDBRANCH  18  20
ENDBRANCH  17  18
ENDBRANCH  16  17
ENDBRANCH  11  16
ENDBRANCH   9  11
ENDBRANCH   4   7
BRANCH   1  22
ATOM     22  N   UNK A   0      -7.331   0.395 129.280  0.00  0.00    +0.000 N 
ATOM     23  H   UNK A   0      -6.419   0.308 128.849  0.00  0.00    +0.000 HD
BRANCH  22  24
ATOM     24  C   UNK A   0      -7.859  -0.786 129.938  0.00  0.00    +0.000 C 
BRANCH  24  27
ATOM     25  C   UNK A   0      -4.862  -1.678 128.334  0.00  0.00    +0.000 C 
ATOM     26  N   UNK A   0      -6.255  -2.089 128.452  0.00  0.00    +0.000 N 
ATOM     27  C   UNK A   0      -6.906  -2.017 129.794  0.00  0.00    +0.000 C 
ATOM     28  C   UNK A   0      -7.700  -3.341 129.967  0.00  0.00    +0.000 C 
ATOM     29  N   UNK A   0      -8.650  -3.529 128.859  0.00  0.00    +0.000 N 
ATOM     30  C   UNK A   0      -8.278  -3.136 127.568  0.00  0.00    +0.000 A 
ATOM     31  C   UNK A   0      -7.063  -2.540 127.358  0.00  0.00    +0.000 A 
ATOM     32  C   UNK A   0      -6.741  -2.124 125.921  0.00  0.00    +0.000 A 
ATOM     33  O   UNK A   0      -5.709  -1.490 125.678  0.00  0.00    +0.000 OA
ATOM     34  N   UNK A   0      -7.638  -2.420 124.924  0.00  0.00    +0.000 NA
ATOM     35  C   UNK A   0      -8.763  -2.967 125.247  0.00  0.00    +0.000 A 
ATOM     36  N   UNK A   0      -9.666  -3.233 124.284  0.00  0.00    +0.000 N 
ATOM     37  N   UNK A   0      -9.126  -3.298 126.508  0.00  0.00    +0.000 N 
ATOM     38  H   UNK A   0      -9.638  -3.479 129.079  0.00  0.00    +0.000 HD
ATOM     39  H   UNK A   0      -9.362  -3.068 123.330  0.00  0.00    +0.000 HD
ATOM     40  H   UNK A   0     -10.505  -3.773 124.421  0.00  0.00    +0.000 HD
ATOM     41  H   UNK A   0     -10.011  -3.737 126.697  0.00  0.00    +0.000 HD
ENDBRANCH  24  27
ENDBRANCH  22  24
ENDBRANCH   1  22
TORSDOF 11
ENDMDL
MODEL 6
REMARK VINA RESULT:      -7.3      2.930      4.957
REMARK  Name = Levomefolic acid
REMARK  12 active torsions:
REMARK  status: ('A' for Active; 'I' for Inactive)
REMARK    1  A    between atoms: C_1  and  N_2
REMARK    2  A    between atoms: C_3  and  C_4
REMARK    3  A    between atoms: C_4  and  N_5
REMARK    4  A    between atoms: N_5  and  C_6
REMARK    5  A    between atoms: C_9  and  C_12
REMARK    6  A    between atoms: N_14  and  CA_15
REMARK    7  A    between atoms: CA_15  and  CB_16
REMARK    8  A    between atoms: CA_15  and  C_21
REMARK    9  A    between atoms: CB_16  and  CG_17
REMARK   10  A    between atoms: CG_17  and  CD_18
REMARK   11  A    between atoms: CD_18  and  OE1_19
REMARK   12  A    between atoms: C_21  and  O_22
REMARK                            x       y       z     vdW  Elec       q    Type
REMARK                         _______ _______ _______ _____ _____    ______ ____
ROOT
ATOM      1  C   UNK A   0      -6.259   4.503 130.725  0.00  0.00    +0.000 A 
ATOM      2  C   UNK A   0      -6.359   5.671 131.486  0.00  0.00    +0.000 A 
ATOM      3  C   UNK A   0      -7.538   6.404 131.489  0.00  0.00    +0.000 A 
ATOM      4  C   UNK A   0      -8.642   5.934 130.768  0.00  0.00    +0.000 A 
ATOM      5  C   UNK A   0      -8.530   4.784 129.983  0.00  0.00    +0.000 A 
ATOM      6  C   UNK A   0      -7.340   4.077 129.968  0.00  0.00    +0.000 A 
ENDROOT
BRANCH   4   7
ATOM      7  C   UNK A   0      -9.926   6.653 130.925  0.00  0.00    +0.000 C 
ATOM      8  O   UNK A   0     -10.381   6.821 132.049  0.00  0.00    +0.000 OA
ATOM      9  N   GLU A   1     -10.530   7.125 129.775  0.00  0.00    +0.000 N 
ATOM     10  H   GLU A   1     -10.138   6.833 128.905  0.00  0.00    +0.000 HD
BRANCH   9  11
ATOM     11  CA  GLU A   1     -11.695   8.015 129.798  0.00  0.00    +0.000 C 
BRANCH  11  12
ATOM     12  C   GLU A   1     -13.051   7.322 130.095  0.00  0.00    +0.000 C 
ATOM     13  OXT GLU A   1     -13.764   6.866 129.208  0.00  0.00    +0.000 OA
BRANCH  12  14
ATOM     14  O   GLU A   1     -13.410   7.173 131.387  0.00  0.00    +0.000 OA
ATOM     15  H   GLU A   1     -14.335   6.996 131.605  0.00  0.00    +0.000 HD
ENDBRANCH  12  14
ENDBRANCH  11  12
BRANCH  11  16
ATOM     16  CB  GLU A   1     -11.872   8.767 128.454  0.00  0.00    +0.000 C 
BRANCH  16  17
ATOM     17  CG  GLU A   1     -10.872   8.377 127.369  0.00  0.00    +0.000 C 
BRANCH  17  18
ATOM     18  CD  GLU A   1     -11.071   7.104 126.598  0.00  0.00    +0.000 C 
ATOM     19  OE2 GLU A   1     -10.126   6.433 126.206  0.00  0.00    +0.000 OA
BRANCH  18  20
ATOM     20  OE1 GLU A   1     -12.341   6.702 126.425  0.00  0.00    +0.000 OA
ATOM     21  HE1 GLU A   1     -12.808   7.086 125.664  0.00  0.00    +0.000 HD
ENDBRANCH  18  20
ENDBRANCH  17  18
ENDBRANCH  16  17
ENDBRANCH  11  16
ENDBRANCH   9  11
ENDBRANCH   4   7
BRANCH   1  22
ATOM     22  N   UNK A   0      -5.095   3.800 130.750  0.00  0.00    +0.000 N 
ATOM     23  H   UNK A   0      -4.325   4.228 131.250  0.00  0.00    +0.000 HD
BRANCH  22  24
ATOM     24  C   UNK A   0      -4.936   2.407 130.374  0.00  0.00    +0.000 C 
BRANCH  24  27
ATOM     25  C   UNK A   0      -2.671   4.312 128.480  0.00  0.00    +0.000 C 
ATOM     26  N   UNK A   0      -3.808   3.414 128.327  0.00  0.00    +0.000 N 
ATOM     27  C   UNK A   0      -3.896   2.221 129.221  0.00  0.00    +0.000 C 
ATOM     28  C   UNK A   0      -4.298   1.024 128.316  0.00  0.00    +0.000 C 
ATOM     29  N   UNK A   0      -5.545   1.313 127.590  0.00  0.00    +0.000 N 
ATOM     30  C   UNK A   0      -5.777   2.612 127.124  0.00  0.00    +0.000 A 
ATOM     31  C   UNK A   0      -4.872   3.605 127.387  0.00  0.00    +0.000 A 
ATOM     32  C   UNK A   0      -5.210   5.001 126.857  0.00  0.00    +0.000 A 
ATOM     33  O   UNK A   0      -4.489   5.962 127.146  0.00  0.00    +0.000 OA
ATOM     34  N   UNK A   0      -6.347   5.171 126.105  0.00  0.00    +0.000 NA
ATOM     35  C   UNK A   0      -7.136   4.163 125.941  0.00  0.00    +0.000 A 
ATOM     36  N   UNK A   0      -8.272   4.324 125.234  0.00  0.00    +0.000 N 
ATOM     37  N   UNK A   0      -6.920   2.924 126.439  0.00  0.00    +0.000 N 
ATOM     38  H   UNK A   0      -6.364   0.769 127.838  0.00  0.00    +0.000 HD
ATOM     39  H   UNK A   0      -8.393   5.225 124.785  0.00  0.00    +0.000 HD
ATOM     40  H   UNK A   0      -8.876   3.572 124.945  0.00  0.00    +0.000 HD
ATOM     41  H   UNK A   0      -7.564   2.172 126.266  0.00  0.00    +0.000 HD
ENDBRANCH  24  27
ENDBRANCH  22  24
ENDBRANCH   1  22
TORSDOF 11
ENDMDL
MODEL 7
REMARK VINA RESULT:      -7.3      4.810      5.772
REMARK  Name = Levomefolic acid
REMARK  12 active torsions:
REMARK  status: ('A' for Active; 'I' for Inactive)
REMARK    1  A    between atoms: C_1  and  N_2
REMARK    2  A    between atoms: C_3  and  C_4
REMARK    3  A    between atoms: C_4  and  N_5
REMARK    4  A    between atoms: N_5  and  C_6
REMARK    5  A    between atoms: C_9  and  C_12
REMARK    6  A    between atoms: N_14  and  CA_15
REMARK    7  A    between atoms: CA_15  and  CB_16
REMARK    8  A    between atoms: CA_15  and  C_21
REMARK    9  A    between atoms: CB_16  and  CG_17
REMARK   10  A    between atoms: CG_17  and  CD_18
REMARK   11  A    between atoms: CD_18  and  OE1_19
REMARK   12  A    between atoms: C_21  and  O_22
REMARK                            x       y       z     vdW  Elec       q    Type
REMARK                         _______ _______ _______ _____ _____    ______ ____
ROOT
ATOM      1  C   UNK A   0      -5.011   6.547 131.919  0.00  0.00    +0.000 A 
ATOM      2  C   UNK A   0      -5.612   7.218 130.849  0.00  0.00    +0.000 A 
ATOM      3  C   UNK A   0      -6.988   7.162 130.676  0.00  0.00    +0.000 A 
ATOM      4  C   UNK A   0      -7.773   6.477 131.610  0.00  0.00    +0.000 A 
ATOM      5  C   UNK A   0      -7.168   5.781 132.659  0.00  0.00    +0.000 A 
ATOM      6  C   UNK A   0      -5.792   5.822 132.806  0.00  0.00    +0.000 A 
ENDROOT
BRANCH   4   7
ATOM      7  C   UNK A   0      -9.244   6.576 131.481  0.00  0.00    +0.000 C 
ATOM      8  O   UNK A   0      -9.942   6.404 132.473  0.00  0.00    +0.000 OA
ATOM      9  N   GLU A   1      -9.749   6.889 130.233  0.00  0.00    +0.000 N 
ATOM     10  H   GLU A   1      -9.104   6.893 129.472  0.00  0.00    +0.000 HD
BRANCH   9  11
ATOM     11  CA  GLU A   1     -11.162   7.208 130.006  0.00  0.00    +0.000 C 
BRANCH  11  12
ATOM     12  C   GLU A   1     -12.051   6.009 129.582  0.00  0.00    +0.000 C 
ATOM     13  OXT GLU A   1     -11.772   4.850 129.869  0.00  0.00    +0.000 OA
BRANCH  12  14
ATOM     14  O   GLU A   1     -13.199   6.280 128.926  0.00  0.00    +0.000 OA
ATOM     15  H   GLU A   1     -13.670   5.565 128.479  0.00  0.00    +0.000 HD
ENDBRANCH  12  14
ENDBRANCH  11  12
BRANCH  11  16
ATOM     16  CB  GLU A   1     -11.339   8.293 128.913  0.00  0.00    +0.000 C 
BRANCH  16  17
ATOM     17  CG  GLU A   1     -10.386   8.165 127.728  0.00  0.00    +0.000 C 
BRANCH  17  18
ATOM     18  CD  GLU A   1     -10.576   7.050 126.740  0.00  0.00    +0.000 C 
ATOM     19  OE2 GLU A   1      -9.672   6.272 126.464  0.00  0.00    +0.000 OA
BRANCH  18  20
ATOM     20  OE1 GLU A   1     -11.810   6.907 126.229  0.00  0.00    +0.000 OA
ATOM     21  HE1 GLU A   1     -11.970   7.341 125.375  0.00  0.00    +0.000 HD
ENDBRANCH  18  20
ENDBRANCH  17  18
ENDBRANCH  16  17
ENDBRANCH  11  16
ENDBRANCH   9  11
ENDBRANCH   4   7
BRANCH   1  22
ATOM     22  N   UNK A   0      -3.662   6.627 132.071  0.00  0.00    +0.000 N 
ATOM     23  H   UNK A   0      -3.118   5.900 131.622  0.00  0.00    +0.000 HD
BRANCH  22  24
ATOM     24  C   UNK A   0      -2.930   7.778 132.569  0.00  0.00    +0.000 C 
BRANCH  24  27
ATOM     25  C   UNK A   0      -3.131   8.807 135.923  0.00  0.00    +0.000 C 
ATOM     26  N   UNK A   0      -2.184   8.700 134.821  0.00  0.00    +0.000 N 
ATOM     27  C   UNK A   0      -2.246   7.492 133.946  0.00  0.00    +0.000 C 
ATOM     28  C   UNK A   0      -0.779   7.027 133.736  0.00  0.00    +0.000 C 
ATOM     29  N   UNK A   0       0.040   8.117 133.182  0.00  0.00    +0.000 N 
ATOM     30  C   UNK A   0      -0.191   9.429 133.610  0.00  0.00    +0.000 A 
ATOM     31  C   UNK A   0      -1.202   9.691 134.497  0.00  0.00    +0.000 A 
ATOM     32  C   UNK A   0      -1.400  11.154 134.900  0.00  0.00    +0.000 A 
ATOM     33  O   UNK A   0      -2.355  11.474 135.614  0.00  0.00    +0.000 OA
ATOM     34  N   UNK A   0      -0.533  12.103 134.415  0.00  0.00    +0.000 NA
ATOM     35  C   UNK A   0       0.371  11.738 133.566  0.00  0.00    +0.000 A 
ATOM     36  N   UNK A   0       1.206  12.664 133.057  0.00  0.00    +0.000 N 
ATOM     37  N   UNK A   0       0.550  10.472 133.127  0.00  0.00    +0.000 N 
ATOM     38  H   UNK A   0       0.385   8.005 132.235  0.00  0.00    +0.000 HD
ATOM     39  H   UNK A   0       1.133  13.596 133.449  0.00  0.00    +0.000 HD
ATOM     40  H   UNK A   0       2.017  12.454 132.498  0.00  0.00    +0.000 HD
ATOM     41  H   UNK A   0       1.283  10.244 132.476  0.00  0.00    +0.000 HD
ENDBRANCH  24  27
ENDBRANCH  22  24
ENDBRANCH   1  22
TORSDOF 11
ENDMDL
MODEL 8
REMARK VINA RESULT:      -7.2      3.978      5.947
REMARK  Name = Levomefolic acid
REMARK  12 active torsions:
REMARK  status: ('A' for Active; 'I' for Inactive)
REMARK    1  A    between atoms: C_1  and  N_2
REMARK    2  A    between atoms: C_3  and  C_4
REMARK    3  A    between atoms: C_4  and  N_5
REMARK    4  A    between atoms: N_5  and  C_6
REMARK    5  A    between atoms: C_9  and  C_12
REMARK    6  A    between atoms: N_14  and  CA_15
REMARK    7  A    between atoms: CA_15  and  CB_16
REMARK    8  A    between atoms: CA_15  and  C_21
REMARK    9  A    between atoms: CB_16  and  CG_17
REMARK   10  A    between atoms: CG_17  and  CD_18
REMARK   11  A    between atoms: CD_18  and  OE1_19
REMARK   12  A    between atoms: C_21  and  O_22
REMARK                            x       y       z     vdW  Elec       q    Type
REMARK                         _______ _______ _______ _____ _____    ______ ____
ROOT
ATOM      1  C   UNK A   0      -7.961   2.264 130.804  0.00  0.00    +0.000 A 
ATOM      2  C   UNK A   0      -9.350   2.396 130.888  0.00  0.00    +0.000 A 
ATOM      3  C   UNK A   0      -9.948   3.631 130.673  0.00  0.00    +0.000 A 
ATOM      4  C   UNK A   0      -9.154   4.728 130.318  0.00  0.00    +0.000 A 
ATOM      5  C   UNK A   0      -7.764   4.600 130.267  0.00  0.00    +0.000 A 
ATOM      6  C   UNK A   0      -7.178   3.369 130.509  0.00  0.00    +0.000 A 
ENDROOT
BRANCH   4   7
ATOM      7  C   UNK A   0      -9.840   5.983 129.941  0.00  0.00    +0.000 C 
ATOM      8  O   UNK A   0      -9.193   6.881 129.417  0.00  0.00    +0.000 OA
ATOM      9  N   GLU A   1     -11.200   6.056 130.180  0.00  0.00    +0.000 N 
ATOM     10  H   GLU A   1     -11.606   5.319 130.715  0.00  0.00    +0.000 HD
BRANCH   9  11
ATOM     11  CA  GLU A   1     -12.034   7.155 129.683  0.00  0.00    +0.000 C 
BRANCH  11  12
ATOM     12  C   GLU A   1     -12.896   7.869 130.757  0.00  0.00    +0.000 C 
ATOM     13  OXT GLU A   1     -13.364   7.278 131.724  0.00  0.00    +0.000 OA
BRANCH  12  14
ATOM     14  O   GLU A   1     -13.072   9.202 130.636  0.00  0.00    +0.000 OA
ATOM     15  H   GLU A   1     -13.886   9.538 130.238  0.00  0.00    +0.000 HD
ENDBRANCH  12  14
ENDBRANCH  11  12
BRANCH  11  16
ATOM     16  CB  GLU A   1     -13.015   6.678 128.581  0.00  0.00    +0.000 C 
BRANCH  16  17
ATOM     17  CG  GLU A   1     -12.642   7.110 127.165  0.00  0.00    +0.000 C 
BRANCH  17  18
ATOM     18  CD  GLU A   1     -11.214   7.449 126.845  0.00  0.00    +0.000 C 
ATOM     19  OE2 GLU A   1     -10.490   6.675 126.232  0.00  0.00    +0.000 OA
BRANCH  18  20
ATOM     20  OE1 GLU A   1     -10.795   8.673 127.204  0.00  0.00    +0.000 OA
ATOM     21  HE1 GLU A   1     -10.839   9.357 126.515  0.00  0.00    +0.000 HD
ENDBRANCH  18  20
ENDBRANCH  17  18
ENDBRANCH  16  17
ENDBRANCH  11  16
ENDBRANCH   9  11
ENDBRANCH   4   7
BRANCH   1  22
ATOM     22  N   UNK A   0      -7.404   1.040 131.009  0.00  0.00    +0.000 N 
ATOM     23  H   UNK A   0      -7.292   0.755 131.975  0.00  0.00    +0.000 HD
BRANCH  22  24
ATOM     24  C   UNK A   0      -7.213   0.014 130.000  0.00  0.00    +0.000 C 
BRANCH  24  27
ATOM     25  C   UNK A   0      -7.156  -2.139 132.777  0.00  0.00    +0.000 C 
ATOM     26  N   UNK A   0      -6.864  -2.116 131.350  0.00  0.00    +0.000 N 
ATOM     27  C   UNK A   0      -7.790  -1.369 130.447  0.00  0.00    +0.000 C 
ATOM     28  C   UNK A   0      -8.029  -2.282 129.213  0.00  0.00    +0.000 C 
ATOM     29  N   UNK A   0      -6.752  -2.648 128.579  0.00  0.00    +0.000 N 
ATOM     30  C   UNK A   0      -5.636  -2.893 129.386  0.00  0.00    +0.000 A 
ATOM     31  C   UNK A   0      -5.728  -2.743 130.744  0.00  0.00    +0.000 A 
ATOM     32  C   UNK A   0      -4.456  -3.013 131.553  0.00  0.00    +0.000 A 
ATOM     33  O   UNK A   0      -4.441  -2.798 132.769  0.00  0.00    +0.000 OA
ATOM     34  N   UNK A   0      -3.329  -3.445 130.898  0.00  0.00    +0.000 NA
ATOM     35  C   UNK A   0      -3.356  -3.528 129.609  0.00  0.00    +0.000 A 
ATOM     36  N   UNK A   0      -2.247  -3.918 128.951  0.00  0.00    +0.000 N 
ATOM     37  N   UNK A   0      -4.431  -3.242 128.840  0.00  0.00    +0.000 N 
ATOM     38  H   UNK A   0      -6.568  -2.275 127.654  0.00  0.00    +0.000 HD
ATOM     39  H   UNK A   0      -1.469  -4.218 129.528  0.00  0.00    +0.000 HD
ATOM     40  H   UNK A   0      -2.214  -4.138 127.969  0.00  0.00    +0.000 HD
ATOM     41  H   UNK A   0      -4.398  -3.340 127.840  0.00  0.00    +0.000 HD
ENDBRANCH  24  27
ENDBRANCH  22  24
ENDBRANCH   1  22
TORSDOF 11
ENDMDL
MODEL 9
REMARK VINA RESULT:      -7.2      4.518      6.366
REMARK  Name = Levomefolic acid
REMARK  12 active torsions:
REMARK  status: ('A' for Active; 'I' for Inactive)
REMARK    1  A    between atoms: C_1  and  N_2
REMARK    2  A    between atoms: C_3  and  C_4
REMARK    3  A    between atoms: C_4  and  N_5
REMARK    4  A    between atoms: N_5  and  C_6
REMARK    5  A    between atoms: C_9  and  C_12
REMARK    6  A    between atoms: N_14  and  CA_15
REMARK    7  A    between atoms: CA_15  and  CB_16
REMARK    8  A    between atoms: CA_15  and  C_21
REMARK    9  A    between atoms: CB_16  and  CG_17
REMARK   10  A    between atoms: CG_17  and  CD_18
REMARK   11  A    between atoms: CD_18  and  OE1_19
REMARK   12  A    between atoms: C_21  and  O_22
REMARK                            x       y       z     vdW  Elec       q    Type
REMARK                         _______ _______ _______ _____ _____    ______ ____
ROOT
ATOM      1  C   UNK A   0      -8.014   2.217 130.870  0.00  0.00    +0.000 A 
ATOM      2  C   UNK A   0      -9.389   2.303 130.632  0.00  0.00    +0.000 A 
ATOM      3  C   UNK A   0     -10.004   3.545 130.534  0.00  0.00    +0.000 A 
ATOM      4  C   UNK A   0      -9.227   4.706 130.620  0.00  0.00    +0.000 A 
ATOM      5  C   UNK A   0      -7.859   4.617 130.890  0.00  0.00    +0.000 A 
ATOM      6  C   UNK A   0      -7.263   3.374 131.012  0.00  0.00    +0.000 A 
ENDROOT
BRANCH   4   7
ATOM      7  C   UNK A   0      -9.890   6.001 130.351  0.00  0.00    +0.000 C 
ATOM      8  O   UNK A   0      -9.270   7.039 130.544  0.00  0.00    +0.000 OA
ATOM      9  N   GLU A   1     -11.182   5.960 129.863  0.00  0.00    +0.000 N 
ATOM     10  H   GLU A   1     -11.635   5.070 129.853  0.00  0.00    +0.000 HD
BRANCH   9  11
ATOM     11  CA  GLU A   1     -11.884   7.150 129.373  0.00  0.00    +0.000 C 
BRANCH  11  12
ATOM     12  C   GLU A   1     -12.738   7.897 130.431  0.00  0.00    +0.000 C 
ATOM     13  OXT GLU A   1     -13.192   7.338 131.423  0.00  0.00    +0.000 OA
BRANCH  12  14
ATOM     14  O   GLU A   1     -12.923   9.224 130.264  0.00  0.00    +0.000 OA
ATOM     15  H   GLU A   1     -12.574   9.656 129.474  0.00  0.00    +0.000 HD
ENDBRANCH  12  14
ENDBRANCH  11  12
BRANCH  11  16
ATOM     16  CB  GLU A   1     -12.839   6.813 128.198  0.00  0.00    +0.000 C 
BRANCH  16  17
ATOM     17  CG  GLU A   1     -12.485   7.488 126.876  0.00  0.00    +0.000 C 
BRANCH  17  18
ATOM     18  CD  GLU A   1     -11.110   7.314 126.298  0.00  0.00    +0.000 C 
ATOM     19  OE2 GLU A   1     -10.386   6.383 126.627  0.00  0.00    +0.000 OA
BRANCH  18  20
ATOM     20  OE1 GLU A   1     -10.744   8.191 125.349  0.00  0.00    +0.000 OA
ATOM     21  HE1 GLU A   1      -9.846   8.082 124.993  0.00  0.00    +0.000 HD
ENDBRANCH  18  20
ENDBRANCH  17  18
ENDBRANCH  16  17
ENDBRANCH  11  16
ENDBRANCH   9  11
ENDBRANCH   4   7
BRANCH   1  22
ATOM     22  N   UNK A   0      -7.437   0.988 130.950  0.00  0.00    +0.000 N 
ATOM     23  H   UNK A   0      -7.239   0.647 131.883  0.00  0.00    +0.000 HD
BRANCH  22  24
ATOM     24  C   UNK A   0      -7.333   0.026 129.868  0.00  0.00    +0.000 C 
BRANCH  24  27
ATOM     25  C   UNK A   0      -7.487   2.373 127.258  0.00  0.00    +0.000 C 
ATOM     26  N   UNK A   0      -7.262   0.955 127.499  0.00  0.00    +0.000 N 
ATOM     27  C   UNK A   0      -6.453   0.556 128.689  0.00  0.00    +0.000 C 
ATOM     28  C   UNK A   0      -5.475  -0.548 128.204  0.00  0.00    +0.000 C 
ATOM     29  N   UNK A   0      -6.210  -1.665 127.588  0.00  0.00    +0.000 N 
ATOM     30  C   UNK A   0      -7.345  -1.390 126.817  0.00  0.00    +0.000 A 
ATOM     31  C   UNK A   0      -7.785  -0.100 126.683  0.00  0.00    +0.000 A 
ATOM     32  C   UNK A   0      -9.044   0.113 125.837  0.00  0.00    +0.000 A 
ATOM     33  O   UNK A   0      -9.553   1.235 125.760  0.00  0.00    +0.000 OA
ATOM     34  N   UNK A   0      -9.619  -0.968 125.215  0.00  0.00    +0.000 NA
ATOM     35  C   UNK A   0      -9.126  -2.142 125.434  0.00  0.00    +0.000 A 
ATOM     36  N   UNK A   0      -9.701  -3.215 124.857  0.00  0.00    +0.000 N 
ATOM     37  N   UNK A   0      -8.056  -2.395 126.221  0.00  0.00    +0.000 N 
ATOM     38  H   UNK A   0      -6.200  -2.554 128.075  0.00  0.00    +0.000 HD
ATOM     39  H   UNK A   0     -10.447  -3.021 124.197  0.00  0.00    +0.000 HD
ATOM     40  H   UNK A   0      -9.311  -4.143 124.862  0.00  0.00    +0.000 HD
ATOM     41  H   UNK A   0      -7.706  -3.331 126.341  0.00  0.00    +0.000 HD
ENDBRANCH  24  27
ENDBRANCH  22  24
ENDBRANCH   1  22
TORSDOF 11
ENDMDL
