MODEL 1
REMARK VINA RESULT:      -6.2      0.000      0.000
REMARK  Name = Levodopa
REMARK  7 active torsions:
REMARK  status: ('A' for Active; 'I' for Inactive)
REMARK    1  A    between atoms: N_1  and  CA_2
REMARK    2  A    between atoms: CA_2  and  C_3
REMARK    3  A    between atoms: CA_2  and  C_12
REMARK    4  A    between atoms: C_3  and  C_4
REMARK    5  A    between atoms: C_6  and  O_7
REMARK    6  A    between atoms: C_8  and  O_9
REMARK    7  A    between atoms: C_12  and  O_13
REMARK                            x       y       z     vdW  Elec       q    Type
REMARK                         _______ _______ _______ _____ _____    ______ ____
ROOT
ATOM      1  C   UNL     1     -11.134   7.718 129.616  0.00  0.00    +0.000 A 
ATOM      2  C   UNL     1      -9.824   7.284 129.896  0.00  0.00    +0.000 A 
ATOM      3  C   UNL     1      -9.570   6.554 131.063  0.00  0.00    +0.000 A 
ATOM      4  C   UNL     1     -10.607   6.249 131.943  0.00  0.00    +0.000 A 
ATOM      5  C   UNL     1     -11.903   6.649 131.668  0.00  0.00    +0.000 A 
ATOM      6  C   UNL     1     -12.163   7.387 130.517  0.00  0.00    +0.000 A 
ENDROOT
BRANCH   3   7
ATOM      7  O   UNL     1      -8.316   6.117 131.395  0.00  0.00    +0.000 OA
ATOM      8  H   UNL     1      -8.223   5.189 131.123  0.00  0.00    +0.000 HD
ENDBRANCH   3   7
BRANCH   4   9
ATOM      9  O   UNL     1     -10.379   5.566 133.102  0.00  0.00    +0.000 OA
ATOM     10  H   UNL     1     -10.811   4.698 132.981  0.00  0.00    +0.000 HD
ENDBRANCH   4   9
BRANCH   1  11
ATOM     11  C   UNL     1     -11.449   8.584 128.407  0.00  0.00    +0.000 C 
BRANCH  11  12
ATOM     12  CA  UNL     1     -11.957   7.798 127.178  0.00  0.00    +0.000 C 
BRANCH  12  13
ATOM     13  N   UNL     1     -12.702   6.569 127.588  0.00  0.00    +0.000 NA
ATOM     14  H1  UNL     1     -11.990   5.828 127.673  0.00  0.00    +0.000 HD
ATOM     15  H2  UNL     1     -13.263   6.243 126.797  0.00  0.00    +0.000 HD
ENDBRANCH  12  13
BRANCH  12  16
ATOM     16  C   UNL     1     -10.783   7.431 126.262  0.00  0.00    +0.000 C 
ATOM     17  OXT UNL     1      -9.971   6.545 126.510  0.00  0.00    +0.000 OA
BRANCH  16  18
ATOM     18  O   UNL     1     -10.717   8.185 125.138  0.00  0.00    +0.000 OA
ATOM     19  H   UNL     1      -9.803   8.542 125.057  0.00  0.00    +0.000 HD
ENDBRANCH  16  18
ENDBRANCH  12  16
ENDBRANCH  11  12
ENDBRANCH   1  11
TORSDOF 7
ENDMDL
MODEL 2
REMARK VINA RESULT:      -6.0      8.217     10.188
REMARK  Name = Levodopa
REMARK  7 active torsions:
REMARK  status: ('A' for Active; 'I' for Inactive)
REMARK    1  A    between atoms: N_1  and  CA_2
REMARK    2  A    between atoms: CA_2  and  C_3
REMARK    3  A    between atoms: CA_2  and  C_12
REMARK    4  A    between atoms: C_3  and  C_4
REMARK    5  A    between atoms: C_6  and  O_7
REMARK    6  A    between atoms: C_8  and  O_9
REMARK    7  A    between atoms: C_12  and  O_13
REMARK                            x       y       z     vdW  Elec       q    Type
REMARK                         _______ _______ _______ _____ _____    ______ ____
ROOT
ATOM      1  C   UNL     1      -6.520   3.562 122.134  0.00  0.00    +0.000 A 
ATOM      2  C   UNL     1      -5.385   4.388 122.251  0.00  0.00    +0.000 A 
ATOM      3  C   UNL     1      -4.942   5.118 121.142  0.00  0.00    +0.000 A 
ATOM      4  C   UNL     1      -5.622   5.037 119.929  0.00  0.00    +0.000 A 
ATOM      5  C   UNL     1      -6.752   4.249 119.805  0.00  0.00    +0.000 A 
ATOM      6  C   UNL     1      -7.192   3.507 120.899  0.00  0.00    +0.000 A 
ENDROOT
BRANCH   3   7
ATOM      7  O   UNL     1      -3.839   5.927 121.192  0.00  0.00    +0.000 OA
ATOM      8  H   UNL     1      -3.183   5.528 121.789  0.00  0.00    +0.000 HD
ENDBRANCH   3   7
BRANCH   4   9
ATOM      9  O   UNL     1      -5.191   5.716 118.825  0.00  0.00    +0.000 OA
ATOM     10  H   UNL     1      -4.530   6.355 119.155  0.00  0.00    +0.000 HD
ENDBRANCH   4   9
BRANCH   1  11
ATOM     11  C   UNL     1      -6.993   2.684 123.281  0.00  0.00    +0.000 C 
BRANCH  11  12
ATOM     12  CA  UNL     1      -8.525   2.669 123.480  0.00  0.00    +0.000 C 
BRANCH  12  13
ATOM     13  N   UNL     1      -8.917   3.372 124.739  0.00  0.00    +0.000 NA
ATOM     14  H1  UNL     1      -8.079   3.892 125.039  0.00  0.00    +0.000 HD
ATOM     15  H2  UNL     1      -9.022   2.679 125.485  0.00  0.00    +0.000 HD
ENDBRANCH  12  13
BRANCH  12  16
ATOM     16  C   UNL     1      -9.043   1.225 123.490  0.00  0.00    +0.000 C 
ATOM     17  OXT UNL     1      -8.348   0.246 123.243  0.00  0.00    +0.000 OA
BRANCH  16  18
ATOM     18  O   UNL     1     -10.359   1.126 123.799  0.00  0.00    +0.000 OA
ATOM     19  H   UNL     1     -10.881   1.246 122.972  0.00  0.00    +0.000 HD
ENDBRANCH  16  18
ENDBRANCH  12  16
ENDBRANCH  11  12
ENDBRANCH   1  11
TORSDOF 7
ENDMDL
MODEL 3
REMARK VINA RESULT:      -5.9      1.364      2.301
REMARK  Name = Levodopa
REMARK  7 active torsions:
REMARK  status: ('A' for Active; 'I' for Inactive)
REMARK    1  A    between atoms: N_1  and  CA_2
REMARK    2  A    between atoms: CA_2  and  C_3
REMARK    3  A    between atoms: CA_2  and  C_12
REMARK    4  A    between atoms: C_3  and  C_4
REMARK    5  A    between atoms: C_6  and  O_7
REMARK    6  A    between atoms: C_8  and  O_9
REMARK    7  A    between atoms: C_12  and  O_13
REMARK                            x       y       z     vdW  Elec       q    Type
REMARK                         _______ _______ _______ _____ _____    ______ ____
ROOT
ATOM      1  C   UNL     1     -10.639   6.621 130.149  0.00  0.00    +0.000 A 
ATOM      2  C   UNL     1     -10.933   5.842 131.286  0.00  0.00    +0.000 A 
ATOM      3  C   UNL     1      -9.938   5.609 132.242  0.00  0.00    +0.000 A 
ATOM      4  C   UNL     1      -8.664   6.147 132.079  0.00  0.00    +0.000 A 
ATOM      5  C   UNL     1      -8.367   6.933 130.980  0.00  0.00    +0.000 A 
ATOM      6  C   UNL     1      -9.347   7.160 130.016  0.00  0.00    +0.000 A 
ENDROOT
BRANCH   3   7
ATOM      7  O   UNL     1     -10.162   4.849 133.360  0.00  0.00    +0.000 OA
ATOM      8  H   UNL     1     -10.546   3.998 133.090  0.00  0.00    +0.000 HD
ENDBRANCH   3   7
BRANCH   4   9
ATOM      9  O   UNL     1      -7.669   5.908 132.983  0.00  0.00    +0.000 OA
ATOM     10  H   UNL     1      -8.080   5.366 133.684  0.00  0.00    +0.000 HD
ENDBRANCH   4   9
BRANCH   1  11
ATOM     11  C   UNL     1     -11.656   6.835 129.041  0.00  0.00    +0.000 C 
BRANCH  11  12
ATOM     12  CA  UNL     1     -11.322   8.005 128.089  0.00  0.00    +0.000 C 
BRANCH  12  13
ATOM     13  N   UNL     1     -12.222   9.174 128.328  0.00  0.00    +0.000 NA
ATOM     14  H1  UNL     1     -12.993   9.073 127.651  0.00  0.00    +0.000 HD
ATOM     15  H2  UNL     1     -11.754  10.023 128.000  0.00  0.00    +0.000 HD
ENDBRANCH  12  13
BRANCH  12  16
ATOM     16  C   UNL     1     -11.419   7.544 126.629  0.00  0.00    +0.000 C 
ATOM     17  OXT UNL     1     -10.770   8.034 125.711  0.00  0.00    +0.000 OA
BRANCH  16  18
ATOM     18  O   UNL     1     -12.301   6.533 126.439  0.00  0.00    +0.000 OA
ATOM     19  H   UNL     1     -12.760   6.680 125.581  0.00  0.00    +0.000 HD
ENDBRANCH  16  18
ENDBRANCH  12  16
ENDBRANCH  11  12
ENDBRANCH   1  11
TORSDOF 7
ENDMDL
MODEL 4
REMARK VINA RESULT:      -5.9      7.999     10.305
REMARK  Name = Levodopa
REMARK  7 active torsions:
REMARK  status: ('A' for Active; 'I' for Inactive)
REMARK    1  A    between atoms: N_1  and  CA_2
REMARK    2  A    between atoms: CA_2  and  C_3
REMARK    3  A    between atoms: CA_2  and  C_12
REMARK    4  A    between atoms: C_3  and  C_4
REMARK    5  A    between atoms: C_6  and  O_7
REMARK    6  A    between atoms: C_8  and  O_9
REMARK    7  A    between atoms: C_12  and  O_13
REMARK                            x       y       z     vdW  Elec       q    Type
REMARK                         _______ _______ _______ _____ _____    ______ ____
ROOT
ATOM      1  C   UNL     1      -6.831   3.261 122.040  0.00  0.00    +0.000 A 
ATOM      2  C   UNL     1      -7.667   3.489 120.929  0.00  0.00    +0.000 A 
ATOM      3  C   UNL     1      -7.200   4.258 119.857  0.00  0.00    +0.000 A 
ATOM      4  C   UNL     1      -5.913   4.792 119.881  0.00  0.00    +0.000 A 
ATOM      5  C   UNL     1      -5.073   4.556 120.955  0.00  0.00    +0.000 A 
ATOM      6  C   UNL     1      -5.534   3.804 122.033  0.00  0.00    +0.000 A 
ENDROOT
BRANCH   3   7
ATOM      7  O   UNL     1      -7.970   4.525 118.757  0.00  0.00    +0.000 OA
ATOM      8  H   UNL     1      -7.905   5.472 118.549  0.00  0.00    +0.000 HD
ENDBRANCH   3   7
BRANCH   4   9
ATOM      9  O   UNL     1      -5.447   5.571 118.862  0.00  0.00    +0.000 OA
ATOM     10  H   UNL     1      -5.577   6.492 119.158  0.00  0.00    +0.000 HD
ENDBRANCH   4   9
BRANCH   1  11
ATOM     11  C   UNL     1      -7.318   2.504 123.266  0.00  0.00    +0.000 C 
BRANCH  11  12
ATOM     12  CA  UNL     1      -8.814   2.713 123.588  0.00  0.00    +0.000 C 
BRANCH  12  13
ATOM     13  N   UNL     1      -8.995   3.457 124.872  0.00  0.00    +0.000 NA
ATOM     14  H1  UNL     1      -9.790   4.093 124.715  0.00  0.00    +0.000 HD
ATOM     15  H2  UNL     1      -8.214   4.107 124.989  0.00  0.00    +0.000 HD
ENDBRANCH  12  13
BRANCH  12  16
ATOM     16  C   UNL     1      -9.537   1.362 123.646  0.00  0.00    +0.000 C 
ATOM     17  OXT UNL     1      -9.002   0.287 123.395  0.00  0.00    +0.000 OA
BRANCH  16  18
ATOM     18  O   UNL     1     -10.841   1.461 124.003  0.00  0.00    +0.000 OA
ATOM     19  H   UNL     1     -10.891   1.501 124.986  0.00  0.00    +0.000 HD
ENDBRANCH  16  18
ENDBRANCH  12  16
ENDBRANCH  11  12
ENDBRANCH   1  11
TORSDOF 7
ENDMDL
MODEL 5
REMARK VINA RESULT:      -5.8      7.402      9.218
REMARK  Name = Levodopa
REMARK  7 active torsions:
REMARK  status: ('A' for Active; 'I' for Inactive)
REMARK    1  A    between atoms: N_1  and  CA_2
REMARK    2  A    between atoms: CA_2  and  C_3
REMARK    3  A    between atoms: CA_2  and  C_12
REMARK    4  A    between atoms: C_3  and  C_4
REMARK    5  A    between atoms: C_6  and  O_7
REMARK    6  A    between atoms: C_8  and  O_9
REMARK    7  A    between atoms: C_12  and  O_13
REMARK                            x       y       z     vdW  Elec       q    Type
REMARK                         _______ _______ _______ _____ _____    ______ ____
ROOT
ATOM      1  C   UNL     1      -6.791   3.475 122.064  0.00  0.00    +0.000 A 
ATOM      2  C   UNL     1      -8.074   2.931 122.267  0.00  0.00    +0.000 A 
ATOM      3  C   UNL     1      -8.582   2.821 123.567  0.00  0.00    +0.000 A 
ATOM      4  C   UNL     1      -7.829   3.254 124.656  0.00  0.00    +0.000 A 
ATOM      5  C   UNL     1      -6.577   3.812 124.470  0.00  0.00    +0.000 A 
ATOM      6  C   UNL     1      -6.057   3.913 123.181  0.00  0.00    +0.000 A 
ENDROOT
BRANCH   3   7
ATOM      7  O   UNL     1      -9.816   2.289 123.827  0.00  0.00    +0.000 OA
ATOM      8  H   UNL     1     -10.081   2.535 124.729  0.00  0.00    +0.000 HD
ENDBRANCH   3   7
BRANCH   4   9
ATOM      9  O   UNL     1      -8.291   3.129 125.935  0.00  0.00    +0.000 OA
ATOM     10  H   UNL     1      -9.102   3.673 125.973  0.00  0.00    +0.000 HD
ENDBRANCH   4   9
BRANCH   1  11
ATOM     11  C   UNL     1      -6.158   3.540 120.683  0.00  0.00    +0.000 C 
BRANCH  11  12
ATOM     12  CA  UNL     1      -6.716   4.663 119.781  0.00  0.00    +0.000 C 
BRANCH  12  13
ATOM     13  N   UNL     1      -7.377   4.103 118.562  0.00  0.00    +0.000 NA
ATOM     14  H1  UNL     1      -7.410   4.878 117.884  0.00  0.00    +0.000 HD
ATOM     15  H2  UNL     1      -8.367   3.948 118.766  0.00  0.00    +0.000 HD
ENDBRANCH  12  13
BRANCH  12  16
ATOM     16  C   UNL     1      -5.594   5.630 119.384  0.00  0.00    +0.000 C 
ATOM     17  OXT UNL     1      -4.782   6.100 120.174  0.00  0.00    +0.000 OA
BRANCH  16  18
ATOM     18  O   UNL     1      -5.579   5.926 118.061  0.00  0.00    +0.000 OA
ATOM     19  H   UNL     1      -5.517   5.083 117.556  0.00  0.00    +0.000 HD
ENDBRANCH  16  18
ENDBRANCH  12  16
ENDBRANCH  11  12
ENDBRANCH   1  11
TORSDOF 7
ENDMDL
MODEL 6
REMARK VINA RESULT:      -5.7      2.449      4.951
REMARK  Name = Levodopa
REMARK  7 active torsions:
REMARK  status: ('A' for Active; 'I' for Inactive)
REMARK    1  A    between atoms: N_1  and  CA_2
REMARK    2  A    between atoms: CA_2  and  C_3
REMARK    3  A    between atoms: CA_2  and  C_12
REMARK    4  A    between atoms: C_3  and  C_4
REMARK    5  A    between atoms: C_6  and  O_7
REMARK    6  A    between atoms: C_8  and  O_9
REMARK    7  A    between atoms: C_12  and  O_13
REMARK                            x       y       z     vdW  Elec       q    Type
REMARK                         _______ _______ _______ _____ _____    ______ ____
ROOT
ATOM      1  C   UNL     1     -10.973   6.745 130.806  0.00  0.00    +0.000 A 
ATOM      2  C   UNL     1     -10.358   7.303 129.668  0.00  0.00    +0.000 A 
ATOM      3  C   UNL     1     -11.033   8.277 128.923  0.00  0.00    +0.000 A 
ATOM      4  C   UNL     1     -12.304   8.700 129.305  0.00  0.00    +0.000 A 
ATOM      5  C   UNL     1     -12.910   8.178 130.434  0.00  0.00    +0.000 A 
ATOM      6  C   UNL     1     -12.252   7.198 131.173  0.00  0.00    +0.000 A 
ENDROOT
BRANCH   3   7
ATOM      7  O   UNL     1     -10.491   8.846 127.802  0.00  0.00    +0.000 OA
ATOM      8  H   UNL     1      -9.641   9.256 128.036  0.00  0.00    +0.000 HD
ENDBRANCH   3   7
BRANCH   4   9
ATOM      9  O   UNL     1     -12.994   9.626 128.578  0.00  0.00    +0.000 OA
ATOM     10  H   UNL     1     -13.817   9.179 128.301  0.00  0.00    +0.000 HD
ENDBRANCH   4   9
BRANCH   1  11
ATOM     11  C   UNL     1     -10.320   5.625 131.600  0.00  0.00    +0.000 C 
BRANCH  11  12
ATOM     12  CA  UNL     1     -10.089   4.326 130.796  0.00  0.00    +0.000 C 
BRANCH  12  13
ATOM     13  N   UNL     1     -11.380   3.752 130.309  0.00  0.00    +0.000 NA
ATOM     14  H1  UNL     1     -11.513   2.879 130.841  0.00  0.00    +0.000 HD
ATOM     15  H2  UNL     1     -11.249   3.408 129.354  0.00  0.00    +0.000 HD
ENDBRANCH  12  13
BRANCH  12  16
ATOM     16  C   UNL     1      -9.336   3.300 131.652  0.00  0.00    +0.000 C 
ATOM     17  OXT UNL     1      -8.114   3.195 131.679  0.00  0.00    +0.000 OA
BRANCH  16  18
ATOM     18  O   UNL     1     -10.153   2.505 132.386  0.00  0.00    +0.000 OA
ATOM     19  H   UNL     1      -9.693   2.283 133.228  0.00  0.00    +0.000 HD
ENDBRANCH  16  18
ENDBRANCH  12  16
ENDBRANCH  11  12
ENDBRANCH   1  11
TORSDOF 7
ENDMDL
MODEL 7
REMARK VINA RESULT:      -5.7      2.407      4.999
REMARK  Name = Levodopa
REMARK  7 active torsions:
REMARK  status: ('A' for Active; 'I' for Inactive)
REMARK    1  A    between atoms: N_1  and  CA_2
REMARK    2  A    between atoms: CA_2  and  C_3
REMARK    3  A    between atoms: CA_2  and  C_12
REMARK    4  A    between atoms: C_3  and  C_4
REMARK    5  A    between atoms: C_6  and  O_7
REMARK    6  A    between atoms: C_8  and  O_9
REMARK    7  A    between atoms: C_12  and  O_13
REMARK                            x       y       z     vdW  Elec       q    Type
REMARK                         _______ _______ _______ _____ _____    ______ ____
ROOT
ATOM      1  C   UNL     1     -11.569   6.274 130.064  0.00  0.00    +0.000 A 
ATOM      2  C   UNL     1     -10.999   6.882 128.928  0.00  0.00    +0.000 A 
ATOM      3  C   UNL     1     -11.410   8.165 128.549  0.00  0.00    +0.000 A 
ATOM      4  C   UNL     1     -12.374   8.844 129.291  0.00  0.00    +0.000 A 
ATOM      5  C   UNL     1     -12.926   8.269 130.422  0.00  0.00    +0.000 A 
ATOM      6  C   UNL     1     -12.533   6.987 130.800  0.00  0.00    +0.000 A 
ENDROOT
BRANCH   3   7
ATOM      7  O   UNL     1     -10.901   8.801 127.448  0.00  0.00    +0.000 OA
ATOM      8  H   UNL     1     -10.800   8.154 126.730  0.00  0.00    +0.000 HD
ENDBRANCH   3   7
BRANCH   4   9
ATOM      9  O   UNL     1     -12.813  10.083 128.923  0.00  0.00    +0.000 OA
ATOM     10  H   UNL     1     -12.622  10.153 127.967  0.00  0.00    +0.000 HD
ENDBRANCH   4   9
BRANCH   1  11
ATOM     11  C   UNL     1     -11.220   4.852 130.471  0.00  0.00    +0.000 C 
BRANCH  11  12
ATOM     12  CA  UNL     1      -9.766   4.670 130.960  0.00  0.00    +0.000 C 
BRANCH  12  13
ATOM     13  N   UNL     1      -9.433   3.226 131.152  0.00  0.00    +0.000 NA
ATOM     14  H1  UNL     1      -9.204   2.867 130.213  0.00  0.00    +0.000 HD
ATOM     15  H2  UNL     1     -10.292   2.717 131.376  0.00  0.00    +0.000 HD
ENDBRANCH  12  13
BRANCH  12  16
ATOM     16  C   UNL     1      -9.545   5.447 132.264  0.00  0.00    +0.000 C 
ATOM     17  OXT UNL     1      -8.881   6.475 132.346  0.00  0.00    +0.000 OA
BRANCH  16  18
ATOM     18  O   UNL     1     -10.158   4.888 133.336  0.00  0.00    +0.000 OA
ATOM     19  H   UNL     1      -9.466   4.612 133.979  0.00  0.00    +0.000 HD
ENDBRANCH  16  18
ENDBRANCH  12  16
ENDBRANCH  11  12
ENDBRANCH   1  11
TORSDOF 7
ENDMDL
MODEL 8
REMARK VINA RESULT:      -5.4      8.416      9.920
REMARK  Name = Levodopa
REMARK  7 active torsions:
REMARK  status: ('A' for Active; 'I' for Inactive)
REMARK    1  A    between atoms: N_1  and  CA_2
REMARK    2  A    between atoms: CA_2  and  C_3
REMARK    3  A    between atoms: CA_2  and  C_12
REMARK    4  A    between atoms: C_3  and  C_4
REMARK    5  A    between atoms: C_6  and  O_7
REMARK    6  A    between atoms: C_8  and  O_9
REMARK    7  A    between atoms: C_12  and  O_13
REMARK                            x       y       z     vdW  Elec       q    Type
REMARK                         _______ _______ _______ _____ _____    ______ ____
ROOT
ATOM      1  C   UNL     1      -7.552   0.005 123.576  0.00  0.00    +0.000 A 
ATOM      2  C   UNL     1      -8.758  -0.665 123.293  0.00  0.00    +0.000 A 
ATOM      3  C   UNL     1      -8.891  -2.020 123.618  0.00  0.00    +0.000 A 
ATOM      4  C   UNL     1      -7.841  -2.705 124.225  0.00  0.00    +0.000 A 
ATOM      5  C   UNL     1      -6.659  -2.053 124.532  0.00  0.00    +0.000 A 
ATOM      6  C   UNL     1      -6.512  -0.709 124.199  0.00  0.00    +0.000 A 
ENDROOT
BRANCH   3   7
ATOM      7  O   UNL     1     -10.033  -2.727 123.354  0.00  0.00    +0.000 OA
ATOM      8  H   UNL     1      -9.793  -3.564 122.923  0.00  0.00    +0.000 HD
ENDBRANCH   3   7
BRANCH   4   9
ATOM      9  O   UNL     1      -7.936  -4.033 124.524  0.00  0.00    +0.000 OA
ATOM     10  H   UNL     1      -7.370  -4.488 123.870  0.00  0.00    +0.000 HD
ENDBRANCH   4   9
BRANCH   1  11
ATOM     11  C   UNL     1      -7.325   1.452 123.169  0.00  0.00    +0.000 C 
BRANCH  11  12
ATOM     12  CA  UNL     1      -8.588   2.338 123.244  0.00  0.00    +0.000 C 
BRANCH  12  13
ATOM     13  N   UNL     1      -8.572   3.398 122.190  0.00  0.00    +0.000 NA
ATOM     14  H1  UNL     1      -7.722   3.224 121.635  0.00  0.00    +0.000 HD
ATOM     15  H2  UNL     1      -8.366   4.298 122.630  0.00  0.00    +0.000 HD
ENDBRANCH  12  13
BRANCH  12  16
ATOM     16  C   UNL     1      -8.708   2.971 124.636  0.00  0.00    +0.000 C 
ATOM     17  OXT UNL     1      -9.084   2.366 125.635  0.00  0.00    +0.000 OA
BRANCH  16  18
ATOM     18  O   UNL     1      -8.357   4.280 124.667  0.00  0.00    +0.000 OA
ATOM     19  H   UNL     1      -9.180   4.819 124.724  0.00  0.00    +0.000 HD
ENDBRANCH  16  18
ENDBRANCH  12  16
ENDBRANCH  11  12
ENDBRANCH   1  11
TORSDOF 7
ENDMDL
MODEL 9
REMARK VINA RESULT:      -5.4     10.306     10.516
REMARK  Name = Levodopa
REMARK  7 active torsions:
REMARK  status: ('A' for Active; 'I' for Inactive)
REMARK    1  A    between atoms: N_1  and  CA_2
REMARK    2  A    between atoms: CA_2  and  C_3
REMARK    3  A    between atoms: CA_2  and  C_12
REMARK    4  A    between atoms: C_3  and  C_4
REMARK    5  A    between atoms: C_6  and  O_7
REMARK    6  A    between atoms: C_8  and  O_9
REMARK    7  A    between atoms: C_12  and  O_13
REMARK                            x       y       z     vdW  Elec       q    Type
REMARK                         _______ _______ _______ _____ _____    ______ ____
ROOT
ATOM      1  C   UNL     1      -8.208  -2.874 127.119  0.00  0.00    +0.000 A 
ATOM      2  C   UNL     1      -6.942  -2.266 127.008  0.00  0.00    +0.000 A 
ATOM      3  C   UNL     1      -6.075  -2.267 128.106  0.00  0.00    +0.000 A 
ATOM      4  C   UNL     1      -6.455  -2.870 129.303  0.00  0.00    +0.000 A 
ATOM      5  C   UNL     1      -7.686  -3.491 129.419  0.00  0.00    +0.000 A 
ATOM      6  C   UNL     1      -8.561  -3.483 128.336  0.00  0.00    +0.000 A 
ENDROOT
BRANCH   3   7
ATOM      7  O   UNL     1      -4.838  -1.682 128.062  0.00  0.00    +0.000 OA
ATOM      8  H   UNL     1      -4.481  -1.767 127.162  0.00  0.00    +0.000 HD
ENDBRANCH   3   7
BRANCH   4   9
ATOM      9  O   UNL     1      -5.639  -2.856 130.398  0.00  0.00    +0.000 OA
ATOM     10  H   UNL     1      -4.781  -3.206 130.087  0.00  0.00    +0.000 HD
ENDBRANCH   4   9
BRANCH   1  11
ATOM     11  C   UNL     1      -9.220  -2.828 125.985  0.00  0.00    +0.000 C 
BRANCH  11  12
ATOM     12  CA  UNL     1      -8.851  -1.854 124.844  0.00  0.00    +0.000 C 
BRANCH  12  13
ATOM     13  N   UNL     1      -9.638  -0.587 124.935  0.00  0.00    +0.000 NA
ATOM     14  H1  UNL     1      -9.062   0.132 124.472  0.00  0.00    +0.000 HD
ATOM     15  H2  UNL     1      -9.642  -0.270 125.908  0.00  0.00    +0.000 HD
ENDBRANCH  12  13
BRANCH  12  16
ATOM     16  C   UNL     1      -9.073  -2.525 123.482  0.00  0.00    +0.000 C 
ATOM     17  OXT UNL     1      -8.390  -2.302 122.488  0.00  0.00    +0.000 OA
BRANCH  16  18
ATOM     18  O   UNL     1     -10.108  -3.400 123.474  0.00  0.00    +0.000 OA
ATOM     19  H   UNL     1      -9.749  -4.305 123.619  0.00  0.00    +0.000 HD
ENDBRANCH  16  18
ENDBRANCH  12  16
ENDBRANCH  11  12
ENDBRANCH   1  11
TORSDOF 7
ENDMDL
