MODEL 1
REMARK VINA RESULT:      -5.6      0.000      0.000
REMARK  Name = Levonordefrin
REMARK  7 active torsions:
REMARK  status: ('A' for Active; 'I' for Inactive)
REMARK    1  A    between atoms: C_1  and  C_2
REMARK    2  A    between atoms: C_2  and  N_3
REMARK    3  A    between atoms: C_2  and  C_4
REMARK    4  A    between atoms: C_4  and  O_5
REMARK    5  A    between atoms: C_4  and  C_6
REMARK    6  A    between atoms: C_8  and  O_9
REMARK    7  A    between atoms: C_10  and  O_11
REMARK                            x       y       z     vdW  Elec       q    Type
REMARK                         _______ _______ _______ _____ _____    ______ ____
ROOT
ATOM      1  C   UNL     1     -11.141   6.673 130.352  0.00  0.00    +0.000 A 
ATOM      2  C   UNL     1     -10.675   7.249 129.159  0.00  0.00    +0.000 A 
ATOM      3  C   UNL     1     -11.348   8.311 128.567  0.00  0.00    +0.000 A 
ATOM      4  C   UNL     1     -12.451   8.869 129.186  0.00  0.00    +0.000 A 
ATOM      5  C   UNL     1     -12.895   8.380 130.407  0.00  0.00    +0.000 A 
ATOM      6  C   UNL     1     -12.241   7.285 130.985  0.00  0.00    +0.000 A 
ENDROOT
BRANCH   3   7
ATOM      7  O   UNL     1     -10.941   8.820 127.364  0.00  0.00    +0.000 OA
ATOM      8  H   UNL     1     -11.070   8.139 126.683  0.00  0.00    +0.000 HD
ENDBRANCH   3   7
BRANCH   4   9
ATOM      9  O   UNL     1     -13.109   9.911 128.600  0.00  0.00    +0.000 OA
ATOM     10  H   UNL     1     -13.963   9.958 129.075  0.00  0.00    +0.000 HD
ENDBRANCH   4   9
BRANCH   1  11
ATOM     11  C   UNL     1     -10.481   5.460 130.996  0.00  0.00    +0.000 C 
BRANCH  11  13
ATOM     12  C   UNL     1      -8.101   6.501 131.411  0.00  0.00    +0.000 C 
ATOM     13  C   UNL     1      -9.274   5.680 131.975  0.00  0.00    +0.000 C 
BRANCH  13  14
ATOM     14  N   UNL     1      -9.687   6.192 133.291  0.00  0.00    +0.000 NA
ATOM     15  H   UNL     1     -10.040   5.452 133.890  0.00  0.00    +0.000 HD
ATOM     16  H   UNL     1     -10.432   6.877 133.184  0.00  0.00    +0.000 HD
ENDBRANCH  13  14
ENDBRANCH  11  13
BRANCH  11  17
ATOM     17  O   UNL     1     -10.059   4.549 129.967  0.00  0.00    +0.000 OA
ATOM     18  H   UNL     1      -9.094   4.614 129.895  0.00  0.00    +0.000 HD
ENDBRANCH  11  17
ENDBRANCH   1  11
TORSDOF 6
ENDMDL
MODEL 2
REMARK VINA RESULT:      -5.5      2.932      4.759
REMARK  Name = Levonordefrin
REMARK  7 active torsions:
REMARK  status: ('A' for Active; 'I' for Inactive)
REMARK    1  A    between atoms: C_1  and  C_2
REMARK    2  A    between atoms: C_2  and  N_3
REMARK    3  A    between atoms: C_2  and  C_4
REMARK    4  A    between atoms: C_4  and  O_5
REMARK    5  A    between atoms: C_4  and  C_6
REMARK    6  A    between atoms: C_8  and  O_9
REMARK    7  A    between atoms: C_10  and  O_11
REMARK                            x       y       z     vdW  Elec       q    Type
REMARK                         _______ _______ _______ _____ _____    ______ ____
ROOT
ATOM      1  C   UNL     1     -10.603   6.997 129.557  0.00  0.00    +0.000 A 
ATOM      2  C   UNL     1      -9.276   6.865 129.996  0.00  0.00    +0.000 A 
ATOM      3  C   UNL     1      -8.989   6.585 131.327  0.00  0.00    +0.000 A 
ATOM      4  C   UNL     1     -10.011   6.357 132.228  0.00  0.00    +0.000 A 
ATOM      5  C   UNL     1     -11.335   6.399 131.815  0.00  0.00    +0.000 A 
ATOM      6  C   UNL     1     -11.628   6.720 130.484  0.00  0.00    +0.000 A 
ENDROOT
BRANCH   3   7
ATOM      7  O   UNL     1      -7.695   6.535 131.772  0.00  0.00    +0.000 OA
ATOM      8  H   UNL     1      -7.515   7.342 132.281  0.00  0.00    +0.000 HD
ENDBRANCH   3   7
BRANCH   4   9
ATOM      9  O   UNL     1      -9.722   6.083 133.533  0.00  0.00    +0.000 OA
ATOM     10  H   UNL     1     -10.159   6.800 134.035  0.00  0.00    +0.000 HD
ENDBRANCH   4   9
BRANCH   1  11
ATOM     11  C   UNL     1     -10.966   7.379 128.127  0.00  0.00    +0.000 C 
BRANCH  11  13
ATOM     12  C   UNL     1     -13.491   8.085 127.904  0.00  0.00    +0.000 C 
ATOM     13  C   UNL     1     -12.403   7.043 127.590  0.00  0.00    +0.000 C 
BRANCH  13  14
ATOM     14  N   UNL     1     -12.413   6.686 126.163  0.00  0.00    +0.000 NA
ATOM     15  H   UNL     1     -12.801   7.431 125.591  0.00  0.00    +0.000 HD
ATOM     16  H   UNL     1     -12.985   5.859 126.011  0.00  0.00    +0.000 HD
ENDBRANCH  13  14
ENDBRANCH  11  13
BRANCH  11  17
ATOM     17  O   UNL     1     -10.007   6.802 127.225  0.00  0.00    +0.000 OA
ATOM     18  H   UNL     1     -10.293   5.895 127.033  0.00  0.00    +0.000 HD
ENDBRANCH  11  17
ENDBRANCH   1  11
TORSDOF 6
ENDMDL
MODEL 3
REMARK VINA RESULT:      -5.5      9.330     10.415
REMARK  Name = Levonordefrin
REMARK  7 active torsions:
REMARK  status: ('A' for Active; 'I' for Inactive)
REMARK    1  A    between atoms: C_1  and  C_2
REMARK    2  A    between atoms: C_2  and  N_3
REMARK    3  A    between atoms: C_2  and  C_4
REMARK    4  A    between atoms: C_4  and  O_5
REMARK    5  A    between atoms: C_4  and  C_6
REMARK    6  A    between atoms: C_8  and  O_9
REMARK    7  A    between atoms: C_10  and  O_11
REMARK                            x       y       z     vdW  Elec       q    Type
REMARK                         _______ _______ _______ _____ _____    ______ ____
ROOT
ATOM      1  C   UNL     1      -6.661   3.482 122.035  0.00  0.00    +0.000 A 
ATOM      2  C   UNL     1      -7.358   3.576 120.820  0.00  0.00    +0.000 A 
ATOM      3  C   UNL     1      -6.868   4.346 119.772  0.00  0.00    +0.000 A 
ATOM      4  C   UNL     1      -5.643   4.977 119.885  0.00  0.00    +0.000 A 
ATOM      5  C   UNL     1      -4.887   4.843 121.041  0.00  0.00    +0.000 A 
ATOM      6  C   UNL     1      -5.397   4.099 122.111  0.00  0.00    +0.000 A 
ENDROOT
BRANCH   3   7
ATOM      7  O   UNL     1      -7.585   4.502 118.617  0.00  0.00    +0.000 OA
ATOM      8  H   UNL     1      -8.258   5.188 118.764  0.00  0.00    +0.000 HD
ENDBRANCH   3   7
BRANCH   4   9
ATOM      9  O   UNL     1      -5.167   5.733 118.854  0.00  0.00    +0.000 OA
ATOM     10  H   UNL     1      -5.969   6.102 118.432  0.00  0.00    +0.000 HD
ENDBRANCH   4   9
BRANCH   1  11
ATOM     11  C   UNL     1      -7.197   2.713 123.237  0.00  0.00    +0.000 C 
BRANCH  11  13
ATOM     12  C   UNL     1      -9.528   1.504 123.398  0.00  0.00    +0.000 C 
ATOM     13  C   UNL     1      -8.727   2.805 123.579  0.00  0.00    +0.000 C 
BRANCH  13  14
ATOM     14  N   UNL     1      -8.985   3.401 124.899  0.00  0.00    +0.000 NA
ATOM     15  H   UNL     1      -8.420   4.230 125.057  0.00  0.00    +0.000 HD
ATOM     16  H   UNL     1      -8.759   2.736 125.635  0.00  0.00    +0.000 HD
ENDBRANCH  13  14
ENDBRANCH  11  13
BRANCH  11  17
ATOM     17  O   UNL     1      -6.455   3.090 124.410  0.00  0.00    +0.000 OA
ATOM     18  H   UNL     1      -6.793   2.565 125.152  0.00  0.00    +0.000 HD
ENDBRANCH  11  17
ENDBRANCH   1  11
TORSDOF 6
ENDMDL
MODEL 4
REMARK VINA RESULT:      -5.4      2.234      2.958
REMARK  Name = Levonordefrin
REMARK  7 active torsions:
REMARK  status: ('A' for Active; 'I' for Inactive)
REMARK    1  A    between atoms: C_1  and  C_2
REMARK    2  A    between atoms: C_2  and  N_3
REMARK    3  A    between atoms: C_2  and  C_4
REMARK    4  A    between atoms: C_4  and  O_5
REMARK    5  A    between atoms: C_4  and  C_6
REMARK    6  A    between atoms: C_8  and  O_9
REMARK    7  A    between atoms: C_10  and  O_11
REMARK                            x       y       z     vdW  Elec       q    Type
REMARK                         _______ _______ _______ _____ _____    ______ ____
ROOT
ATOM      1  C   UNL     1      -9.905   6.370 131.689  0.00  0.00    +0.000 A 
ATOM      2  C   UNL     1     -11.292   6.411 131.905  0.00  0.00    +0.000 A 
ATOM      3  C   UNL     1     -12.132   7.081 131.024  0.00  0.00    +0.000 A 
ATOM      4  C   UNL     1     -11.623   7.658 129.877  0.00  0.00    +0.000 A 
ATOM      5  C   UNL     1     -10.268   7.570 129.587  0.00  0.00    +0.000 A 
ATOM      6  C   UNL     1      -9.414   6.930 130.493  0.00  0.00    +0.000 A 
ENDROOT
BRANCH   3   7
ATOM      7  O   UNL     1     -13.474   7.188 131.275  0.00  0.00    +0.000 OA
ATOM      8  H   UNL     1     -13.611   7.134 132.236  0.00  0.00    +0.000 HD
ENDBRANCH   3   7
BRANCH   4   9
ATOM      9  O   UNL     1     -12.453   8.315 129.016  0.00  0.00    +0.000 OA
ATOM     10  H   UNL     1     -13.184   7.686 128.855  0.00  0.00    +0.000 HD
ENDBRANCH   4   9
BRANCH   1  11
ATOM     11  C   UNL     1      -8.936   5.715 132.666  0.00  0.00    +0.000 C 
BRANCH  11  13
ATOM     12  C   UNL     1      -7.604   3.465 132.959  0.00  0.00    +0.000 C 
ATOM     13  C   UNL     1      -8.975   4.156 132.846  0.00  0.00    +0.000 C 
BRANCH  13  14
ATOM     14  N   UNL     1      -9.871   3.724 133.929  0.00  0.00    +0.000 NA
ATOM     15  H   UNL     1      -9.558   4.061 134.835  0.00  0.00    +0.000 HD
ATOM     16  H   UNL     1      -9.900   2.708 133.979  0.00  0.00    +0.000 HD
ENDBRANCH  13  14
ENDBRANCH  11  13
BRANCH  11  17
ATOM     17  O   UNL     1      -9.093   6.316 133.963  0.00  0.00    +0.000 OA
ATOM     18  H   UNL     1      -8.270   6.169 134.456  0.00  0.00    +0.000 HD
ENDBRANCH  11  17
ENDBRANCH   1  11
TORSDOF 6
ENDMDL
MODEL 5
REMARK VINA RESULT:      -5.2      2.710      4.807
REMARK  Name = Levonordefrin
REMARK  7 active torsions:
REMARK  status: ('A' for Active; 'I' for Inactive)
REMARK    1  A    between atoms: C_1  and  C_2
REMARK    2  A    between atoms: C_2  and  N_3
REMARK    3  A    between atoms: C_2  and  C_4
REMARK    4  A    between atoms: C_4  and  O_5
REMARK    5  A    between atoms: C_4  and  C_6
REMARK    6  A    between atoms: C_8  and  O_9
REMARK    7  A    between atoms: C_10  and  O_11
REMARK                            x       y       z     vdW  Elec       q    Type
REMARK                         _______ _______ _______ _____ _____    ______ ____
ROOT
ATOM      1  C   UNL     1     -10.552   6.956 130.618  0.00  0.00    +0.000 A 
ATOM      2  C   UNL     1      -9.222   7.202 130.239  0.00  0.00    +0.000 A 
ATOM      3  C   UNL     1      -8.165   6.840 131.065  0.00  0.00    +0.000 A 
ATOM      4  C   UNL     1      -8.403   6.162 132.245  0.00  0.00    +0.000 A 
ATOM      5  C   UNL     1      -9.698   5.829 132.616  0.00  0.00    +0.000 A 
ATOM      6  C   UNL     1     -10.767   6.228 131.804  0.00  0.00    +0.000 A 
ENDROOT
BRANCH   3   7
ATOM      7  O   UNL     1      -6.874   7.150 130.732  0.00  0.00    +0.000 OA
ATOM      8  H   UNL     1      -6.633   7.978 131.180  0.00  0.00    +0.000 HD
ENDBRANCH   3   7
BRANCH   4   9
ATOM      9  O   UNL     1      -7.361   5.809 133.052  0.00  0.00    +0.000 OA
ATOM     10  H   UNL     1      -7.735   5.133 133.652  0.00  0.00    +0.000 HD
ENDBRANCH   4   9
BRANCH   1  11
ATOM     11  C   UNL     1     -11.744   7.404 129.782  0.00  0.00    +0.000 C 
BRANCH  11  13
ATOM     12  C   UNL     1     -11.166   8.096 127.311  0.00  0.00    +0.000 C 
ATOM     13  C   UNL     1     -11.548   8.553 128.730  0.00  0.00    +0.000 C 
BRANCH  13  14
ATOM     14  N   UNL     1     -12.676   9.496 128.691  0.00  0.00    +0.000 NA
ATOM     15  H   UNL     1     -12.362  10.462 128.701  0.00  0.00    +0.000 HD
ATOM     16  H   UNL     1     -13.273   9.364 129.504  0.00  0.00    +0.000 HD
ENDBRANCH  13  14
ENDBRANCH  11  13
BRANCH  11  17
ATOM     17  O   UNL     1     -12.821   7.782 130.658  0.00  0.00    +0.000 OA
ATOM     18  H   UNL     1     -13.590   7.237 130.429  0.00  0.00    +0.000 HD
ENDBRANCH  11  17
ENDBRANCH   1  11
TORSDOF 6
ENDMDL
MODEL 6
REMARK VINA RESULT:      -5.2      2.481      5.309
REMARK  Name = Levonordefrin
REMARK  7 active torsions:
REMARK  status: ('A' for Active; 'I' for Inactive)
REMARK    1  A    between atoms: C_1  and  C_2
REMARK    2  A    between atoms: C_2  and  N_3
REMARK    3  A    between atoms: C_2  and  C_4
REMARK    4  A    between atoms: C_4  and  O_5
REMARK    5  A    between atoms: C_4  and  C_6
REMARK    6  A    between atoms: C_8  and  O_9
REMARK    7  A    between atoms: C_10  and  O_11
REMARK                            x       y       z     vdW  Elec       q    Type
REMARK                         _______ _______ _______ _____ _____    ______ ____
ROOT
ATOM      1  C   UNL     1      -9.510   6.892 130.670  0.00  0.00    +0.000 A 
ATOM      2  C   UNL     1     -10.127   6.150 131.690  0.00  0.00    +0.000 A 
ATOM      3  C   UNL     1      -9.372   5.507 132.664  0.00  0.00    +0.000 A 
ATOM      4  C   UNL     1      -7.997   5.649 132.686  0.00  0.00    +0.000 A 
ATOM      5  C   UNL     1      -7.356   6.440 131.742  0.00  0.00    +0.000 A 
ATOM      6  C   UNL     1      -8.112   7.056 130.738  0.00  0.00    +0.000 A 
ENDROOT
BRANCH   3   7
ATOM      7  O   UNL     1      -9.968   4.719 133.611  0.00  0.00    +0.000 OA
ATOM      8  H   UNL     1      -9.429   4.750 134.419  0.00  0.00    +0.000 HD
ENDBRANCH   3   7
BRANCH   4   9
ATOM      9  O   UNL     1      -7.261   5.015 133.644  0.00  0.00    +0.000 OA
ATOM     10  H   UNL     1      -6.671   5.710 133.998  0.00  0.00    +0.000 HD
ENDBRANCH   4   9
BRANCH   1  11
ATOM     11  C   UNL     1     -10.290   7.548 129.539  0.00  0.00    +0.000 C 
BRANCH  11  13
ATOM     12  C   UNL     1     -12.625   8.760 129.454  0.00  0.00    +0.000 C 
ATOM     13  C   UNL     1     -11.856   7.429 129.525  0.00  0.00    +0.000 C 
BRANCH  13  14
ATOM     14  N   UNL     1     -12.351   6.483 128.512  0.00  0.00    +0.000 NA
ATOM     15  H   UNL     1     -12.508   6.937 127.617  0.00  0.00    +0.000 HD
ATOM     16  H   UNL     1     -13.239   6.083 128.808  0.00  0.00    +0.000 HD
ENDBRANCH  13  14
ENDBRANCH  11  13
BRANCH  11  17
ATOM     17  O   UNL     1      -9.796   7.064 128.278  0.00  0.00    +0.000 OA
ATOM     18  H   UNL     1     -10.382   7.403 127.584  0.00  0.00    +0.000 HD
ENDBRANCH  11  17
ENDBRANCH   1  11
TORSDOF 6
ENDMDL
MODEL 7
REMARK VINA RESULT:      -5.1      9.638     10.512
REMARK  Name = Levonordefrin
REMARK  7 active torsions:
REMARK  status: ('A' for Active; 'I' for Inactive)
REMARK    1  A    between atoms: C_1  and  C_2
REMARK    2  A    between atoms: C_2  and  N_3
REMARK    3  A    between atoms: C_2  and  C_4
REMARK    4  A    between atoms: C_4  and  O_5
REMARK    5  A    between atoms: C_4  and  C_6
REMARK    6  A    between atoms: C_8  and  O_9
REMARK    7  A    between atoms: C_10  and  O_11
REMARK                            x       y       z     vdW  Elec       q    Type
REMARK                         _______ _______ _______ _____ _____    ______ ____
ROOT
ATOM      1  C   UNL     1      -8.335  -0.515 123.297  0.00  0.00    +0.000 A 
ATOM      2  C   UNL     1      -9.660  -0.059 123.392  0.00  0.00    +0.000 A 
ATOM      3  C   UNL     1      -9.948   1.196 123.915  0.00  0.00    +0.000 A 
ATOM      4  C   UNL     1      -8.926   2.048 124.286  0.00  0.00    +0.000 A 
ATOM      5  C   UNL     1      -7.601   1.665 124.133  0.00  0.00    +0.000 A 
ATOM      6  C   UNL     1      -7.309   0.386 123.643  0.00  0.00    +0.000 A 
ENDROOT
BRANCH   3   7
ATOM      7  O   UNL     1     -11.243   1.609 124.081  0.00  0.00    +0.000 OA
ATOM      8  H   UNL     1     -11.529   1.368 124.977  0.00  0.00    +0.000 HD
ENDBRANCH   3   7
BRANCH   4   9
ATOM      9  O   UNL     1      -9.215   3.278 124.801  0.00  0.00    +0.000 OA
ATOM     10  H   UNL     1      -9.484   3.099 125.724  0.00  0.00    +0.000 HD
ENDBRANCH   4   9
BRANCH   1  11
ATOM     11  C   UNL     1      -7.976  -1.910 122.803  0.00  0.00    +0.000 C 
BRANCH  11  13
ATOM     12  C   UNL     1      -8.070  -3.198 125.095  0.00  0.00    +0.000 C 
ATOM     13  C   UNL     1      -8.479  -3.158 123.613  0.00  0.00    +0.000 C 
BRANCH  13  14
ATOM     14  N   UNL     1      -9.923  -3.398 123.461  0.00  0.00    +0.000 NA
ATOM     15  H   UNL     1     -10.112  -4.218 122.892  0.00  0.00    +0.000 HD
ATOM     16  H   UNL     1     -10.365  -2.604 123.004  0.00  0.00    +0.000 HD
ENDBRANCH  13  14
ENDBRANCH  11  13
BRANCH  11  17
ATOM     17  O   UNL     1      -6.548  -2.013 122.669  0.00  0.00    +0.000 OA
ATOM     18  H   UNL     1      -6.179  -2.137 123.557  0.00  0.00    +0.000 HD
ENDBRANCH  11  17
ENDBRANCH   1  11
TORSDOF 6
ENDMDL
MODEL 8
REMARK VINA RESULT:      -5.0      9.226     10.986
REMARK  Name = Levonordefrin
REMARK  7 active torsions:
REMARK  status: ('A' for Active; 'I' for Inactive)
REMARK    1  A    between atoms: C_1  and  C_2
REMARK    2  A    between atoms: C_2  and  N_3
REMARK    3  A    between atoms: C_2  and  C_4
REMARK    4  A    between atoms: C_4  and  O_5
REMARK    5  A    between atoms: C_4  and  C_6
REMARK    6  A    between atoms: C_8  and  O_9
REMARK    7  A    between atoms: C_10  and  O_11
REMARK                            x       y       z     vdW  Elec       q    Type
REMARK                         _______ _______ _______ _____ _____    ______ ____
ROOT
ATOM      1  C   UNL     1      -9.324  -0.337 123.799  0.00  0.00    +0.000 A 
ATOM      2  C   UNL     1      -8.991  -0.646 125.128  0.00  0.00    +0.000 A 
ATOM      3  C   UNL     1      -8.652  -1.943 125.496  0.00  0.00    +0.000 A 
ATOM      4  C   UNL     1      -8.566  -2.939 124.542  0.00  0.00    +0.000 A 
ATOM      5  C   UNL     1      -8.809  -2.655 123.205  0.00  0.00    +0.000 A 
ATOM      6  C   UNL     1      -9.189  -1.359 122.838  0.00  0.00    +0.000 A 
ENDROOT
BRANCH   3   7
ATOM      7  O   UNL     1      -8.404  -2.261 126.804  0.00  0.00    +0.000 OA
ATOM      8  H   UNL     1      -9.254  -2.430 127.245  0.00  0.00    +0.000 HD
ENDBRANCH   3   7
BRANCH   4   9
ATOM      9  O   UNL     1      -8.233  -4.210 124.910  0.00  0.00    +0.000 OA
ATOM     10  H   UNL     1      -8.281  -4.201 125.887  0.00  0.00    +0.000 HD
ENDBRANCH   4   9
BRANCH   1  11
ATOM     11  C   UNL     1      -9.776   1.051 123.363  0.00  0.00    +0.000 C 
BRANCH  11  13
ATOM     12  C   UNL     1      -8.502   3.076 122.267  0.00  0.00    +0.000 C 
ATOM     13  C   UNL     1      -8.793   2.262 123.541  0.00  0.00    +0.000 C 
BRANCH  13  14
ATOM     14  N   UNL     1      -9.167   3.148 124.654  0.00  0.00    +0.000 NA
ATOM     15  H   UNL     1      -9.650   3.980 124.329  0.00  0.00    +0.000 HD
ATOM     16  H   UNL     1      -8.337   3.455 125.154  0.00  0.00    +0.000 HD
ENDBRANCH  13  14
ENDBRANCH  11  13
BRANCH  11  17
ATOM     17  O   UNL     1     -11.009   1.378 124.026  0.00  0.00    +0.000 OA
ATOM     18  H   UNL     1     -11.734   1.019 123.491  0.00  0.00    +0.000 HD
ENDBRANCH  11  17
ENDBRANCH   1  11
TORSDOF 6
ENDMDL
MODEL 9
REMARK VINA RESULT:      -5.0      1.387      2.150
REMARK  Name = Levonordefrin
REMARK  7 active torsions:
REMARK  status: ('A' for Active; 'I' for Inactive)
REMARK    1  A    between atoms: C_1  and  C_2
REMARK    2  A    between atoms: C_2  and  N_3
REMARK    3  A    between atoms: C_2  and  C_4
REMARK    4  A    between atoms: C_4  and  O_5
REMARK    5  A    between atoms: C_4  and  C_6
REMARK    6  A    between atoms: C_8  and  O_9
REMARK    7  A    between atoms: C_10  and  O_11
REMARK                            x       y       z     vdW  Elec       q    Type
REMARK                         _______ _______ _______ _____ _____    ______ ____
ROOT
ATOM      1  C   UNL     1     -10.478   6.618 129.320  0.00  0.00    +0.000 A 
ATOM      2  C   UNL     1     -11.426   6.993 130.285  0.00  0.00    +0.000 A 
ATOM      3  C   UNL     1     -12.240   8.103 130.094  0.00  0.00    +0.000 A 
ATOM      4  C   UNL     1     -12.179   8.817 128.912  0.00  0.00    +0.000 A 
ATOM      5  C   UNL     1     -11.310   8.430 127.901  0.00  0.00    +0.000 A 
ATOM      6  C   UNL     1     -10.462   7.335 128.107  0.00  0.00    +0.000 A 
ENDROOT
BRANCH   3   7
ATOM      7  O   UNL     1     -13.109   8.515 131.068  0.00  0.00    +0.000 OA
ATOM      8  H   UNL     1     -13.991   8.165 130.860  0.00  0.00    +0.000 HD
ENDBRANCH   3   7
BRANCH   4   9
ATOM      9  O   UNL     1     -12.979   9.907 128.730  0.00  0.00    +0.000 OA
ATOM     10  H   UNL     1     -12.469  10.650 129.111  0.00  0.00    +0.000 HD
ENDBRANCH   4   9
BRANCH   1  11
ATOM     11  C   UNL     1      -9.512   5.456 129.519  0.00  0.00    +0.000 C 
BRANCH  11  13
ATOM     12  C   UNL     1      -7.854   6.902 130.962  0.00  0.00    +0.000 C 
ATOM     13  C   UNL     1      -8.478   5.520 130.699  0.00  0.00    +0.000 C 
BRANCH  13  14
ATOM     14  N   UNL     1      -8.990   4.929 131.945  0.00  0.00    +0.000 NA
ATOM     15  H   UNL     1      -9.405   4.016 131.787  0.00  0.00    +0.000 HD
ATOM     16  H   UNL     1      -9.712   5.524 132.346  0.00  0.00    +0.000 HD
ENDBRANCH  13  14
ENDBRANCH  11  13
BRANCH  11  17
ATOM     17  O   UNL     1      -8.783   5.231 128.300  0.00  0.00    +0.000 OA
ATOM     18  H   UNL     1      -8.135   4.530 128.471  0.00  0.00    +0.000 HD
ENDBRANCH  11  17
ENDBRANCH   1  11
TORSDOF 6
ENDMDL
