MODEL 1
REMARK VINA RESULT:      -6.6      0.000      0.000
REMARK  Name = Levobunolol
REMARK  10 active torsions:
REMARK  status: ('A' for Active; 'I' for Inactive)
REMARK    1  A    between atoms: C_1  and  C_2
REMARK    2  A    between atoms: C_2  and  C_3
REMARK    3  A    between atoms: C_2  and  C_4
REMARK    4  A    between atoms: C_2  and  N_5
REMARK    5  A    between atoms: N_5  and  C_6
REMARK    6  A    between atoms: C_6  and  C_7
REMARK    7  A    between atoms: C_7  and  O_8
REMARK    8  A    between atoms: C_7  and  C_9
REMARK    9  A    between atoms: C_9  and  O_10
REMARK   10  A    between atoms: O_10  and  C_11
REMARK                            x       y       z     vdW  Elec       q    Type
REMARK                         _______ _______ _______ _____ _____    ______ ____
ROOT
ATOM      1  O   UNL     1      -6.733   1.800 123.735  0.00  0.00    +0.000 OA
ENDROOT
BRANCH   1   2
ATOM      2  C   UNL     1      -7.760   0.962 123.369  0.00  0.00    +0.000 A 
ATOM      3  C   UNL     1      -8.924   1.613 122.927  0.00  0.00    +0.000 A 
ATOM      4  C   UNL     1     -10.073   0.886 122.599  0.00  0.00    +0.000 A 
ATOM      5  C   UNL     1     -10.082  -0.498 122.752  0.00  0.00    +0.000 A 
ATOM      6  C   UNL     1      -8.944  -1.150 123.238  0.00  0.00    +0.000 A 
ATOM      7  C   UNL     1      -7.761  -0.438 123.523  0.00  0.00    +0.000 A 
ATOM      8  C   UNL     1      -6.566  -1.187 124.039  0.00  0.00    +0.000 C 
ATOM      9  C   UNL     1      -6.595  -2.678 123.831  0.00  0.00    +0.000 C 
ATOM     10  C   UNL     1      -7.902  -3.227 124.320  0.00  0.00    +0.000 C 
ATOM     11  C   UNL     1      -9.019  -2.620 123.501  0.00  0.00    +0.000 C 
ATOM     12  O   UNL     1      -9.969  -3.281 123.113  0.00  0.00    +0.000 OA
ENDBRANCH   1   2
BRANCH   1  13
ATOM     13  C   UNL     1      -7.089   2.958 124.491  0.00  0.00    +0.000 C 
BRANCH  13  14
ATOM     14  C   UNL     1      -5.975   3.984 124.585  0.00  0.00    +0.000 C 
BRANCH  14  15
ATOM     15  O   UNL     1      -4.897   3.443 125.364  0.00  0.00    +0.000 OA
ATOM     16  H   UNL     1      -5.275   3.025 126.157  0.00  0.00    +0.000 HD
ENDBRANCH  14  15
BRANCH  14  17
ATOM     17  C   UNL     1      -5.490   4.354 123.205  0.00  0.00    +0.000 C 
BRANCH  17  18
ATOM     18  N   UNL     1      -6.571   4.284 122.223  0.00  0.00    +0.000 NA
ATOM     19  H   UNL     1      -7.234   3.547 122.490  0.00  0.00    +0.000 HD
BRANCH  18  21
ATOM     20  C   UNL     1      -5.452   2.677 120.793  0.00  0.00    +0.000 C 
ATOM     21  C   UNL     1      -6.088   4.073 120.856  0.00  0.00    +0.000 C 
ATOM     22  C   UNL     1      -5.023   5.119 120.490  0.00  0.00    +0.000 C 
ATOM     23  C   UNL     1      -7.272   4.123 119.881  0.00  0.00    +0.000 C 
ENDBRANCH  18  21
ENDBRANCH  17  18
ENDBRANCH  14  17
ENDBRANCH  13  14
ENDBRANCH   1  13
TORSDOF 7
ENDMDL
MODEL 2
REMARK VINA RESULT:      -6.5      3.896      6.404
REMARK  Name = Levobunolol
REMARK  10 active torsions:
REMARK  status: ('A' for Active; 'I' for Inactive)
REMARK    1  A    between atoms: C_1  and  C_2
REMARK    2  A    between atoms: C_2  and  C_3
REMARK    3  A    between atoms: C_2  and  C_4
REMARK    4  A    between atoms: C_2  and  N_5
REMARK    5  A    between atoms: N_5  and  C_6
REMARK    6  A    between atoms: C_6  and  C_7
REMARK    7  A    between atoms: C_7  and  O_8
REMARK    8  A    between atoms: C_7  and  C_9
REMARK    9  A    between atoms: C_9  and  O_10
REMARK   10  A    between atoms: O_10  and  C_11
REMARK                            x       y       z     vdW  Elec       q    Type
REMARK                         _______ _______ _______ _____ _____    ______ ____
ROOT
ATOM      1  O   UNL     1      -7.398  -2.472 125.143  0.00  0.00    +0.000 OA
ENDROOT
BRANCH   1   2
ATOM      2  C   UNL     1      -7.653  -2.711 126.474  0.00  0.00    +0.000 A 
ATOM      3  C   UNL     1      -8.636  -3.684 126.720  0.00  0.00    +0.000 A 
ATOM      4  C   UNL     1      -9.052  -3.970 128.025  0.00  0.00    +0.000 A 
ATOM      5  C   UNL     1      -8.517  -3.255 129.093  0.00  0.00    +0.000 A 
ATOM      6  C   UNL     1      -7.573  -2.251 128.852  0.00  0.00    +0.000 A 
ATOM      7  C   UNL     1      -7.105  -1.986 127.549  0.00  0.00    +0.000 A 
ATOM      8  C   UNL     1      -6.088  -0.900 127.347  0.00  0.00    +0.000 C 
ATOM      9  C   UNL     1      -5.356  -0.457 128.586  0.00  0.00    +0.000 C 
ATOM     10  C   UNL     1      -6.346  -0.155 129.672  0.00  0.00    +0.000 C 
ATOM     11  C   UNL     1      -7.102  -1.422 130.004  0.00  0.00    +0.000 C 
ATOM     12  O   UNL     1      -7.366  -1.734 131.154  0.00  0.00    +0.000 OA
ENDBRANCH   1   2
BRANCH   1  13
ATOM     13  C   UNL     1      -7.860  -3.454 124.215  0.00  0.00    +0.000 C 
BRANCH  13  14
ATOM     14  C   UNL     1      -8.784  -2.891 123.151  0.00  0.00    +0.000 C 
BRANCH  14  15
ATOM     15  O   UNL     1     -10.133  -3.285 123.440  0.00  0.00    +0.000 OA
ATOM     16  H   UNL     1     -10.336  -3.027 124.356  0.00  0.00    +0.000 HD
ENDBRANCH  14  15
BRANCH  14  17
ATOM     17  C   UNL     1      -8.674  -1.388 123.107  0.00  0.00    +0.000 C 
BRANCH  17  18
ATOM     18  N   UNL     1      -9.571  -0.758 124.075  0.00  0.00    +0.000 NA
ATOM     19  H   UNL     1     -10.513  -0.684 123.675  0.00  0.00    +0.000 HD
BRANCH  18  21
ATOM     20  C   UNL     1      -9.962   1.624 123.846  0.00  0.00    +0.000 C 
ATOM     21  C   UNL     1      -9.096   0.552 124.524  0.00  0.00    +0.000 C 
ATOM     22  C   UNL     1      -7.630   0.768 124.115  0.00  0.00    +0.000 C 
ATOM     23  C   UNL     1      -9.268   0.665 126.046  0.00  0.00    +0.000 C 
ENDBRANCH  18  21
ENDBRANCH  17  18
ENDBRANCH  14  17
ENDBRANCH  13  14
ENDBRANCH   1  13
TORSDOF 7
ENDMDL
MODEL 3
REMARK VINA RESULT:      -6.4      7.557      9.916
REMARK  Name = Levobunolol
REMARK  10 active torsions:
REMARK  status: ('A' for Active; 'I' for Inactive)
REMARK    1  A    between atoms: C_1  and  C_2
REMARK    2  A    between atoms: C_2  and  C_3
REMARK    3  A    between atoms: C_2  and  C_4
REMARK    4  A    between atoms: C_2  and  N_5
REMARK    5  A    between atoms: N_5  and  C_6
REMARK    6  A    between atoms: C_6  and  C_7
REMARK    7  A    between atoms: C_7  and  O_8
REMARK    8  A    between atoms: C_7  and  C_9
REMARK    9  A    between atoms: C_9  and  O_10
REMARK   10  A    between atoms: O_10  and  C_11
REMARK                            x       y       z     vdW  Elec       q    Type
REMARK                         _______ _______ _______ _____ _____    ______ ____
ROOT
ATOM      1  O   UNL     1      -7.492   6.250 129.978  0.00  0.00    +0.000 OA
ENDROOT
BRANCH   1   2
ATOM      2  C   UNL     1      -8.623   6.353 130.753  0.00  0.00    +0.000 A 
ATOM      3  C   UNL     1      -8.514   5.789 132.035  0.00  0.00    +0.000 A 
ATOM      4  C   UNL     1      -9.613   5.752 132.899  0.00  0.00    +0.000 A 
ATOM      5  C   UNL     1     -10.844   6.241 132.473  0.00  0.00    +0.000 A 
ATOM      6  C   UNL     1     -10.974   6.760 131.180  0.00  0.00    +0.000 A 
ATOM      7  C   UNL     1      -9.865   6.853 130.316  0.00  0.00    +0.000 A 
ATOM      8  C   UNL     1     -10.059   7.422 128.939  0.00  0.00    +0.000 C 
ATOM      9  C   UNL     1     -11.324   8.212 128.736  0.00  0.00    +0.000 C 
ATOM     10  C   UNL     1     -12.497   7.416 129.225  0.00  0.00    +0.000 C 
ATOM     11  C   UNL     1     -12.332   7.172 130.709  0.00  0.00    +0.000 C 
ATOM     12  O   UNL     1     -13.271   7.253 131.485  0.00  0.00    +0.000 OA
ENDBRANCH   1   2
BRANCH   1  13
ATOM     13  C   UNL     1      -6.635   5.138 130.239  0.00  0.00    +0.000 C 
BRANCH  13  14
ATOM     14  C   UNL     1      -6.246   4.369 128.990  0.00  0.00    +0.000 C 
BRANCH  14  15
ATOM     15  O   UNL     1      -7.097   4.767 127.905  0.00  0.00    +0.000 OA
ATOM     16  H   UNL     1      -7.323   3.973 127.390  0.00  0.00    +0.000 HD
ENDBRANCH  14  15
BRANCH  14  17
ATOM     17  C   UNL     1      -4.801   4.630 128.646  0.00  0.00    +0.000 C 
BRANCH  17  18
ATOM     18  N   UNL     1      -4.564   6.048 128.376  0.00  0.00    +0.000 NA
ATOM     19  H   UNL     1      -4.429   6.190 127.369  0.00  0.00    +0.000 HD
BRANCH  18  21
ATOM     20  C   UNL     1      -2.315   6.920 128.130  0.00  0.00    +0.000 C 
ATOM     21  C   UNL     1      -3.432   6.591 129.131  0.00  0.00    +0.000 C 
ATOM     22  C   UNL     1      -2.906   5.558 130.139  0.00  0.00    +0.000 C 
ATOM     23  C   UNL     1      -3.862   7.885 129.837  0.00  0.00    +0.000 C 
ENDBRANCH  18  21
ENDBRANCH  17  18
ENDBRANCH  14  17
ENDBRANCH  13  14
ENDBRANCH   1  13
TORSDOF 7
ENDMDL
MODEL 4
REMARK VINA RESULT:      -6.4      3.255      5.812
REMARK  Name = Levobunolol
REMARK  10 active torsions:
REMARK  status: ('A' for Active; 'I' for Inactive)
REMARK    1  A    between atoms: C_1  and  C_2
REMARK    2  A    between atoms: C_2  and  C_3
REMARK    3  A    between atoms: C_2  and  C_4
REMARK    4  A    between atoms: C_2  and  N_5
REMARK    5  A    between atoms: N_5  and  C_6
REMARK    6  A    between atoms: C_6  and  C_7
REMARK    7  A    between atoms: C_7  and  O_8
REMARK    8  A    between atoms: C_7  and  C_9
REMARK    9  A    between atoms: C_9  and  O_10
REMARK   10  A    between atoms: O_10  and  C_11
REMARK                            x       y       z     vdW  Elec       q    Type
REMARK                         _______ _______ _______ _____ _____    ______ ____
ROOT
ATOM      1  O   UNL     1      -6.017   2.550 124.522  0.00  0.00    +0.000 OA
ENDROOT
BRANCH   1   2
ATOM      2  C   UNL     1      -6.876   2.839 123.487  0.00  0.00    +0.000 A 
ATOM      3  C   UNL     1      -8.160   2.283 123.613  0.00  0.00    +0.000 A 
ATOM      4  C   UNL     1      -9.109   2.430 122.597  0.00  0.00    +0.000 A 
ATOM      5  C   UNL     1      -8.768   3.099 121.424  0.00  0.00    +0.000 A 
ATOM      6  C   UNL     1      -7.477   3.613 121.270  0.00  0.00    +0.000 A 
ATOM      7  C   UNL     1      -6.525   3.520 122.306  0.00  0.00    +0.000 A 
ATOM      8  C   UNL     1      -5.153   4.093 122.089  0.00  0.00    +0.000 C 
ATOM      9  C   UNL     1      -5.030   5.068 120.948  0.00  0.00    +0.000 C 
ATOM     10  C   UNL     1      -5.632   4.471 119.711  0.00  0.00    +0.000 C 
ATOM     11  C   UNL     1      -7.103   4.225 119.958  0.00  0.00    +0.000 C 
ATOM     12  O   UNL     1      -7.949   4.462 119.110  0.00  0.00    +0.000 OA
ENDBRANCH   1   2
BRANCH   1  13
ATOM     13  C   UNL     1      -6.413   2.983 125.823  0.00  0.00    +0.000 C 
BRANCH  13  14
ATOM     14  C   UNL     1      -6.309   4.484 126.018  0.00  0.00    +0.000 C 
BRANCH  14  15
ATOM     15  O   UNL     1      -7.339   4.916 126.921  0.00  0.00    +0.000 OA
ATOM     16  H   UNL     1      -7.408   4.262 127.638  0.00  0.00    +0.000 HD
ENDBRANCH  14  15
BRANCH  14  17
ATOM     17  C   UNL     1      -4.950   4.846 126.562  0.00  0.00    +0.000 C 
BRANCH  17  18
ATOM     18  N   UNL     1      -3.933   3.883 126.143  0.00  0.00    +0.000 NA
ATOM     19  H   UNL     1      -4.385   3.013 125.839  0.00  0.00    +0.000 HD
BRANCH  18  21
ATOM     20  C   UNL     1      -2.570   4.950 127.841  0.00  0.00    +0.000 C 
ATOM     21  C   UNL     1      -2.940   3.612 127.185  0.00  0.00    +0.000 C 
ATOM     22  C   UNL     1      -1.672   2.991 126.578  0.00  0.00    +0.000 C 
ATOM     23  C   UNL     1      -3.554   2.690 128.249  0.00  0.00    +0.000 C 
ENDBRANCH  18  21
ENDBRANCH  17  18
ENDBRANCH  14  17
ENDBRANCH  13  14
ENDBRANCH   1  13
TORSDOF 7
ENDMDL
MODEL 5
REMARK VINA RESULT:      -6.3      9.747     11.203
REMARK  Name = Levobunolol
REMARK  10 active torsions:
REMARK  status: ('A' for Active; 'I' for Inactive)
REMARK    1  A    between atoms: C_1  and  C_2
REMARK    2  A    between atoms: C_2  and  C_3
REMARK    3  A    between atoms: C_2  and  C_4
REMARK    4  A    between atoms: C_2  and  N_5
REMARK    5  A    between atoms: N_5  and  C_6
REMARK    6  A    between atoms: C_6  and  C_7
REMARK    7  A    between atoms: C_7  and  O_8
REMARK    8  A    between atoms: C_7  and  C_9
REMARK    9  A    between atoms: C_9  and  O_10
REMARK   10  A    between atoms: O_10  and  C_11
REMARK                            x       y       z     vdW  Elec       q    Type
REMARK                         _______ _______ _______ _____ _____    ______ ____
ROOT
ATOM      1  O   UNL     1      -9.311   6.818 131.323  0.00  0.00    +0.000 OA
ENDROOT
BRANCH   1   2
ATOM      2  C   UNL     1      -7.994   6.656 131.688  0.00  0.00    +0.000 A 
ATOM      3  C   UNL     1      -7.062   7.202 130.790  0.00  0.00    +0.000 A 
ATOM      4  C   UNL     1      -5.688   7.041 130.996  0.00  0.00    +0.000 A 
ATOM      5  C   UNL     1      -5.234   6.294 132.080  0.00  0.00    +0.000 A 
ATOM      6  C   UNL     1      -6.157   5.705 132.951  0.00  0.00    +0.000 A 
ATOM      7  C   UNL     1      -7.543   5.902 132.788  0.00  0.00    +0.000 A 
ATOM      8  C   UNL     1      -8.490   5.250 133.754  0.00  0.00    +0.000 C 
ATOM      9  C   UNL     1      -7.876   4.774 135.044  0.00  0.00    +0.000 C 
ATOM     10  C   UNL     1      -6.661   3.946 134.746  0.00  0.00    +0.000 C 
ATOM     11  C   UNL     1      -5.646   4.814 134.038  0.00  0.00    +0.000 C 
ATOM     12  O   UNL     1      -4.454   4.758 134.298  0.00  0.00    +0.000 OA
ENDBRANCH   1   2
BRANCH   1  13
ATOM     13  C   UNL     1      -9.838   5.876 130.389  0.00  0.00    +0.000 C 
BRANCH  13  14
ATOM     14  C   UNL     1     -11.256   5.438 130.706  0.00  0.00    +0.000 C 
BRANCH  14  15
ATOM     15  O   UNL     1     -11.556   5.761 132.073  0.00  0.00    +0.000 OA
ATOM     16  H   UNL     1     -11.498   4.944 132.598  0.00  0.00    +0.000 HD
ENDBRANCH  14  15
BRANCH  14  17
ATOM     17  C   UNL     1     -12.231   6.121 129.780  0.00  0.00    +0.000 C 
BRANCH  17  18
ATOM     18  N   UNL     1     -12.177   7.575 129.925  0.00  0.00    +0.000 NA
ATOM     19  H   UNL     1     -12.864   7.878 130.625  0.00  0.00    +0.000 HD
BRANCH  18  21
ATOM     20  C   UNL     1     -13.319   7.430 127.791  0.00  0.00    +0.000 C 
ATOM     21  C   UNL     1     -12.382   8.282 128.659  0.00  0.00    +0.000 C 
ATOM     22  C   UNL     1     -11.049   8.464 127.917  0.00  0.00    +0.000 C 
ATOM     23  C   UNL     1     -13.053   9.636 128.932  0.00  0.00    +0.000 C 
ENDBRANCH  18  21
ENDBRANCH  17  18
ENDBRANCH  14  17
ENDBRANCH  13  14
ENDBRANCH   1  13
TORSDOF 7
ENDMDL
MODEL 6
REMARK VINA RESULT:      -6.1      9.933     11.564
REMARK  Name = Levobunolol
REMARK  10 active torsions:
REMARK  status: ('A' for Active; 'I' for Inactive)
REMARK    1  A    between atoms: C_1  and  C_2
REMARK    2  A    between atoms: C_2  and  C_3
REMARK    3  A    between atoms: C_2  and  C_4
REMARK    4  A    between atoms: C_2  and  N_5
REMARK    5  A    between atoms: N_5  and  C_6
REMARK    6  A    between atoms: C_6  and  C_7
REMARK    7  A    between atoms: C_7  and  O_8
REMARK    8  A    between atoms: C_7  and  C_9
REMARK    9  A    between atoms: C_9  and  O_10
REMARK   10  A    between atoms: O_10  and  C_11
REMARK                            x       y       z     vdW  Elec       q    Type
REMARK                         _______ _______ _______ _____ _____    ______ ____
ROOT
ATOM      1  O   UNL     1      -8.659   6.430 131.739  0.00  0.00    +0.000 OA
ENDROOT
BRANCH   1   2
ATOM      2  C   UNL     1      -7.531   6.091 132.450  0.00  0.00    +0.000 A 
ATOM      3  C   UNL     1      -7.777   5.490 133.695  0.00  0.00    +0.000 A 
ATOM      4  C   UNL     1      -6.724   5.167 134.557  0.00  0.00    +0.000 A 
ATOM      5  C   UNL     1      -5.417   5.483 134.200  0.00  0.00    +0.000 A 
ATOM      6  C   UNL     1      -5.167   6.128 132.984  0.00  0.00    +0.000 A 
ATOM      7  C   UNL     1      -6.211   6.412 132.080  0.00  0.00    +0.000 A 
ATOM      8  C   UNL     1      -5.887   7.101 130.785  0.00  0.00    +0.000 C 
ATOM      9  C   UNL     1      -4.437   7.071 130.379  0.00  0.00    +0.000 C 
ATOM     10  C   UNL     1      -3.586   7.524 131.528  0.00  0.00    +0.000 C 
ATOM     11  C   UNL     1      -3.768   6.558 132.676  0.00  0.00    +0.000 C 
ATOM     12  O   UNL     1      -2.829   6.183 133.361  0.00  0.00    +0.000 OA
ENDBRANCH   1   2
BRANCH   1  13
ATOM     13  C   UNL     1      -9.910   6.012 132.284  0.00  0.00    +0.000 C 
BRANCH  13  14
ATOM     14  C   UNL     1     -11.038   5.997 131.269  0.00  0.00    +0.000 C 
BRANCH  14  15
ATOM     15  O   UNL     1     -12.287   6.197 131.946  0.00  0.00    +0.000 OA
ATOM     16  H   UNL     1     -12.242   5.744 132.806  0.00  0.00    +0.000 HD
ENDBRANCH  14  15
BRANCH  14  17
ATOM     17  C   UNL     1     -10.823   7.076 130.237  0.00  0.00    +0.000 C 
BRANCH  17  18
ATOM     18  N   UNL     1     -11.992   7.946 130.122  0.00  0.00    +0.000 NA
ATOM     19  H   UNL     1     -12.769   7.553 130.665  0.00  0.00    +0.000 HD
BRANCH  18  21
ATOM     20  C   UNL     1     -11.122   8.380 127.900  0.00  0.00    +0.000 C 
ATOM     21  C   UNL     1     -12.396   8.178 128.734  0.00  0.00    +0.000 C 
ATOM     22  C   UNL     1     -13.264   9.442 128.625  0.00  0.00    +0.000 C 
ATOM     23  C   UNL     1     -13.145   6.946 128.206  0.00  0.00    +0.000 C 
ENDBRANCH  18  21
ENDBRANCH  17  18
ENDBRANCH  14  17
ENDBRANCH  13  14
ENDBRANCH   1  13
TORSDOF 7
ENDMDL
MODEL 7
REMARK VINA RESULT:      -6.0      4.883      6.776
REMARK  Name = Levobunolol
REMARK  10 active torsions:
REMARK  status: ('A' for Active; 'I' for Inactive)
REMARK    1  A    between atoms: C_1  and  C_2
REMARK    2  A    between atoms: C_2  and  C_3
REMARK    3  A    between atoms: C_2  and  C_4
REMARK    4  A    between atoms: C_2  and  N_5
REMARK    5  A    between atoms: N_5  and  C_6
REMARK    6  A    between atoms: C_6  and  C_7
REMARK    7  A    between atoms: C_7  and  O_8
REMARK    8  A    between atoms: C_7  and  C_9
REMARK    9  A    between atoms: C_9  and  O_10
REMARK   10  A    between atoms: O_10  and  C_11
REMARK                            x       y       z     vdW  Elec       q    Type
REMARK                         _______ _______ _______ _____ _____    ______ ____
ROOT
ATOM      1  O   UNL     1      -5.081  -2.295 128.247  0.00  0.00    +0.000 OA
ENDROOT
BRANCH   1   2
ATOM      2  C   UNL     1      -6.352  -2.534 127.779  0.00  0.00    +0.000 A 
ATOM      3  C   UNL     1      -7.228  -3.104 128.718  0.00  0.00    +0.000 A 
ATOM      4  C   UNL     1      -8.528  -3.473 128.356  0.00  0.00    +0.000 A 
ATOM      5  C   UNL     1      -8.949  -3.316 127.038  0.00  0.00    +0.000 A 
ATOM      6  C   UNL     1      -8.066  -2.795 126.085  0.00  0.00    +0.000 A 
ATOM      7  C   UNL     1      -6.772  -2.369 126.446  0.00  0.00    +0.000 A 
ATOM      8  C   UNL     1      -5.866  -1.813 125.384  0.00  0.00    +0.000 C 
ATOM      9  C   UNL     1      -6.545  -1.384 124.110  0.00  0.00    +0.000 C 
ATOM     10  C   UNL     1      -7.434  -2.488 123.621  0.00  0.00    +0.000 C 
ATOM     11  C   UNL     1      -8.505  -2.744 124.657  0.00  0.00    +0.000 C 
ATOM     12  O   UNL     1      -9.667  -2.953 124.347  0.00  0.00    +0.000 OA
ENDBRANCH   1   2
BRANCH   1  13
ATOM     13  C   UNL     1      -4.660  -3.056 129.379  0.00  0.00    +0.000 C 
BRANCH  13  14
ATOM     14  C   UNL     1      -3.695  -2.311 130.283  0.00  0.00    +0.000 C 
BRANCH  14  15
ATOM     15  O   UNL     1      -2.413  -2.230 129.641  0.00  0.00    +0.000 OA
ATOM     16  H   UNL     1      -2.001  -1.385 129.890  0.00  0.00    +0.000 HD
ENDBRANCH  14  15
BRANCH  14  17
ATOM     17  C   UNL     1      -4.220  -0.929 130.580  0.00  0.00    +0.000 C 
BRANCH  17  18
ATOM     18  N   UNL     1      -3.924   0.001 129.491  0.00  0.00    +0.000 NA
ATOM     19  H   UNL     1      -3.020   0.456 129.661  0.00  0.00    +0.000 HD
BRANCH  18  21
ATOM     20  C   UNL     1      -4.496   2.318 129.916  0.00  0.00    +0.000 C 
ATOM     21  C   UNL     1      -4.976   1.000 129.292  0.00  0.00    +0.000 C 
ATOM     22  C   UNL     1      -6.275   0.567 129.990  0.00  0.00    +0.000 C 
ATOM     23  C   UNL     1      -5.201   1.216 127.788  0.00  0.00    +0.000 C 
ENDBRANCH  18  21
ENDBRANCH  17  18
ENDBRANCH  14  17
ENDBRANCH  13  14
ENDBRANCH   1  13
TORSDOF 7
ENDMDL
MODEL 8
REMARK VINA RESULT:      -6.0      2.511      3.798
REMARK  Name = Levobunolol
REMARK  10 active torsions:
REMARK  status: ('A' for Active; 'I' for Inactive)
REMARK    1  A    between atoms: C_1  and  C_2
REMARK    2  A    between atoms: C_2  and  C_3
REMARK    3  A    between atoms: C_2  and  C_4
REMARK    4  A    between atoms: C_2  and  N_5
REMARK    5  A    between atoms: N_5  and  C_6
REMARK    6  A    between atoms: C_6  and  C_7
REMARK    7  A    between atoms: C_7  and  O_8
REMARK    8  A    between atoms: C_7  and  C_9
REMARK    9  A    between atoms: C_9  and  O_10
REMARK   10  A    between atoms: O_10  and  C_11
REMARK                            x       y       z     vdW  Elec       q    Type
REMARK                         _______ _______ _______ _____ _____    ______ ____
ROOT
ATOM      1  O   UNL     1      -6.427   2.226 124.914  0.00  0.00    +0.000 OA
ENDROOT
BRANCH   1   2
ATOM      2  C   UNL     1      -7.286   1.375 124.258  0.00  0.00    +0.000 A 
ATOM      3  C   UNL     1      -8.436   1.987 123.733  0.00  0.00    +0.000 A 
ATOM      4  C   UNL     1      -9.432   1.228 123.111  0.00  0.00    +0.000 A 
ATOM      5  C   UNL     1      -9.307  -0.157 123.046  0.00  0.00    +0.000 A 
ATOM      6  C   UNL     1      -8.188  -0.779 123.610  0.00  0.00    +0.000 A 
ATOM      7  C   UNL     1      -7.150  -0.024 124.193  0.00  0.00    +0.000 A 
ATOM      8  C   UNL     1      -5.968  -0.742 124.781  0.00  0.00    +0.000 C 
ATOM      9  C   UNL     1      -5.796  -2.173 124.345  0.00  0.00    +0.000 C 
ATOM     10  C   UNL     1      -7.091  -2.910 124.518  0.00  0.00    +0.000 C 
ATOM     11  C   UNL     1      -8.134  -2.273 123.628  0.00  0.00    +0.000 C 
ATOM     12  O   UNL     1      -8.934  -2.940 122.990  0.00  0.00    +0.000 OA
ENDBRANCH   1   2
BRANCH   1  13
ATOM     13  C   UNL     1      -6.930   3.525 125.232  0.00  0.00    +0.000 C 
BRANCH  13  14
ATOM     14  C   UNL     1      -5.897   4.627 125.078  0.00  0.00    +0.000 C 
BRANCH  14  15
ATOM     15  O   UNL     1      -6.567   5.893 124.987  0.00  0.00    +0.000 OA
ATOM     16  H   UNL     1      -6.481   6.345 125.844  0.00  0.00    +0.000 HD
ENDBRANCH  14  15
BRANCH  14  17
ATOM     17  C   UNL     1      -4.949   4.619 126.251  0.00  0.00    +0.000 C 
BRANCH  17  18
ATOM     18  N   UNL     1      -3.850   3.677 126.043  0.00  0.00    +0.000 NA
ATOM     19  H   UNL     1      -4.228   2.744 125.844  0.00  0.00    +0.000 HD
BRANCH  18  21
ATOM     20  C   UNL     1      -3.549   2.746 128.262  0.00  0.00    +0.000 C 
ATOM     21  C   UNL     1      -2.919   3.628 127.173  0.00  0.00    +0.000 C 
ATOM     22  C   UNL     1      -2.688   5.034 127.748  0.00  0.00    +0.000 C 
ATOM     23  C   UNL     1      -1.598   2.990 126.720  0.00  0.00    +0.000 C 
ENDBRANCH  18  21
ENDBRANCH  17  18
ENDBRANCH  14  17
ENDBRANCH  13  14
ENDBRANCH   1  13
TORSDOF 7
ENDMDL
MODEL 9
REMARK VINA RESULT:      -5.9      2.380      4.027
REMARK  Name = Levobunolol
REMARK  10 active torsions:
REMARK  status: ('A' for Active; 'I' for Inactive)
REMARK    1  A    between atoms: C_1  and  C_2
REMARK    2  A    between atoms: C_2  and  C_3
REMARK    3  A    between atoms: C_2  and  C_4
REMARK    4  A    between atoms: C_2  and  N_5
REMARK    5  A    between atoms: N_5  and  C_6
REMARK    6  A    between atoms: C_6  and  C_7
REMARK    7  A    between atoms: C_7  and  O_8
REMARK    8  A    between atoms: C_7  and  C_9
REMARK    9  A    between atoms: C_9  and  O_10
REMARK   10  A    between atoms: O_10  and  C_11
REMARK                            x       y       z     vdW  Elec       q    Type
REMARK                         _______ _______ _______ _____ _____    ______ ____
ROOT
ATOM      1  O   UNL     1      -6.924   2.227 124.219  0.00  0.00    +0.000 OA
ENDROOT
BRANCH   1   2
ATOM      2  C   UNL     1      -7.774   1.282 123.692  0.00  0.00    +0.000 A 
ATOM      3  C   UNL     1      -8.972   1.794 123.166  0.00  0.00    +0.000 A 
ATOM      4  C   UNL     1      -9.962   0.939 122.671  0.00  0.00    +0.000 A 
ATOM      5  C   UNL     1      -9.780  -0.440 122.736  0.00  0.00    +0.000 A 
ATOM      6  C   UNL     1      -8.612  -0.959 123.303  0.00  0.00    +0.000 A 
ATOM      7  C   UNL     1      -7.582  -0.111 123.759  0.00  0.00    +0.000 A 
ATOM      8  C   UNL     1      -6.345  -0.721 124.355  0.00  0.00    +0.000 C 
ATOM      9  C   UNL     1      -6.132  -2.181 124.054  0.00  0.00    +0.000 C 
ATOM     10  C   UNL     1      -7.385  -2.945 124.363  0.00  0.00    +0.000 C 
ATOM     11  C   UNL     1      -8.493  -2.441 123.466  0.00  0.00    +0.000 C 
ATOM     12  O   UNL     1      -9.291  -3.198 122.937  0.00  0.00    +0.000 OA
ENDBRANCH   1   2
BRANCH   1  13
ATOM     13  C   UNL     1      -7.258   3.594 123.979  0.00  0.00    +0.000 C 
BRANCH  13  14
ATOM     14  C   UNL     1      -7.377   4.419 125.247  0.00  0.00    +0.000 C 
BRANCH  14  15
ATOM     15  O   UNL     1      -8.705   4.954 125.340  0.00  0.00    +0.000 OA
ATOM     16  H   UNL     1      -8.905   5.419 124.509  0.00  0.00    +0.000 HD
ENDBRANCH  14  15
BRANCH  14  17
ATOM     17  C   UNL     1      -7.070   3.566 126.453  0.00  0.00    +0.000 C 
BRANCH  17  18
ATOM     18  N   UNL     1      -8.273   2.916 126.968  0.00  0.00    +0.000 NA
ATOM     19  H   UNL     1      -8.794   3.572 127.561  0.00  0.00    +0.000 HD
BRANCH  18  21
ATOM     20  C   UNL     1      -8.778   0.545 127.029  0.00  0.00    +0.000 C 
ATOM     21  C   UNL     1      -7.985   1.678 127.697  0.00  0.00    +0.000 C 
ATOM     22  C   UNL     1      -8.430   1.796 129.163  0.00  0.00    +0.000 C 
ATOM     23  C   UNL     1      -6.486   1.362 127.596  0.00  0.00    +0.000 C 
ENDBRANCH  18  21
ENDBRANCH  17  18
ENDBRANCH  14  17
ENDBRANCH  13  14
ENDBRANCH   1  13
TORSDOF 7
ENDMDL
