MODEL 1
REMARK VINA RESULT:      -4.5      0.000      0.000
REMARK  Name = Levocarnitine
REMARK  8 active torsions:
REMARK  status: ('A' for Active; 'I' for Inactive)
REMARK    1  A    between atoms: C_1  and  N_2
REMARK    2  A    between atoms: N_2  and  C_3
REMARK    3  A    between atoms: N_2  and  C_4
REMARK    4  A    between atoms: N_2  and  C_5
REMARK    5  A    between atoms: C_5  and  C_6
REMARK    6  A    between atoms: C_6  and  O_7
REMARK    7  A    between atoms: C_6  and  C_8
REMARK    8  A    between atoms: C_8  and  C_9
REMARK                            x       y       z     vdW  Elec       q    Type
REMARK                         _______ _______ _______ _____ _____    ______ ____
ROOT
ATOM      1  C   UNL     1     -11.766   6.316 130.440  0.00  0.00    +0.000 C 
ENDROOT
BRANCH   1   2
ATOM      2  O   UNL     1     -12.130   6.074 131.813  0.00  0.00    +0.000 OA
ATOM      3  H   UNL     1     -12.270   5.118 131.919  0.00  0.00    +0.000 HD
ENDBRANCH   1   2
BRANCH   1   4
ATOM      4  C   UNL     1     -11.902   7.825 130.099  0.00  0.00    +0.000 C 
BRANCH   4   6
ATOM      5  C   UNL     1     -13.292   6.944 128.168  0.00  0.00    +0.000 C 
ATOM      6  N   UNL     1     -12.422   8.080 128.655  0.00  0.00    +0.000 N 
ATOM      7  C   UNL     1     -11.231   8.277 127.730  0.00  0.00    +0.000 C 
ATOM      8  C   UNL     1     -13.238   9.360 128.688  0.00  0.00    +0.000 C 
ENDBRANCH   4   6
ENDBRANCH   1   4
BRANCH   1   9
ATOM      9  C   UNL     1     -10.352   5.816 130.246  0.00  0.00    +0.000 C 
BRANCH   9  10
ATOM     10  C   UNL     1      -9.353   6.675 131.011  0.00  0.00    +0.000 C 
ATOM     11  O   UNL     1      -9.381   6.551 132.272  0.00  0.00    +0.000 OA
ATOM     12  O   UNL     1      -8.590   7.351 130.287  0.00  0.00    +0.000 OA
ENDBRANCH   9  10
ENDBRANCH   1   9
TORSDOF 5
ENDMDL
MODEL 2
REMARK VINA RESULT:      -4.5      0.057      1.287
REMARK  Name = Levocarnitine
REMARK  8 active torsions:
REMARK  status: ('A' for Active; 'I' for Inactive)
REMARK    1  A    between atoms: C_1  and  N_2
REMARK    2  A    between atoms: N_2  and  C_3
REMARK    3  A    between atoms: N_2  and  C_4
REMARK    4  A    between atoms: N_2  and  C_5
REMARK    5  A    between atoms: C_5  and  C_6
REMARK    6  A    between atoms: C_6  and  O_7
REMARK    7  A    between atoms: C_6  and  C_8
REMARK    8  A    between atoms: C_8  and  C_9
REMARK                            x       y       z     vdW  Elec       q    Type
REMARK                         _______ _______ _______ _____ _____    ______ ____
ROOT
ATOM      1  C   UNL     1     -11.745   6.306 130.441  0.00  0.00    +0.000 C 
ENDROOT
BRANCH   1   2
ATOM      2  O   UNL     1     -12.126   6.056 131.808  0.00  0.00    +0.000 OA
ATOM      3  H   UNL     1     -12.146   5.093 131.938  0.00  0.00    +0.000 HD
ENDBRANCH   1   2
BRANCH   1   4
ATOM      4  C   UNL     1     -11.874   7.818 130.110  0.00  0.00    +0.000 C 
BRANCH   4   6
ATOM      5  C   UNL     1     -11.282   8.207 127.673  0.00  0.00    +0.000 C 
ATOM      6  N   UNL     1     -12.409   8.084 128.673  0.00  0.00    +0.000 N 
ATOM      7  C   UNL     1     -13.252   9.350 128.687  0.00  0.00    +0.000 C 
ATOM      8  C   UNL     1     -13.292   6.908 128.294  0.00  0.00    +0.000 C 
ENDBRANCH   4   6
ENDBRANCH   1   4
BRANCH   1   9
ATOM      9  C   UNL     1     -10.330   5.805 130.261  0.00  0.00    +0.000 C 
BRANCH   9  10
ATOM     10  C   UNL     1      -9.338   6.664 131.037  0.00  0.00    +0.000 C 
ATOM     11  O   UNL     1      -9.379   6.539 132.298  0.00  0.00    +0.000 OA
ATOM     12  O   UNL     1      -8.566   7.338 130.321  0.00  0.00    +0.000 OA
ENDBRANCH   9  10
ENDBRANCH   1   9
TORSDOF 5
ENDMDL
MODEL 3
REMARK VINA RESULT:      -4.5      2.766      4.105
REMARK  Name = Levocarnitine
REMARK  8 active torsions:
REMARK  status: ('A' for Active; 'I' for Inactive)
REMARK    1  A    between atoms: C_1  and  N_2
REMARK    2  A    between atoms: N_2  and  C_3
REMARK    3  A    between atoms: N_2  and  C_4
REMARK    4  A    between atoms: N_2  and  C_5
REMARK    5  A    between atoms: C_5  and  C_6
REMARK    6  A    between atoms: C_6  and  O_7
REMARK    7  A    between atoms: C_6  and  C_8
REMARK    8  A    between atoms: C_8  and  C_9
REMARK                            x       y       z     vdW  Elec       q    Type
REMARK                         _______ _______ _______ _____ _____    ______ ____
ROOT
ATOM      1  C   UNL     1     -11.677   8.122 128.727  0.00  0.00    +0.000 C 
ENDROOT
BRANCH   1   2
ATOM      2  O   UNL     1     -12.271   9.435 128.708  0.00  0.00    +0.000 OA
ATOM      3  H   UNL     1     -12.077   9.860 129.560  0.00  0.00    +0.000 HD
ENDBRANCH   1   2
BRANCH   1   4
ATOM      4  C   UNL     1     -12.185   7.313 129.952  0.00  0.00    +0.000 C 
BRANCH   4   6
ATOM      5  C   UNL     1     -11.253   6.463 132.154  0.00  0.00    +0.000 C 
ATOM      6  N   UNL     1     -11.060   6.500 130.655  0.00  0.00    +0.000 N 
ATOM      7  C   UNL     1      -9.714   7.115 130.303  0.00  0.00    +0.000 C 
ATOM      8  C   UNL     1     -11.114   5.085 130.106  0.00  0.00    +0.000 C 
ENDBRANCH   4   6
ENDBRANCH   1   4
BRANCH   1   9
ATOM      9  C   UNL     1     -12.018   7.445 127.419  0.00  0.00    +0.000 C 
BRANCH   9  10
ATOM     10  C   UNL     1     -10.796   7.343 126.515  0.00  0.00    +0.000 C 
ATOM     11  O   UNL     1      -9.921   6.499 126.875  0.00  0.00    +0.000 OA
ATOM     12  O   UNL     1     -10.843   8.066 125.496  0.00  0.00    +0.000 OA
ENDBRANCH   9  10
ENDBRANCH   1   9
TORSDOF 5
ENDMDL
MODEL 4
REMARK VINA RESULT:      -4.3      2.555      4.324
REMARK  Name = Levocarnitine
REMARK  8 active torsions:
REMARK  status: ('A' for Active; 'I' for Inactive)
REMARK    1  A    between atoms: C_1  and  N_2
REMARK    2  A    between atoms: N_2  and  C_3
REMARK    3  A    between atoms: N_2  and  C_4
REMARK    4  A    between atoms: N_2  and  C_5
REMARK    5  A    between atoms: C_5  and  C_6
REMARK    6  A    between atoms: C_6  and  O_7
REMARK    7  A    between atoms: C_6  and  C_8
REMARK    8  A    between atoms: C_8  and  C_9
REMARK                            x       y       z     vdW  Elec       q    Type
REMARK                         _______ _______ _______ _____ _____    ______ ____
ROOT
ATOM      1  C   UNL     1     -10.867   7.049 128.513  0.00  0.00    +0.000 C 
ENDROOT
BRANCH   1   2
ATOM      2  O   UNL     1      -9.831   6.591 127.623  0.00  0.00    +0.000 OA
ATOM      3  H   UNL     1      -9.760   5.627 127.722  0.00  0.00    +0.000 HD
ENDBRANCH   1   2
BRANCH   1   4
ATOM      4  C   UNL     1     -10.307   7.234 129.950  0.00  0.00    +0.000 C 
BRANCH   4   6
ATOM      5  C   UNL     1     -12.300   6.953 131.495  0.00  0.00    +0.000 C 
ATOM      6  N   UNL     1     -11.014   6.331 131.001  0.00  0.00    +0.000 N 
ATOM      7  C   UNL     1     -10.060   6.084 132.160  0.00  0.00    +0.000 C 
ATOM      8  C   UNL     1     -11.323   5.006 130.326  0.00  0.00    +0.000 C 
ENDBRANCH   4   6
ENDBRANCH   1   4
BRANCH   1   9
ATOM      9  C   UNL     1     -11.420   8.338 127.949  0.00  0.00    +0.000 C 
BRANCH   9  10
ATOM     10  C   UNL     1     -12.894   8.505 128.297  0.00  0.00    +0.000 C 
ATOM     11  O   UNL     1     -13.622   7.489 128.088  0.00  0.00    +0.000 OA
ATOM     12  O   UNL     1     -13.184   9.611 128.804  0.00  0.00    +0.000 OA
ENDBRANCH   9  10
ENDBRANCH   1   9
TORSDOF 5
ENDMDL
MODEL 5
REMARK VINA RESULT:      -4.2      2.530      4.175
REMARK  Name = Levocarnitine
REMARK  8 active torsions:
REMARK  status: ('A' for Active; 'I' for Inactive)
REMARK    1  A    between atoms: C_1  and  N_2
REMARK    2  A    between atoms: N_2  and  C_3
REMARK    3  A    between atoms: N_2  and  C_4
REMARK    4  A    between atoms: N_2  and  C_5
REMARK    5  A    between atoms: C_5  and  C_6
REMARK    6  A    between atoms: C_6  and  O_7
REMARK    7  A    between atoms: C_6  and  C_8
REMARK    8  A    between atoms: C_8  and  C_9
REMARK                            x       y       z     vdW  Elec       q    Type
REMARK                         _______ _______ _______ _____ _____    ______ ____
ROOT
ATOM      1  C   UNL     1     -12.350   6.943 130.272  0.00  0.00    +0.000 C 
ENDROOT
BRANCH   1   2
ATOM      2  O   UNL     1     -13.230   7.138 131.398  0.00  0.00    +0.000 OA
ATOM      3  H   UNL     1     -13.463   6.262 131.747  0.00  0.00    +0.000 HD
ENDBRANCH   1   2
BRANCH   1   4
ATOM      4  C   UNL     1     -11.553   5.620 130.429  0.00  0.00    +0.000 C 
BRANCH   4   6
ATOM      5  C   UNL     1     -10.020   5.943 132.426  0.00  0.00    +0.000 C 
ATOM      6  N   UNL     1     -10.093   5.843 130.920  0.00  0.00    +0.000 N 
ATOM      7  C   UNL     1      -9.542   7.105 130.272  0.00  0.00    +0.000 C 
ATOM      8  C   UNL     1      -9.273   4.652 130.454  0.00  0.00    +0.000 C 
ENDBRANCH   4   6
ENDBRANCH   1   4
BRANCH   1   9
ATOM      9  C   UNL     1     -13.199   6.949 129.021  0.00  0.00    +0.000 C 
BRANCH   9  10
ATOM     10  C   UNL     1     -12.415   7.477 127.826  0.00  0.00    +0.000 C 
ATOM     11  O   UNL     1     -11.908   8.630 127.972  0.00  0.00    +0.000 OA
ATOM     12  O   UNL     1     -12.321   6.673 126.872  0.00  0.00    +0.000 OA
ENDBRANCH   9  10
ENDBRANCH   1   9
TORSDOF 5
ENDMDL
MODEL 6
REMARK VINA RESULT:      -3.8      9.185     10.211
REMARK  Name = Levocarnitine
REMARK  8 active torsions:
REMARK  status: ('A' for Active; 'I' for Inactive)
REMARK    1  A    between atoms: C_1  and  N_2
REMARK    2  A    between atoms: N_2  and  C_3
REMARK    3  A    between atoms: N_2  and  C_4
REMARK    4  A    between atoms: N_2  and  C_5
REMARK    5  A    between atoms: C_5  and  C_6
REMARK    6  A    between atoms: C_6  and  O_7
REMARK    7  A    between atoms: C_6  and  C_8
REMARK    8  A    between atoms: C_8  and  C_9
REMARK                            x       y       z     vdW  Elec       q    Type
REMARK                         _______ _______ _______ _____ _____    ______ ____
ROOT
ATOM      1  C   UNL     1      -9.103   0.322 124.677  0.00  0.00    +0.000 C 
ENDROOT
BRANCH   1   2
ATOM      2  O   UNL     1     -10.396   0.941 124.528  0.00  0.00    +0.000 OA
ATOM      3  H   UNL     1     -10.415   1.728 125.099  0.00  0.00    +0.000 HD
ENDBRANCH   1   2
BRANCH   1   4
ATOM      4  C   UNL     1      -8.905  -0.785 123.606  0.00  0.00    +0.000 C 
BRANCH   4   6
ATOM      5  C   UNL     1      -7.188  -2.568 124.163  0.00  0.00    +0.000 C 
ATOM      6  N   UNL     1      -8.650  -2.191 124.221  0.00  0.00    +0.000 N 
ATOM      7  C   UNL     1      -9.496  -3.215 123.478  0.00  0.00    +0.000 C 
ATOM      8  C   UNL     1      -9.100  -2.139 125.670  0.00  0.00    +0.000 C 
ENDBRANCH   4   6
ENDBRANCH   1   4
BRANCH   1   9
ATOM      9  C   UNL     1      -8.058   1.409 124.570  0.00  0.00    +0.000 C 
BRANCH   9  10
ATOM     10  C   UNL     1      -8.668   2.712 124.065  0.00  0.00    +0.000 C 
ATOM     11  O   UNL     1      -8.894   2.761 122.819  0.00  0.00    +0.000 OA
ATOM     12  O   UNL     1      -8.925   3.545 124.962  0.00  0.00    +0.000 OA
ENDBRANCH   9  10
ENDBRANCH   1   9
TORSDOF 5
ENDMDL
MODEL 7
REMARK VINA RESULT:      -3.8      9.983     10.642
REMARK  Name = Levocarnitine
REMARK  8 active torsions:
REMARK  status: ('A' for Active; 'I' for Inactive)
REMARK    1  A    between atoms: C_1  and  N_2
REMARK    2  A    between atoms: N_2  and  C_3
REMARK    3  A    between atoms: N_2  and  C_4
REMARK    4  A    between atoms: N_2  and  C_5
REMARK    5  A    between atoms: C_5  and  C_6
REMARK    6  A    between atoms: C_6  and  O_7
REMARK    7  A    between atoms: C_6  and  C_8
REMARK    8  A    between atoms: C_8  and  C_9
REMARK                            x       y       z     vdW  Elec       q    Type
REMARK                         _______ _______ _______ _____ _____    ______ ____
ROOT
ATOM      1  C   UNL     1      -8.892  -0.566 123.641  0.00  0.00    +0.000 C 
ENDROOT
BRANCH   1   2
ATOM      2  O   UNL     1      -9.420  -1.050 124.892  0.00  0.00    +0.000 OA
ATOM      3  H   UNL     1      -9.980  -0.350 125.267  0.00  0.00    +0.000 HD
ENDBRANCH   1   2
BRANCH   1   4
ATOM      4  C   UNL     1      -7.704   0.402 123.891  0.00  0.00    +0.000 C 
BRANCH   4   6
ATOM      5  C   UNL     1      -6.959   2.618 122.902  0.00  0.00    +0.000 C 
ATOM      6  N   UNL     1      -8.067   1.893 123.632  0.00  0.00    +0.000 N 
ATOM      7  C   UNL     1      -8.361   2.568 124.964  0.00  0.00    +0.000 C 
ATOM      8  C   UNL     1      -9.326   1.911 122.782  0.00  0.00    +0.000 C 
ENDBRANCH   4   6
ENDBRANCH   1   4
BRANCH   1   9
ATOM      9  C   UNL     1      -8.482  -1.768 122.821  0.00  0.00    +0.000 C 
BRANCH   9  10
ATOM     10  C   UNL     1      -8.872  -3.068 123.514  0.00  0.00    +0.000 C 
ATOM     11  O   UNL     1      -7.974  -3.587 124.243  0.00  0.00    +0.000 OA
ATOM     12  O   UNL     1     -10.056  -3.422 123.322  0.00  0.00    +0.000 OA
ENDBRANCH   9  10
ENDBRANCH   1   9
TORSDOF 5
ENDMDL
MODEL 8
REMARK VINA RESULT:      -3.8      2.829      4.893
REMARK  Name = Levocarnitine
REMARK  8 active torsions:
REMARK  status: ('A' for Active; 'I' for Inactive)
REMARK    1  A    between atoms: C_1  and  N_2
REMARK    2  A    between atoms: N_2  and  C_3
REMARK    3  A    between atoms: N_2  and  C_4
REMARK    4  A    between atoms: N_2  and  C_5
REMARK    5  A    between atoms: C_5  and  C_6
REMARK    6  A    between atoms: C_6  and  O_7
REMARK    7  A    between atoms: C_6  and  C_8
REMARK    8  A    between atoms: C_8  and  C_9
REMARK                            x       y       z     vdW  Elec       q    Type
REMARK                         _______ _______ _______ _____ _____    ______ ____
ROOT
ATOM      1  C   UNL     1     -10.732   6.270 131.499  0.00  0.00    +0.000 C 
ENDROOT
BRANCH   1   2
ATOM      2  O   UNL     1     -12.055   6.127 132.053  0.00  0.00    +0.000 OA
ATOM      3  H   UNL     1     -12.031   5.395 132.692  0.00  0.00    +0.000 HD
ENDBRANCH   1   2
BRANCH   1   4
ATOM      4  C   UNL     1     -10.072   4.878 131.302  0.00  0.00    +0.000 C 
BRANCH   4   6
ATOM      5  C   UNL     1      -7.751   3.882 131.547  0.00  0.00    +0.000 C 
ATOM      6  N   UNL     1      -8.857   4.641 132.244  0.00  0.00    +0.000 N 
ATOM      7  C   UNL     1      -9.330   3.884 133.477  0.00  0.00    +0.000 C 
ATOM      8  C   UNL     1      -8.341   6.004 132.671  0.00  0.00    +0.000 C 
ENDBRANCH   4   6
ENDBRANCH   1   4
BRANCH   1   9
ATOM      9  C   UNL     1     -10.860   7.027 130.196  0.00  0.00    +0.000 C 
BRANCH   9  10
ATOM     10  C   UNL     1     -12.316   7.357 129.891  0.00  0.00    +0.000 C 
ATOM     11  O   UNL     1     -12.712   8.494 130.287  0.00  0.00    +0.000 OA
ATOM     12  O   UNL     1     -12.918   6.481 129.231  0.00  0.00    +0.000 OA
ENDBRANCH   9  10
ENDBRANCH   1   9
TORSDOF 5
ENDMDL
MODEL 9
REMARK VINA RESULT:      -3.7      7.890      8.732
REMARK  Name = Levocarnitine
REMARK  8 active torsions:
REMARK  status: ('A' for Active; 'I' for Inactive)
REMARK    1  A    between atoms: C_1  and  N_2
REMARK    2  A    between atoms: N_2  and  C_3
REMARK    3  A    between atoms: N_2  and  C_4
REMARK    4  A    between atoms: N_2  and  C_5
REMARK    5  A    between atoms: C_5  and  C_6
REMARK    6  A    between atoms: C_6  and  O_7
REMARK    7  A    between atoms: C_6  and  C_8
REMARK    8  A    between atoms: C_8  and  C_9
REMARK                            x       y       z     vdW  Elec       q    Type
REMARK                         _______ _______ _______ _____ _____    ______ ____
ROOT
ATOM      1  C   UNL     1      -7.753   2.937 124.671  0.00  0.00    +0.000 C 
ENDROOT
BRANCH   1   2
ATOM      2  O   UNL     1      -8.414   4.185 124.384  0.00  0.00    +0.000 OA
ATOM      3  H   UNL     1      -8.992   4.394 125.136  0.00  0.00    +0.000 HD
ENDBRANCH   1   2
BRANCH   1   4
ATOM      4  C   UNL     1      -7.917   1.950 123.484  0.00  0.00    +0.000 C 
BRANCH   4   6
ATOM      5  C   UNL     1      -9.480   0.895 125.182  0.00  0.00    +0.000 C 
ATOM      6  N   UNL     1      -8.892   0.778 123.794  0.00  0.00    +0.000 N 
ATOM      7  C   UNL     1      -8.147  -0.539 123.638  0.00  0.00    +0.000 C 
ATOM      8  C   UNL     1     -10.010   0.836 122.768  0.00  0.00    +0.000 C 
ENDBRANCH   4   6
ENDBRANCH   1   4
BRANCH   1   9
ATOM      9  C   UNL     1      -6.300   3.243 124.959  0.00  0.00    +0.000 C 
BRANCH   9  10
ATOM     10  C   UNL     1      -5.940   4.659 124.528  0.00  0.00    +0.000 C 
ATOM     11  O   UNL     1      -5.581   4.787 123.319  0.00  0.00    +0.000 OA
ATOM     12  O   UNL     1      -6.104   5.527 125.414  0.00  0.00    +0.000 OA
ENDBRANCH   9  10
ENDBRANCH   1   9
TORSDOF 5
ENDMDL
