MODEL 1
REMARK VINA RESULT:      -7.9      0.000      0.000
REMARK  Name = Levoleucovorin
REMARK  11 active torsions:
REMARK  status: ('A' for Active; 'I' for Inactive)
REMARK    1  A    between atoms: C_10  and  C_11
REMARK    2  A    between atoms: C_11  and  N_12
REMARK    3  A    between atoms: N_12  and  C_13
REMARK    4  A    between atoms: C_16  and  C_19
REMARK    5  A    between atoms: N_21  and  CA_22
REMARK    6  A    between atoms: CA_22  and  CB_23
REMARK    7  A    between atoms: CA_22  and  C_28
REMARK    8  A    between atoms: CB_23  and  CG_24
REMARK    9  A    between atoms: CG_24  and  CD_25
REMARK   10  A    between atoms: CD_25  and  OE1_26
REMARK   11  A    between atoms: C_28  and  O_29
REMARK                            x       y       z     vdW  Elec       q    Type
REMARK                         _______ _______ _______ _____ _____    ______ ____
ROOT
ATOM      1  N   UNK A   0      -5.682   1.418 128.986  0.00  0.00    +0.000 N 
ATOM      2  H   UNK A   0      -4.739   1.800 129.005  0.00  0.00    +0.000 HD
ENDROOT
BRANCH   1   3
ATOM      3  C   UNK A   0      -6.709   2.276 129.343  0.00  0.00    +0.000 A 
ATOM      4  C   UNK A   0      -7.949   1.794 129.770  0.00  0.00    +0.000 A 
ATOM      5  C   UNK A   0      -9.002   2.677 130.029  0.00  0.00    +0.000 A 
ATOM      6  C   UNK A   0      -8.825   4.056 129.851  0.00  0.00    +0.000 A 
ATOM      7  C   UNK A   0      -7.563   4.546 129.519  0.00  0.00    +0.000 A 
ATOM      8  C   UNK A   0      -6.519   3.659 129.280  0.00  0.00    +0.000 A 
BRANCH   6   9
ATOM      9  C   UNK A   0     -10.018   4.937 129.958  0.00  0.00    +0.000 C 
ATOM     10  O   UNK A   0     -11.134   4.442 129.875  0.00  0.00    +0.000 OA
ATOM     11  N   GLU A   1      -9.800   6.289 130.170  0.00  0.00    +0.000 N 
ATOM     12  H   GLU A   1      -8.859   6.611 130.097  0.00  0.00    +0.000 HD
BRANCH  11  13
ATOM     13  CA  GLU A   1     -10.885   7.234 130.482  0.00  0.00    +0.000 C 
BRANCH  13  14
ATOM     14  C   GLU A   1     -11.877   6.771 131.582  0.00  0.00    +0.000 C 
ATOM     15  OXT GLU A   1     -13.073   7.033 131.545  0.00  0.00    +0.000 OA
BRANCH  14  16
ATOM     16  O   GLU A   1     -11.392   5.999 132.579  0.00  0.00    +0.000 OA
ATOM     17  H   GLU A   1     -12.003   5.643 133.237  0.00  0.00    +0.000 HD
ENDBRANCH  14  16
ENDBRANCH  13  14
BRANCH  13  18
ATOM     18  CB  GLU A   1     -11.745   7.557 129.232  0.00  0.00    +0.000 C 
BRANCH  18  19
ATOM     19  CG  GLU A   1     -10.948   8.007 128.010  0.00  0.00    +0.000 C 
BRANCH  19  20
ATOM     20  CD  GLU A   1     -10.690   7.035 126.894  0.00  0.00    +0.000 C 
ATOM     21  OE2 GLU A   1      -9.671   6.359 126.852  0.00  0.00    +0.000 OA
BRANCH  20  22
ATOM     22  OE1 GLU A   1     -11.668   6.894 125.985  0.00  0.00    +0.000 OA
ATOM     23  HE1 GLU A   1     -11.747   7.607 125.329  0.00  0.00    +0.000 HD
ENDBRANCH  20  22
ENDBRANCH  19  20
ENDBRANCH  18  19
ENDBRANCH  13  18
ENDBRANCH  11  13
ENDBRANCH   6   9
ENDBRANCH   1   3
BRANCH   1  24
ATOM     24  C   UNK A   0      -5.949   0.368 128.007  0.00  0.00    +0.000 C 
BRANCH  24  34
ATOM     25  N   UNK A   0     -10.804   1.633 123.961  0.00  0.00    +0.000 N 
ATOM     26  C   UNK A   0      -9.565   1.774 124.471  0.00  0.00    +0.000 A 
ATOM     27  N   UNK A   0      -9.090   2.959 124.658  0.00  0.00    +0.000 NA
ATOM     28  C   UNK A   0      -7.834   3.093 125.201  0.00  0.00    +0.000 A 
ATOM     29  O   UNK A   0      -7.392   4.205 125.492  0.00  0.00    +0.000 OA
ATOM     30  C   UNK A   0      -7.007   1.849 125.462  0.00  0.00    +0.000 A 
ATOM     31  C   UNK A   0      -7.600   0.647 125.192  0.00  0.00    +0.000 A 
ATOM     32  N   UNK A   0      -6.888  -0.539 125.343  0.00  0.00    +0.000 N 
ATOM     33  C   UNK A   0      -5.464  -0.504 125.675  0.00  0.00    +0.000 C 
ATOM     34  C   UNK A   0      -5.223   0.648 126.663  0.00  0.00    +0.000 C 
ATOM     35  N   UNK A   0      -5.714   1.903 126.031  0.00  0.00    +0.000 N 
ATOM     36  C   UNK A   0      -4.890   3.016 126.074  0.00  0.00    +0.000 C 
ATOM     37  O   UNK A   0      -3.782   3.042 126.603  0.00  0.00    +0.000 OA
ATOM     38  N   UNK A   0      -8.898   0.630 124.755  0.00  0.00    +0.000 N 
ATOM     39  H   UNK A   0     -11.306   2.488 123.748  0.00  0.00    +0.000 HD
ATOM     40  H   UNK A   0     -11.253   0.759 123.742  0.00  0.00    +0.000 HD
ATOM     41  H   UNK A   0      -7.401  -1.403 125.477  0.00  0.00    +0.000 HD
ATOM     42  H   UNK A   0      -9.290  -0.265 124.510  0.00  0.00    +0.000 HD
ENDBRANCH  24  34
ENDBRANCH   1  24
TORSDOF 11
ENDMDL
MODEL 2
REMARK VINA RESULT:      -7.8      3.883      5.734
REMARK  Name = Levoleucovorin
REMARK  11 active torsions:
REMARK  status: ('A' for Active; 'I' for Inactive)
REMARK    1  A    between atoms: C_10  and  C_11
REMARK    2  A    between atoms: C_11  and  N_12
REMARK    3  A    between atoms: N_12  and  C_13
REMARK    4  A    between atoms: C_16  and  C_19
REMARK    5  A    between atoms: N_21  and  CA_22
REMARK    6  A    between atoms: CA_22  and  CB_23
REMARK    7  A    between atoms: CA_22  and  C_28
REMARK    8  A    between atoms: CB_23  and  CG_24
REMARK    9  A    between atoms: CG_24  and  CD_25
REMARK   10  A    between atoms: CD_25  and  OE1_26
REMARK   11  A    between atoms: C_28  and  O_29
REMARK                            x       y       z     vdW  Elec       q    Type
REMARK                         _______ _______ _______ _____ _____    ______ ____
ROOT
ATOM      1  N   UNK A   0      -7.609   0.586 131.841  0.00  0.00    +0.000 N 
ATOM      2  H   UNK A   0      -6.884   0.613 132.555  0.00  0.00    +0.000 HD
ENDROOT
BRANCH   1   3
ATOM      3  C   UNK A   0      -8.335   1.749 131.647  0.00  0.00    +0.000 A 
ATOM      4  C   UNK A   0      -8.660   2.201 130.365  0.00  0.00    +0.000 A 
ATOM      5  C   UNK A   0      -9.306   3.430 130.190  0.00  0.00    +0.000 A 
ATOM      6  C   UNK A   0      -9.623   4.224 131.300  0.00  0.00    +0.000 A 
ATOM      7  C   UNK A   0      -9.387   3.732 132.583  0.00  0.00    +0.000 A 
ATOM      8  C   UNK A   0      -8.759   2.501 132.745  0.00  0.00    +0.000 A 
BRANCH   6   9
ATOM      9  C   UNK A   0     -10.139   5.597 131.058  0.00  0.00    +0.000 C 
ATOM     10  O   UNK A   0      -9.614   6.541 131.633  0.00  0.00    +0.000 OA
ATOM     11  N   GLU A   1     -11.189   5.739 130.166  0.00  0.00    +0.000 N 
ATOM     12  H   GLU A   1     -11.628   4.901 129.848  0.00  0.00    +0.000 HD
BRANCH  11  13
ATOM     13  CA  GLU A   1     -11.666   7.050 129.695  0.00  0.00    +0.000 C 
BRANCH  13  14
ATOM     14  C   GLU A   1     -12.668   7.772 130.635  0.00  0.00    +0.000 C 
ATOM     15  OXT GLU A   1     -13.218   7.207 131.572  0.00  0.00    +0.000 OA
BRANCH  14  16
ATOM     16  O   GLU A   1     -12.881   9.090 130.430  0.00  0.00    +0.000 OA
ATOM     17  H   GLU A   1     -12.126   9.692 130.421  0.00  0.00    +0.000 HD
ENDBRANCH  14  16
ENDBRANCH  13  14
BRANCH  13  18
ATOM     18  CB  GLU A   1     -12.364   6.947 128.313  0.00  0.00    +0.000 C 
BRANCH  18  19
ATOM     19  CG  GLU A   1     -11.884   7.963 127.280  0.00  0.00    +0.000 C 
BRANCH  19  20
ATOM     20  CD  GLU A   1     -10.908   7.539 126.220  0.00  0.00    +0.000 C 
ATOM     21  OE2 GLU A   1     -10.219   6.536 126.345  0.00  0.00    +0.000 OA
BRANCH  20  22
ATOM     22  OE1 GLU A   1     -10.884   8.277 125.099  0.00  0.00    +0.000 OA
ATOM     23  HE1 GLU A   1     -10.800   9.238 125.222  0.00  0.00    +0.000 HD
ENDBRANCH  20  22
ENDBRANCH  19  20
ENDBRANCH  18  19
ENDBRANCH  13  18
ENDBRANCH  11  13
ENDBRANCH   6   9
ENDBRANCH   1   3
BRANCH   1  24
ATOM     24  C   UNK A   0      -7.380  -0.302 130.704  0.00  0.00    +0.000 C 
BRANCH  24  34
ATOM     25  N   UNK A   0      -2.448  -4.011 128.847  0.00  0.00    +0.000 N 
ATOM     26  C   UNK A   0      -3.494  -3.659 129.620  0.00  0.00    +0.000 A 
ATOM     27  N   UNK A   0      -3.385  -3.735 130.904  0.00  0.00    +0.000 NA
ATOM     28  C   UNK A   0      -4.450  -3.351 131.684  0.00  0.00    +0.000 A 
ATOM     29  O   UNK A   0      -4.346  -3.310 132.911  0.00  0.00    +0.000 OA
ATOM     30  C   UNK A   0      -5.751  -2.954 131.013  0.00  0.00    +0.000 A 
ATOM     31  C   UNK A   0      -5.761  -2.944 129.646  0.00  0.00    +0.000 A 
ATOM     32  N   UNK A   0      -6.932  -2.653 128.953  0.00  0.00    +0.000 N 
ATOM     33  C   UNK A   0      -8.190  -2.475 129.677  0.00  0.00    +0.000 C 
ATOM     34  C   UNK A   0      -7.893  -1.738 130.993  0.00  0.00    +0.000 C 
ATOM     35  N   UNK A   0      -6.885  -2.534 131.745  0.00  0.00    +0.000 N 
ATOM     36  C   UNK A   0      -7.119  -2.773 133.089  0.00  0.00    +0.000 C 
ATOM     37  O   UNK A   0      -8.100  -2.368 133.708  0.00  0.00    +0.000 OA
ATOM     38  N   UNK A   0      -4.606  -3.242 128.971  0.00  0.00    +0.000 N 
ATOM     39  H   UNK A   0      -1.613  -4.324 129.331  0.00  0.00    +0.000 HD
ATOM     40  H   UNK A   0      -2.439  -4.025 127.841  0.00  0.00    +0.000 HD
ATOM     41  H   UNK A   0      -6.865  -2.317 127.999  0.00  0.00    +0.000 HD
ATOM     42  H   UNK A   0      -4.659  -3.282 127.966  0.00  0.00    +0.000 HD
ENDBRANCH  24  34
ENDBRANCH   1  24
TORSDOF 11
ENDMDL
MODEL 3
REMARK VINA RESULT:      -7.8      2.188      2.776
REMARK  Name = Levoleucovorin
REMARK  11 active torsions:
REMARK  status: ('A' for Active; 'I' for Inactive)
REMARK    1  A    between atoms: C_10  and  C_11
REMARK    2  A    between atoms: C_11  and  N_12
REMARK    3  A    between atoms: N_12  and  C_13
REMARK    4  A    between atoms: C_16  and  C_19
REMARK    5  A    between atoms: N_21  and  CA_22
REMARK    6  A    between atoms: CA_22  and  CB_23
REMARK    7  A    between atoms: CA_22  and  C_28
REMARK    8  A    between atoms: CB_23  and  CG_24
REMARK    9  A    between atoms: CG_24  and  CD_25
REMARK   10  A    between atoms: CD_25  and  OE1_26
REMARK   11  A    between atoms: C_28  and  O_29
REMARK                            x       y       z     vdW  Elec       q    Type
REMARK                         _______ _______ _______ _____ _____    ______ ____
ROOT
ATOM      1  N   UNK A   0      -7.802   0.201 130.061  0.00  0.00    +0.000 N 
ATOM      2  H   UNK A   0      -6.980  -0.132 130.561  0.00  0.00    +0.000 HD
ENDROOT
BRANCH   1   3
ATOM      3  C   UNK A   0      -8.271   1.459 130.403  0.00  0.00    +0.000 A 
ATOM      4  C   UNK A   0      -9.017   1.669 131.566  0.00  0.00    +0.000 A 
ATOM      5  C   UNK A   0      -9.564   2.926 131.839  0.00  0.00    +0.000 A 
ATOM      6  C   UNK A   0      -9.378   3.986 130.941  0.00  0.00    +0.000 A 
ATOM      7  C   UNK A   0      -8.555   3.805 129.831  0.00  0.00    +0.000 A 
ATOM      8  C   UNK A   0      -8.002   2.554 129.578  0.00  0.00    +0.000 A 
BRANCH   6   9
ATOM      9  C   UNK A   0     -10.128   5.248 131.177  0.00  0.00    +0.000 C 
ATOM     10  O   UNK A   0     -10.197   5.696 132.315  0.00  0.00    +0.000 OA
ATOM     11  N   GLU A   1     -10.701   5.870 130.080  0.00  0.00    +0.000 N 
ATOM     12  H   GLU A   1     -10.696   5.362 129.221  0.00  0.00    +0.000 HD
BRANCH  11  13
ATOM     13  CA  GLU A   1     -11.303   7.211 130.146  0.00  0.00    +0.000 C 
BRANCH  13  14
ATOM     14  C   GLU A   1     -12.854   7.244 130.185  0.00  0.00    +0.000 C 
ATOM     15  OXT GLU A   1     -13.540   7.229 129.170  0.00  0.00    +0.000 OA
BRANCH  14  16
ATOM     16  O   GLU A   1     -13.451   7.229 131.396  0.00  0.00    +0.000 OA
ATOM     17  H   GLU A   1     -14.391   7.446 131.460  0.00  0.00    +0.000 HD
ENDBRANCH  14  16
ENDBRANCH  13  14
BRANCH  13  18
ATOM     18  CB  GLU A   1     -10.881   8.092 128.941  0.00  0.00    +0.000 C 
BRANCH  18  19
ATOM     19  CG  GLU A   1     -10.415   7.313 127.714  0.00  0.00    +0.000 C 
BRANCH  19  20
ATOM     20  CD  GLU A   1     -11.215   7.379 126.445  0.00  0.00    +0.000 C 
ATOM     21  OE2 GLU A   1     -10.839   8.031 125.480  0.00  0.00    +0.000 OA
BRANCH  20  22
ATOM     22  OE1 GLU A   1     -12.327   6.628 126.398  0.00  0.00    +0.000 OA
ATOM     23  HE1 GLU A   1     -12.773   6.472 127.248  0.00  0.00    +0.000 HD
ENDBRANCH  20  22
ENDBRANCH  19  20
ENDBRANCH  18  19
ENDBRANCH  13  18
ENDBRANCH  11  13
ENDBRANCH   6   9
ENDBRANCH   1   3
BRANCH   1  24
ATOM     24  C   UNK A   0      -7.973  -0.267 128.688  0.00  0.00    +0.000 C 
BRANCH  24  34
ATOM     25  N   UNK A   0      -9.936  -3.536 123.492  0.00  0.00    +0.000 N 
ATOM     26  C   UNK A   0      -9.096  -2.765 124.210  0.00  0.00    +0.000 A 
ATOM     27  N   UNK A   0      -8.561  -1.729 123.657  0.00  0.00    +0.000 NA
ATOM     28  C   UNK A   0      -7.725  -0.934 124.405  0.00  0.00    +0.000 A 
ATOM     29  O   UNK A   0      -7.281   0.118 123.944  0.00  0.00    +0.000 OA
ATOM     30  C   UNK A   0      -7.373  -1.359 125.818  0.00  0.00    +0.000 A 
ATOM     31  C   UNK A   0      -7.973  -2.495 126.288  0.00  0.00    +0.000 A 
ATOM     32  N   UNK A   0      -7.656  -2.987 127.550  0.00  0.00    +0.000 N 
ATOM     33  C   UNK A   0      -6.591  -2.365 128.337  0.00  0.00    +0.000 C 
ATOM     34  C   UNK A   0      -6.650  -0.845 128.116  0.00  0.00    +0.000 C 
ATOM     35  N   UNK A   0      -6.533  -0.589 126.655  0.00  0.00    +0.000 N 
ATOM     36  C   UNK A   0      -5.643   0.387 126.237  0.00  0.00    +0.000 C 
ATOM     37  O   UNK A   0      -4.946   1.063 126.989  0.00  0.00    +0.000 OA
ATOM     38  N   UNK A   0      -8.875  -3.148 125.490  0.00  0.00    +0.000 N 
ATOM     39  H   UNK A   0     -10.103  -3.251 122.533  0.00  0.00    +0.000 HD
ATOM     40  H   UNK A   0     -10.375  -4.383 123.814  0.00  0.00    +0.000 HD
ATOM     41  H   UNK A   0      -8.319  -3.595 128.018  0.00  0.00    +0.000 HD
ATOM     42  H   UNK A   0      -9.257  -4.012 125.840  0.00  0.00    +0.000 HD
ENDBRANCH  24  34
ENDBRANCH   1  24
TORSDOF 11
ENDMDL
MODEL 4
REMARK VINA RESULT:      -7.6      2.208      3.459
REMARK  Name = Levoleucovorin
REMARK  11 active torsions:
REMARK  status: ('A' for Active; 'I' for Inactive)
REMARK    1  A    between atoms: C_10  and  C_11
REMARK    2  A    between atoms: C_11  and  N_12
REMARK    3  A    between atoms: N_12  and  C_13
REMARK    4  A    between atoms: C_16  and  C_19
REMARK    5  A    between atoms: N_21  and  CA_22
REMARK    6  A    between atoms: CA_22  and  CB_23
REMARK    7  A    between atoms: CA_22  and  C_28
REMARK    8  A    between atoms: CB_23  and  CG_24
REMARK    9  A    between atoms: CG_24  and  CD_25
REMARK   10  A    between atoms: CD_25  and  OE1_26
REMARK   11  A    between atoms: C_28  and  O_29
REMARK                            x       y       z     vdW  Elec       q    Type
REMARK                         _______ _______ _______ _____ _____    ______ ____
ROOT
ATOM      1  N   UNK A   0      -6.474   0.814 129.446  0.00  0.00    +0.000 N 
ATOM      2  H   UNK A   0      -5.605   0.871 129.973  0.00  0.00    +0.000 HD
ENDROOT
BRANCH   1   3
ATOM      3  C   UNK A   0      -7.258   1.955 129.412  0.00  0.00    +0.000 A 
ATOM      4  C   UNK A   0      -6.740   3.185 128.997  0.00  0.00    +0.000 A 
ATOM      5  C   UNK A   0      -7.522   4.343 129.066  0.00  0.00    +0.000 A 
ATOM      6  C   UNK A   0      -8.830   4.281 129.566  0.00  0.00    +0.000 A 
ATOM      7  C   UNK A   0      -9.380   3.042 129.889  0.00  0.00    +0.000 A 
ATOM      8  C   UNK A   0      -8.598   1.895 129.800  0.00  0.00    +0.000 A 
BRANCH   6   9
ATOM      9  C   UNK A   0      -9.557   5.558 129.794  0.00  0.00    +0.000 C 
ATOM     10  O   UNK A   0      -8.917   6.596 129.901  0.00  0.00    +0.000 OA
ATOM     11  N   GLU A   1     -10.940   5.508 129.853  0.00  0.00    +0.000 N 
ATOM     12  H   GLU A   1     -11.358   4.602 129.881  0.00  0.00    +0.000 HD
BRANCH  11  13
ATOM     13  CA  GLU A   1     -11.782   6.714 129.884  0.00  0.00    +0.000 C 
BRANCH  13  14
ATOM     14  C   GLU A   1     -12.394   7.065 131.266  0.00  0.00    +0.000 C 
ATOM     15  OXT GLU A   1     -13.098   8.052 131.445  0.00  0.00    +0.000 OA
BRANCH  14  16
ATOM     16  O   GLU A   1     -12.177   6.205 132.284  0.00  0.00    +0.000 OA
ATOM     17  H   GLU A   1     -12.774   5.455 132.401  0.00  0.00    +0.000 HD
ENDBRANCH  14  16
ENDBRANCH  13  14
BRANCH  13  18
ATOM     18  CB  GLU A   1     -12.974   6.611 128.896  0.00  0.00    +0.000 C 
BRANCH  18  19
ATOM     19  CG  GLU A   1     -12.731   7.256 127.535  0.00  0.00    +0.000 C 
BRANCH  19  20
ATOM     20  CD  GLU A   1     -11.325   7.526 127.082  0.00  0.00    +0.000 C 
ATOM     21  OE2 GLU A   1     -10.690   6.707 126.432  0.00  0.00    +0.000 OA
BRANCH  20  22
ATOM     22  OE1 GLU A   1     -10.827   8.741 127.366  0.00  0.00    +0.000 OA
ATOM     23  HE1 GLU A   1      -9.859   8.822 127.336  0.00  0.00    +0.000 HD
ENDBRANCH  20  22
ENDBRANCH  19  20
ENDBRANCH  18  19
ENDBRANCH  13  18
ENDBRANCH  11  13
ENDBRANCH   6   9
ENDBRANCH   1   3
BRANCH   1  24
ATOM     24  C   UNK A   0      -6.489  -0.087 128.296  0.00  0.00    +0.000 C 
BRANCH  24  34
ATOM     25  N   UNK A   0      -5.098  -4.443 123.755  0.00  0.00    +0.000 N 
ATOM     26  C   UNK A   0      -5.779  -3.417 124.301  0.00  0.00    +0.000 A 
ATOM     27  N   UNK A   0      -7.069  -3.414 124.249  0.00  0.00    +0.000 NA
ATOM     28  C   UNK A   0      -7.755  -2.375 124.831  0.00  0.00    +0.000 A 
ATOM     29  O   UNK A   0      -8.985  -2.392 124.893  0.00  0.00    +0.000 OA
ATOM     30  C   UNK A   0      -6.975  -1.215 125.419  0.00  0.00    +0.000 A 
ATOM     31  C   UNK A   0      -5.611  -1.309 125.387  0.00  0.00    +0.000 A 
ATOM     32  N   UNK A   0      -4.823  -0.260 125.848  0.00  0.00    +0.000 N 
ATOM     33  C   UNK A   0      -5.442   1.001 126.258  0.00  0.00    +0.000 C 
ATOM     34  C   UNK A   0      -6.763   0.683 126.976  0.00  0.00    +0.000 C 
ATOM     35  N   UNK A   0      -7.608  -0.117 126.047  0.00  0.00    +0.000 N 
ATOM     36  C   UNK A   0      -8.933   0.255 125.893  0.00  0.00    +0.000 C 
ATOM     37  O   UNK A   0      -9.464   1.197 126.476  0.00  0.00    +0.000 OA
ATOM     38  N   UNK A   0      -5.036  -2.444 124.879  0.00  0.00    +0.000 N 
ATOM     39  H   UNK A   0      -5.653  -5.174 123.322  0.00  0.00    +0.000 HD
ATOM     40  H   UNK A   0      -4.096  -4.524 123.708  0.00  0.00    +0.000 HD
ATOM     41  H   UNK A   0      -3.871  -0.454 126.138  0.00  0.00    +0.000 HD
ATOM     42  H   UNK A   0      -4.031  -2.461 124.816  0.00  0.00    +0.000 HD
ENDBRANCH  24  34
ENDBRANCH   1  24
TORSDOF 11
ENDMDL
MODEL 5
REMARK VINA RESULT:      -7.5      2.845      3.776
REMARK  Name = Levoleucovorin
REMARK  11 active torsions:
REMARK  status: ('A' for Active; 'I' for Inactive)
REMARK    1  A    between atoms: C_10  and  C_11
REMARK    2  A    between atoms: C_11  and  N_12
REMARK    3  A    between atoms: N_12  and  C_13
REMARK    4  A    between atoms: C_16  and  C_19
REMARK    5  A    between atoms: N_21  and  CA_22
REMARK    6  A    between atoms: CA_22  and  CB_23
REMARK    7  A    between atoms: CA_22  and  C_28
REMARK    8  A    between atoms: CB_23  and  CG_24
REMARK    9  A    between atoms: CG_24  and  CD_25
REMARK   10  A    between atoms: CD_25  and  OE1_26
REMARK   11  A    between atoms: C_28  and  O_29
REMARK                            x       y       z     vdW  Elec       q    Type
REMARK                         _______ _______ _______ _____ _____    ______ ____
ROOT
ATOM      1  N   UNK A   0      -7.821   0.674 132.306  0.00  0.00    +0.000 N 
ATOM      2  H   UNK A   0      -6.884   0.812 132.681  0.00  0.00    +0.000 HD
ENDROOT
BRANCH   1   3
ATOM      3  C   UNK A   0      -8.545   1.816 132.006  0.00  0.00    +0.000 A 
ATOM      4  C   UNK A   0      -9.050   2.044 130.723  0.00  0.00    +0.000 A 
ATOM      5  C   UNK A   0      -9.692   3.249 130.419  0.00  0.00    +0.000 A 
ATOM      6  C   UNK A   0      -9.823   4.245 131.397  0.00  0.00    +0.000 A 
ATOM      7  C   UNK A   0      -9.407   3.981 132.701  0.00  0.00    +0.000 A 
ATOM      8  C   UNK A   0      -8.785   2.772 132.995  0.00  0.00    +0.000 A 
BRANCH   6   9
ATOM      9  C   UNK A   0     -10.344   5.574 130.981  0.00  0.00    +0.000 C 
ATOM     10  O   UNK A   0      -9.706   6.579 131.267  0.00  0.00    +0.000 OA
ATOM     11  N   GLU A   1     -11.529   5.604 130.265  0.00  0.00    +0.000 N 
ATOM     12  H   GLU A   1     -12.034   4.746 130.193  0.00  0.00    +0.000 HD
BRANCH  11  13
ATOM     13  CA  GLU A   1     -12.051   6.827 129.634  0.00  0.00    +0.000 C 
BRANCH  13  14
ATOM     14  C   GLU A   1     -12.734   7.834 130.597  0.00  0.00    +0.000 C 
ATOM     15  OXT GLU A   1     -12.818   9.031 130.349  0.00  0.00    +0.000 OA
BRANCH  14  16
ATOM     16  O   GLU A   1     -13.305   7.341 131.718  0.00  0.00    +0.000 OA
ATOM     17  H   GLU A   1     -14.218   7.029 131.682  0.00  0.00    +0.000 HD
ENDBRANCH  14  16
ENDBRANCH  13  14
BRANCH  13  18
ATOM     18  CB  GLU A   1     -13.093   6.507 128.530  0.00  0.00    +0.000 C 
BRANCH  18  19
ATOM     19  CG  GLU A   1     -12.780   7.112 127.165  0.00  0.00    +0.000 C 
BRANCH  19  20
ATOM     20  CD  GLU A   1     -11.358   7.431 126.803  0.00  0.00    +0.000 C 
ATOM     21  OE2 GLU A   1     -10.852   8.512 127.074  0.00  0.00    +0.000 OA
BRANCH  20  22
ATOM     22  OE1 GLU A   1     -10.649   6.444 126.231  0.00  0.00    +0.000 OA
ATOM     23  HE1 GLU A   1      -9.683   6.517 126.303  0.00  0.00    +0.000 HD
ENDBRANCH  20  22
ENDBRANCH  19  20
ENDBRANCH  18  19
ENDBRANCH  13  18
ENDBRANCH  11  13
ENDBRANCH   6   9
ENDBRANCH   1   3
BRANCH   1  24
ATOM     24  C   UNK A   0      -8.041  -0.531 131.510  0.00  0.00    +0.000 C 
BRANCH  24  34
ATOM     25  N   UNK A   0      -9.263  -3.188 125.767  0.00  0.00    +0.000 N 
ATOM     26  C   UNK A   0      -8.506  -2.574 126.697  0.00  0.00    +0.000 A 
ATOM     27  N   UNK A   0      -7.762  -1.578 126.351  0.00  0.00    +0.000 NA
ATOM     28  C   UNK A   0      -7.012  -0.944 127.313  0.00  0.00    +0.000 A 
ATOM     29  O   UNK A   0      -6.373   0.073 127.040  0.00  0.00    +0.000 OA
ATOM     30  C   UNK A   0      -7.000  -1.500 128.724  0.00  0.00    +0.000 A 
ATOM     31  C   UNK A   0      -7.801  -2.581 128.967  0.00  0.00    +0.000 A 
ATOM     32  N   UNK A   0      -7.799  -3.189 130.218  0.00  0.00    +0.000 N 
ATOM     33  C   UNK A   0      -6.852  -2.756 131.246  0.00  0.00    +0.000 C 
ATOM     34  C   UNK A   0      -6.701  -1.229 131.154  0.00  0.00    +0.000 C 
ATOM     35  N   UNK A   0      -6.266  -0.895 129.770  0.00  0.00    +0.000 N 
ATOM     36  C   UNK A   0      -5.210  -0.012 129.618  0.00  0.00    +0.000 C 
ATOM     37  O   UNK A   0      -4.609   0.522 130.547  0.00  0.00    +0.000 OA
ATOM     38  N   UNK A   0      -8.589  -3.064 127.957  0.00  0.00    +0.000 N 
ATOM     39  H   UNK A   0      -9.203  -2.822 124.822  0.00  0.00    +0.000 HD
ATOM     40  H   UNK A   0      -9.847  -3.992 125.922  0.00  0.00    +0.000 HD
ATOM     41  H   UNK A   0      -8.604  -3.740 130.496  0.00  0.00    +0.000 HD
ATOM     42  H   UNK A   0      -9.125  -3.895 128.149  0.00  0.00    +0.000 HD
ENDBRANCH  24  34
ENDBRANCH   1  24
TORSDOF 11
ENDMDL
MODEL 6
REMARK VINA RESULT:      -7.5      6.603      9.166
REMARK  Name = Levoleucovorin
REMARK  11 active torsions:
REMARK  status: ('A' for Active; 'I' for Inactive)
REMARK    1  A    between atoms: C_10  and  C_11
REMARK    2  A    between atoms: C_11  and  N_12
REMARK    3  A    between atoms: N_12  and  C_13
REMARK    4  A    between atoms: C_16  and  C_19
REMARK    5  A    between atoms: N_21  and  CA_22
REMARK    6  A    between atoms: CA_22  and  CB_23
REMARK    7  A    between atoms: CA_22  and  C_28
REMARK    8  A    between atoms: CB_23  and  CG_24
REMARK    9  A    between atoms: CG_24  and  CD_25
REMARK   10  A    between atoms: CD_25  and  OE1_26
REMARK   11  A    between atoms: C_28  and  O_29
REMARK                            x       y       z     vdW  Elec       q    Type
REMARK                         _______ _______ _______ _____ _____    ______ ____
ROOT
ATOM      1  N   UNK A   0      -6.646   6.410 130.649  0.00  0.00    +0.000 N 
ATOM      2  H   UNK A   0      -6.783   6.570 129.653  0.00  0.00    +0.000 HD
ENDROOT
BRANCH   1   3
ATOM      3  C   UNK A   0      -5.445   6.837 131.189  0.00  0.00    +0.000 A 
ATOM      4  C   UNK A   0      -4.599   7.705 130.493  0.00  0.00    +0.000 A 
ATOM      5  C   UNK A   0      -3.346   8.043 131.015  0.00  0.00    +0.000 A 
ATOM      6  C   UNK A   0      -2.922   7.504 132.238  0.00  0.00    +0.000 A 
ATOM      7  C   UNK A   0      -3.802   6.716 132.978  0.00  0.00    +0.000 A 
ATOM      8  C   UNK A   0      -5.052   6.400 132.456  0.00  0.00    +0.000 A 
BRANCH   6   9
ATOM      9  C   UNK A   0      -1.518   7.742 132.662  0.00  0.00    +0.000 C 
ATOM     10  O   UNK A   0      -0.646   6.963 132.301  0.00  0.00    +0.000 OA
ATOM     11  N   GLU A   1      -1.263   8.861 133.438  0.00  0.00    +0.000 N 
ATOM     12  H   GLU A   1      -2.055   9.361 133.783  0.00  0.00    +0.000 HD
BRANCH  11  13
ATOM     13  CA  GLU A   1       0.099   9.314 133.764  0.00  0.00    +0.000 C 
BRANCH  13  14
ATOM     14  C   GLU A   1       0.730   8.673 135.028  0.00  0.00    +0.000 C 
ATOM     15  OXT GLU A   1       0.910   9.299 136.066  0.00  0.00    +0.000 OA
BRANCH  14  16
ATOM     16  O   GLU A   1       1.030   7.357 134.981  0.00  0.00    +0.000 OA
ATOM     17  H   GLU A   1       0.317   6.716 134.862  0.00  0.00    +0.000 HD
ENDBRANCH  14  16
ENDBRANCH  13  14
BRANCH  13  18
ATOM     18  CB  GLU A   1       0.160  10.849 133.980  0.00  0.00    +0.000 C 
BRANCH  18  19
ATOM     19  CG  GLU A   1       0.029  11.677 132.705  0.00  0.00    +0.000 C 
BRANCH  19  20
ATOM     20  CD  GLU A   1      -1.335  12.060 132.206  0.00  0.00    +0.000 C 
ATOM     21  OE2 GLU A   1      -2.353  11.739 132.804  0.00  0.00    +0.000 OA
BRANCH  20  22
ATOM     22  OE1 GLU A   1      -1.376  12.834 131.109  0.00  0.00    +0.000 OA
ATOM     23  HE1 GLU A   1      -0.832  13.639 131.135  0.00  0.00    +0.000 HD
ENDBRANCH  20  22
ENDBRANCH  19  20
ENDBRANCH  18  19
ENDBRANCH  13  18
ENDBRANCH  11  13
ENDBRANCH   6   9
ENDBRANCH   1   3
BRANCH   1  24
ATOM     24  C   UNK A   0      -7.841   6.422 131.488  0.00  0.00    +0.000 C 
BRANCH  24  34
ATOM     25  N   UNK A   0     -12.733   9.436 128.568  0.00  0.00    +0.000 N 
ATOM     26  C   UNK A   0     -11.860   8.431 128.773  0.00  0.00    +0.000 A 
ATOM     27  N   UNK A   0     -11.267   7.892 127.760  0.00  0.00    +0.000 NA
ATOM     28  C   UNK A   0     -10.359   6.884 127.982  0.00  0.00    +0.000 A 
ATOM     29  O   UNK A   0      -9.698   6.420 127.052  0.00  0.00    +0.000 OA
ATOM     30  C   UNK A   0     -10.164   6.364 129.393  0.00  0.00    +0.000 A 
ATOM     31  C   UNK A   0     -10.872   6.987 130.383  0.00  0.00    +0.000 A 
ATOM     32  N   UNK A   0     -10.798   6.531 131.695  0.00  0.00    +0.000 N 
ATOM     33  C   UNK A   0     -10.060   5.307 132.008  0.00  0.00    +0.000 C 
ATOM     34  C   UNK A   0      -8.803   5.259 131.124  0.00  0.00    +0.000 C 
ATOM     35  N   UNK A   0      -9.239   5.340 129.703  0.00  0.00    +0.000 N 
ATOM     36  C   UNK A   0      -8.694   4.438 128.805  0.00  0.00    +0.000 C 
ATOM     37  O   UNK A   0      -7.868   3.577 129.097  0.00  0.00    +0.000 OA
ATOM     38  N   UNK A   0     -11.667   8.055 130.059  0.00  0.00    +0.000 N 
ATOM     39  H   UNK A   0     -12.879   9.719 127.605  0.00  0.00    +0.000 HD
ATOM     40  H   UNK A   0     -13.275   9.897 129.280  0.00  0.00    +0.000 HD
ATOM     41  H   UNK A   0     -11.030   7.168 132.448  0.00  0.00    +0.000 HD
ATOM     42  H   UNK A   0     -12.220   8.457 130.799  0.00  0.00    +0.000 HD
ENDBRANCH  24  34
ENDBRANCH   1  24
TORSDOF 11
ENDMDL
MODEL 7
REMARK VINA RESULT:      -7.4      2.732      4.365
REMARK  Name = Levoleucovorin
REMARK  11 active torsions:
REMARK  status: ('A' for Active; 'I' for Inactive)
REMARK    1  A    between atoms: C_10  and  C_11
REMARK    2  A    between atoms: C_11  and  N_12
REMARK    3  A    between atoms: N_12  and  C_13
REMARK    4  A    between atoms: C_16  and  C_19
REMARK    5  A    between atoms: N_21  and  CA_22
REMARK    6  A    between atoms: CA_22  and  CB_23
REMARK    7  A    between atoms: CA_22  and  C_28
REMARK    8  A    between atoms: CB_23  and  CG_24
REMARK    9  A    between atoms: CG_24  and  CD_25
REMARK   10  A    between atoms: CD_25  and  OE1_26
REMARK   11  A    between atoms: C_28  and  O_29
REMARK                            x       y       z     vdW  Elec       q    Type
REMARK                         _______ _______ _______ _____ _____    ______ ____
ROOT
ATOM      1  N   UNK A   0      -8.643   0.376 125.546  0.00  0.00    +0.000 N 
ATOM      2  H   UNK A   0      -9.241  -0.386 125.862  0.00  0.00    +0.000 HD
ENDROOT
BRANCH   1   3
ATOM      3  C   UNK A   0      -8.360   1.369 126.470  0.00  0.00    +0.000 A 
ATOM      4  C   UNK A   0      -8.604   1.188 127.834  0.00  0.00    +0.000 A 
ATOM      5  C   UNK A   0      -8.404   2.239 128.734  0.00  0.00    +0.000 A 
ATOM      6  C   UNK A   0      -7.968   3.489 128.274  0.00  0.00    +0.000 A 
ATOM      7  C   UNK A   0      -7.633   3.643 126.930  0.00  0.00    +0.000 A 
ATOM      8  C   UNK A   0      -7.820   2.585 126.046  0.00  0.00    +0.000 A 
BRANCH   6   9
ATOM      9  C   UNK A   0      -7.948   4.624 129.234  0.00  0.00    +0.000 C 
ATOM     10  O   UNK A   0      -6.878   5.152 129.509  0.00  0.00    +0.000 OA
ATOM     11  N   GLU A   1      -9.159   5.041 129.760  0.00  0.00    +0.000 N 
ATOM     12  H   GLU A   1      -9.954   4.468 129.573  0.00  0.00    +0.000 HD
BRANCH  11  13
ATOM     13  CA  GLU A   1      -9.300   6.264 130.568  0.00  0.00    +0.000 C 
BRANCH  13  14
ATOM     14  C   GLU A   1     -10.111   6.105 131.882  0.00  0.00    +0.000 C 
ATOM     15  OXT GLU A   1      -9.675   6.455 132.972  0.00  0.00    +0.000 OA
BRANCH  14  16
ATOM     16  O   GLU A   1     -11.365   5.613 131.789  0.00  0.00    +0.000 OA
ATOM     17  H   GLU A   1     -11.548   4.910 131.153  0.00  0.00    +0.000 HD
ENDBRANCH  14  16
ENDBRANCH  13  14
BRANCH  13  18
ATOM     18  CB  GLU A   1      -9.986   7.405 129.771  0.00  0.00    +0.000 C 
BRANCH  18  19
ATOM     19  CG  GLU A   1     -10.889   6.935 128.635  0.00  0.00    +0.000 C 
BRANCH  19  20
ATOM     20  CD  GLU A   1     -10.494   7.206 127.212  0.00  0.00    +0.000 C 
ATOM     21  OE2 GLU A   1      -9.870   6.388 126.550  0.00  0.00    +0.000 OA
BRANCH  20  22
ATOM     22  OE1 GLU A   1     -10.923   8.363 126.681  0.00  0.00    +0.000 OA
ATOM     23  HE1 GLU A   1     -11.885   8.453 126.576  0.00  0.00    +0.000 HD
ENDBRANCH  20  22
ENDBRANCH  19  20
ENDBRANCH  18  19
ENDBRANCH  13  18
ENDBRANCH  11  13
ENDBRANCH   6   9
ENDBRANCH   1   3
BRANCH   1  24
ATOM     24  C   UNK A   0      -7.647   0.054 124.529  0.00  0.00    +0.000 C 
BRANCH  24  34
ATOM     25  N   UNK A   0      -4.199  -1.431 129.768  0.00  0.00    +0.000 N 
ATOM     26  C   UNK A   0      -5.128  -1.635 128.814  0.00  0.00    +0.000 A 
ATOM     27  N   UNK A   0      -6.288  -2.091 129.149  0.00  0.00    +0.000 NA
ATOM     28  C   UNK A   0      -7.238  -2.272 128.172  0.00  0.00    +0.000 A 
ATOM     29  O   UNK A   0      -8.386  -2.605 128.467  0.00  0.00    +0.000 OA
ATOM     30  C   UNK A   0      -6.860  -2.034 126.723  0.00  0.00    +0.000 A 
ATOM     31  C   UNK A   0      -5.591  -1.584 126.483  0.00  0.00    +0.000 A 
ATOM     32  N   UNK A   0      -5.145  -1.401 125.178  0.00  0.00    +0.000 N 
ATOM     33  C   UNK A   0      -5.985  -1.802 124.049  0.00  0.00    +0.000 C 
ATOM     34  C   UNK A   0      -7.448  -1.480 124.395  0.00  0.00    +0.000 C 
ATOM     35  N   UNK A   0      -7.784  -2.184 125.663  0.00  0.00    +0.000 N 
ATOM     36  C   UNK A   0      -8.970  -2.898 125.714  0.00  0.00    +0.000 C 
ATOM     37  O   UNK A   0      -9.770  -2.986 124.785  0.00  0.00    +0.000 OA
ATOM     38  N   UNK A   0      -4.763  -1.335 127.545  0.00  0.00    +0.000 N 
ATOM     39  H   UNK A   0      -4.470  -1.655 130.719  0.00  0.00    +0.000 HD
ATOM     40  H   UNK A   0      -3.256  -1.116 129.611  0.00  0.00    +0.000 HD
ATOM     41  H   UNK A   0      -4.370  -0.769 125.010  0.00  0.00    +0.000 HD
ATOM     42  H   UNK A   0      -3.817  -1.060 127.336  0.00  0.00    +0.000 HD
ENDBRANCH  24  34
ENDBRANCH   1  24
TORSDOF 11
ENDMDL
MODEL 8
REMARK VINA RESULT:      -7.4      3.826      5.816
REMARK  Name = Levoleucovorin
REMARK  11 active torsions:
REMARK  status: ('A' for Active; 'I' for Inactive)
REMARK    1  A    between atoms: C_10  and  C_11
REMARK    2  A    between atoms: C_11  and  N_12
REMARK    3  A    between atoms: N_12  and  C_13
REMARK    4  A    between atoms: C_16  and  C_19
REMARK    5  A    between atoms: N_21  and  CA_22
REMARK    6  A    between atoms: CA_22  and  CB_23
REMARK    7  A    between atoms: CA_22  and  C_28
REMARK    8  A    between atoms: CB_23  and  CG_24
REMARK    9  A    between atoms: CG_24  and  CD_25
REMARK   10  A    between atoms: CD_25  and  OE1_26
REMARK   11  A    between atoms: C_28  and  O_29
REMARK                            x       y       z     vdW  Elec       q    Type
REMARK                         _______ _______ _______ _____ _____    ______ ____
ROOT
ATOM      1  N   UNK A   0      -6.247   0.941 128.726  0.00  0.00    +0.000 N 
ATOM      2  H   UNK A   0      -6.330   0.624 127.763  0.00  0.00    +0.000 HD
ENDROOT
BRANCH   1   3
ATOM      3  C   UNK A   0      -6.768   2.192 129.017  0.00  0.00    +0.000 A 
ATOM      4  C   UNK A   0      -6.707   2.726 130.307  0.00  0.00    +0.000 A 
ATOM      5  C   UNK A   0      -7.327   3.945 130.598  0.00  0.00    +0.000 A 
ATOM      6  C   UNK A   0      -8.026   4.637 129.599  0.00  0.00    +0.000 A 
ATOM      7  C   UNK A   0      -8.005   4.155 128.292  0.00  0.00    +0.000 A 
ATOM      8  C   UNK A   0      -7.371   2.950 128.011  0.00  0.00    +0.000 A 
BRANCH   6   9
ATOM      9  C   UNK A   0      -8.821   5.829 129.996  0.00  0.00    +0.000 C 
ATOM     10  O   UNK A   0      -8.237   6.840 130.365  0.00  0.00    +0.000 OA
ATOM     11  N   GLU A   1     -10.201   5.739 129.906  0.00  0.00    +0.000 N 
ATOM     12  H   GLU A   1     -10.583   4.837 129.717  0.00  0.00    +0.000 HD
BRANCH  11  13
ATOM     13  CA  GLU A   1     -11.090   6.898 130.085  0.00  0.00    +0.000 C 
BRANCH  13  14
ATOM     14  C   GLU A   1     -12.168   6.746 131.191  0.00  0.00    +0.000 C 
ATOM     15  OXT GLU A   1     -13.298   7.207 131.079  0.00  0.00    +0.000 OA
BRANCH  14  16
ATOM     16  O   GLU A   1     -11.846   6.024 132.285  0.00  0.00    +0.000 OA
ATOM     17  H   GLU A   1     -10.919   5.807 132.449  0.00  0.00    +0.000 HD
ENDBRANCH  14  16
ENDBRANCH  13  14
BRANCH  13  18
ATOM     18  CB  GLU A   1     -11.855   7.245 128.780  0.00  0.00    +0.000 C 
BRANCH  18  19
ATOM     19  CG  GLU A   1     -11.071   8.105 127.793  0.00  0.00    +0.000 C 
BRANCH  19  20
ATOM     20  CD  GLU A   1     -10.642   7.521 126.477  0.00  0.00    +0.000 C 
ATOM     21  OE2 GLU A   1     -10.912   8.062 125.414  0.00  0.00    +0.000 OA
BRANCH  20  22
ATOM     22  OE1 GLU A   1      -9.884   6.413 126.532  0.00  0.00    +0.000 OA
ATOM     23  HE1 GLU A   1      -9.457   6.147 125.701  0.00  0.00    +0.000 HD
ENDBRANCH  20  22
ENDBRANCH  19  20
ENDBRANCH  18  19
ENDBRANCH  13  18
ENDBRANCH  11  13
ENDBRANCH   6   9
ENDBRANCH   1   3
BRANCH   1  24
ATOM     24  C   UNK A   0      -6.263  -0.088 129.762  0.00  0.00    +0.000 C 
BRANCH  24  34
ATOM     25  N   UNK A   0      -2.298  -3.138 133.827  0.00  0.00    +0.000 N 
ATOM     26  C   UNK A   0      -3.343  -3.030 132.984  0.00  0.00    +0.000 A 
ATOM     27  N   UNK A   0      -4.477  -3.552 133.312  0.00  0.00    +0.000 NA
ATOM     28  C   UNK A   0      -5.544  -3.416 132.456  0.00  0.00    +0.000 A 
ATOM     29  O   UNK A   0      -6.665  -3.808 132.783  0.00  0.00    +0.000 OA
ATOM     30  C   UNK A   0      -5.329  -2.753 131.109  0.00  0.00    +0.000 A 
ATOM     31  C   UNK A   0      -4.076  -2.267 130.855  0.00  0.00    +0.000 A 
ATOM     32  N   UNK A   0      -3.779  -1.702 129.619  0.00  0.00    +0.000 N 
ATOM     33  C   UNK A   0      -4.766  -1.731 128.540  0.00  0.00    +0.000 C 
ATOM     34  C   UNK A   0      -6.159  -1.511 129.151  0.00  0.00    +0.000 C 
ATOM     35  N   UNK A   0      -6.378  -2.562 130.181  0.00  0.00    +0.000 N 
ATOM     36  C   UNK A   0      -7.585  -3.243 130.167  0.00  0.00    +0.000 C 
ATOM     37  O   UNK A   0      -8.492  -3.035 129.366  0.00  0.00    +0.000 OA
ATOM     38  N   UNK A   0      -3.116  -2.364 131.827  0.00  0.00    +0.000 N 
ATOM     39  H   UNK A   0      -2.466  -3.636 134.694  0.00  0.00    +0.000 HD
ATOM     40  H   UNK A   0      -1.366  -2.801 133.652  0.00  0.00    +0.000 HD
ATOM     41  H   UNK A   0      -2.998  -1.059 129.550  0.00  0.00    +0.000 HD
ATOM     42  H   UNK A   0      -2.189  -2.050 131.590  0.00  0.00    +0.000 HD
ENDBRANCH  24  34
ENDBRANCH   1  24
TORSDOF 11
ENDMDL
MODEL 9
REMARK VINA RESULT:      -7.3      3.787      6.145
REMARK  Name = Levoleucovorin
REMARK  11 active torsions:
REMARK  status: ('A' for Active; 'I' for Inactive)
REMARK    1  A    between atoms: C_10  and  C_11
REMARK    2  A    between atoms: C_11  and  N_12
REMARK    3  A    between atoms: N_12  and  C_13
REMARK    4  A    between atoms: C_16  and  C_19
REMARK    5  A    between atoms: N_21  and  CA_22
REMARK    6  A    between atoms: CA_22  and  CB_23
REMARK    7  A    between atoms: CA_22  and  C_28
REMARK    8  A    between atoms: CB_23  and  CG_24
REMARK    9  A    between atoms: CG_24  and  CD_25
REMARK   10  A    between atoms: CD_25  and  OE1_26
REMARK   11  A    between atoms: C_28  and  O_29
REMARK                            x       y       z     vdW  Elec       q    Type
REMARK                         _______ _______ _______ _____ _____    ______ ____
ROOT
ATOM      1  N   UNK A   0      -4.475   1.285 126.316  0.00  0.00    +0.000 N 
ATOM      2  H   UNK A   0      -4.510   1.459 125.313  0.00  0.00    +0.000 HD
ENDROOT
BRANCH   1   3
ATOM      3  C   UNK A   0      -3.881   2.262 127.097  0.00  0.00    +0.000 A 
ATOM      4  C   UNK A   0      -4.236   2.442 128.436  0.00  0.00    +0.000 A 
ATOM      5  C   UNK A   0      -3.696   3.499 129.176  0.00  0.00    +0.000 A 
ATOM      6  C   UNK A   0      -2.799   4.394 128.576  0.00  0.00    +0.000 A 
ATOM      7  C   UNK A   0      -2.370   4.159 127.271  0.00  0.00    +0.000 A 
ATOM      8  C   UNK A   0      -2.902   3.095 126.550  0.00  0.00    +0.000 A 
BRANCH   6   9
ATOM      9  C   UNK A   0      -2.395   5.603 129.341  0.00  0.00    +0.000 C 
ATOM     10  O   UNK A   0      -1.997   6.587 128.733  0.00  0.00    +0.000 OA
ATOM     11  N   GLU A   1      -2.512   5.557 130.721  0.00  0.00    +0.000 N 
ATOM     12  H   GLU A   1      -2.725   4.671 131.127  0.00  0.00    +0.000 HD
BRANCH  11  13
ATOM     13  CA  GLU A   1      -2.327   6.740 131.578  0.00  0.00    +0.000 C 
BRANCH  13  14
ATOM     14  C   GLU A   1      -1.222   6.614 132.660  0.00  0.00    +0.000 C 
ATOM     15  OXT GLU A   1      -0.198   7.286 132.638  0.00  0.00    +0.000 OA
BRANCH  14  16
ATOM     16  O   GLU A   1      -1.445   5.767 133.688  0.00  0.00    +0.000 OA
ATOM     17  H   GLU A   1      -1.744   6.124 134.534  0.00  0.00    +0.000 HD
ENDBRANCH  14  16
ENDBRANCH  13  14
BRANCH  13  18
ATOM     18  CB  GLU A   1      -3.631   7.114 132.331  0.00  0.00    +0.000 C 
BRANCH  18  19
ATOM     19  CG  GLU A   1      -4.808   6.180 132.070  0.00  0.00    +0.000 C 
BRANCH  19  20
ATOM     20  CD  GLU A   1      -5.859   6.571 131.072  0.00  0.00    +0.000 C 
ATOM     21  OE2 GLU A   1      -6.933   7.045 131.419  0.00  0.00    +0.000 OA
BRANCH  20  22
ATOM     22  OE1 GLU A   1      -5.532   6.442 129.775  0.00  0.00    +0.000 OA
ATOM     23  HE1 GLU A   1      -6.090   5.842 129.253  0.00  0.00    +0.000 HD
ENDBRANCH  20  22
ENDBRANCH  19  20
ENDBRANCH  18  19
ENDBRANCH  13  18
ENDBRANCH  11  13
ENDBRANCH   6   9
ENDBRANCH   1   3
BRANCH   1  24
ATOM     24  C   UNK A   0      -5.560   0.490 126.885  0.00  0.00    +0.000 C 
BRANCH  24  34
ATOM     25  N   UNK A   0      -8.748   4.581 130.711  0.00  0.00    +0.000 N 
ATOM     26  C   UNK A   0      -8.354   4.058 129.534  0.00  0.00    +0.000 A 
ATOM     27  N   UNK A   0      -7.991   4.850 128.581  0.00  0.00    +0.000 NA
ATOM     28  C   UNK A   0      -7.568   4.306 127.391  0.00  0.00    +0.000 A 
ATOM     29  O   UNK A   0      -7.115   5.024 126.499  0.00  0.00    +0.000 OA
ATOM     30  C   UNK A   0      -7.643   2.803 127.199  0.00  0.00    +0.000 A 
ATOM     31  C   UNK A   0      -8.077   2.066 128.266  0.00  0.00    +0.000 A 
ATOM     32  N   UNK A   0      -8.235   0.689 128.152  0.00  0.00    +0.000 N 
ATOM     33  C   UNK A   0      -8.055   0.033 126.857  0.00  0.00    +0.000 C 
ATOM     34  C   UNK A   0      -6.893   0.719 126.121  0.00  0.00    +0.000 C 
ATOM     35  N   UNK A   0      -7.213   2.168 126.011  0.00  0.00    +0.000 N 
ATOM     36  C   UNK A   0      -7.042   2.778 124.779  0.00  0.00    +0.000 C 
ATOM     37  O   UNK A   0      -6.638   2.207 123.770  0.00  0.00    +0.000 OA
ATOM     38  N   UNK A   0      -8.370   2.708 129.441  0.00  0.00    +0.000 N 
ATOM     39  H   UNK A   0      -8.737   5.592 130.783  0.00  0.00    +0.000 HD
ATOM     40  H   UNK A   0      -9.084   4.058 131.502  0.00  0.00    +0.000 HD
ATOM     41  H   UNK A   0      -8.218   0.123 128.993  0.00  0.00    +0.000 HD
ATOM     42  H   UNK A   0      -8.741   2.147 130.190  0.00  0.00    +0.000 HD
ENDBRANCH  24  34
ENDBRANCH   1  24
TORSDOF 11
ENDMDL
