MODEL 1
REMARK VINA RESULT:      -5.9      0.000      0.000
REMARK  Name = Levomenthol
REMARK  5 active torsions:
REMARK  status: ('A' for Active; 'I' for Inactive)
REMARK    1  A    between atoms: C_1  and  C_2
REMARK    2  A    between atoms: C_2  and  C_3
REMARK    3  A    between atoms: C_2  and  C_4
REMARK    4  A    between atoms: C_7  and  C_8
REMARK    5  A    between atoms: C_10  and  O_11
REMARK                            x       y       z     vdW  Elec       q    Type
REMARK                         _______ _______ _______ _____ _____    ______ ____
ROOT
ATOM      1  C   UNL     1     -11.553   7.764 129.887  0.00  0.00    +0.000 C 
ATOM      2  C   UNL     1     -10.161   7.337 129.386  0.00  0.00    +0.000 C 
ATOM      3  C   UNL     1      -9.182   7.099 130.530  0.00  0.00    +0.000 C 
ATOM      4  C   UNL     1      -9.724   6.079 131.535  0.00  0.00    +0.000 C 
ATOM      5  C   UNL     1      -8.749   5.894 132.693  0.00  0.00    +0.000 C 
ATOM      6  C   UNL     1     -11.100   6.508 132.051  0.00  0.00    +0.000 C 
ATOM      7  C   UNL     1     -12.085   6.731 130.904  0.00  0.00    +0.000 C 
ENDROOT
BRANCH   1   9
ATOM      8  C   UNL     1     -13.478   6.932 128.346  0.00  0.00    +0.000 C 
ATOM      9  C   UNL     1     -12.476   8.043 128.661  0.00  0.00    +0.000 C 
ATOM     10  C   UNL     1     -13.202   9.382 128.823  0.00  0.00    +0.000 C 
ENDBRANCH   1   9
BRANCH   7  11
ATOM     11  O   UNL     1     -13.329   7.151 131.459  0.00  0.00    +0.000 OA
ATOM     12  H   UNL     1     -13.188   7.360 132.394  0.00  0.00    +0.000 HD
ENDBRANCH   7  11
TORSDOF 2
ENDMDL
MODEL 2
REMARK VINA RESULT:      -5.7      1.344      4.017
REMARK  Name = Levomenthol
REMARK  5 active torsions:
REMARK  status: ('A' for Active; 'I' for Inactive)
REMARK    1  A    between atoms: C_1  and  C_2
REMARK    2  A    between atoms: C_2  and  C_3
REMARK    3  A    between atoms: C_2  and  C_4
REMARK    4  A    between atoms: C_7  and  C_8
REMARK    5  A    between atoms: C_10  and  O_11
REMARK                            x       y       z     vdW  Elec       q    Type
REMARK                         _______ _______ _______ _____ _____    ______ ____
ROOT
ATOM      1  C   UNL     1     -10.670   6.598 129.883  0.00  0.00    +0.000 C 
ATOM      2  C   UNL     1     -10.214   7.741 128.956  0.00  0.00    +0.000 C 
ATOM      3  C   UNL     1     -11.391   8.479 128.326  0.00  0.00    +0.000 C 
ATOM      4  C   UNL     1     -12.360   9.006 129.387  0.00  0.00    +0.000 C 
ATOM      5  C   UNL     1     -13.551   9.697 128.731  0.00  0.00    +0.000 C 
ATOM      6  C   UNL     1     -12.831   7.871 130.299  0.00  0.00    +0.000 C 
ATOM      7  C   UNL     1     -11.652   7.141 130.943  0.00  0.00    +0.000 C 
ENDROOT
BRANCH   1   9
ATOM      8  C   UNL     1      -8.765   4.874 129.467  0.00  0.00    +0.000 C 
ATOM      9  C   UNL     1      -9.414   5.859 130.440  0.00  0.00    +0.000 C 
ATOM     10  C   UNL     1      -8.376   6.864 130.950  0.00  0.00    +0.000 C 
ENDBRANCH   1   9
BRANCH   7  11
ATOM     11  O   UNL     1     -12.166   6.089 131.754  0.00  0.00    +0.000 OA
ATOM     12  H   UNL     1     -11.610   6.014 132.542  0.00  0.00    +0.000 HD
ENDBRANCH   7  11
TORSDOF 2
ENDMDL
MODEL 3
REMARK VINA RESULT:      -5.7      1.662      2.210
REMARK  Name = Levomenthol
REMARK  5 active torsions:
REMARK  status: ('A' for Active; 'I' for Inactive)
REMARK    1  A    between atoms: C_1  and  C_2
REMARK    2  A    between atoms: C_2  and  C_3
REMARK    3  A    between atoms: C_2  and  C_4
REMARK    4  A    between atoms: C_7  and  C_8
REMARK    5  A    between atoms: C_10  and  O_11
REMARK                            x       y       z     vdW  Elec       q    Type
REMARK                         _______ _______ _______ _____ _____    ______ ____
ROOT
ATOM      1  C   UNL     1     -11.832   6.932 129.295  0.00  0.00    +0.000 C 
ATOM      2  C   UNL     1     -12.223   7.335 130.728  0.00  0.00    +0.000 C 
ATOM      3  C   UNL     1     -11.547   6.461 131.780  0.00  0.00    +0.000 C 
ATOM      4  C   UNL     1     -10.024   6.462 131.621  0.00  0.00    +0.000 C 
ATOM      5  C   UNL     1      -9.376   5.544 132.652  0.00  0.00    +0.000 C 
ATOM      6  C   UNL     1      -9.630   6.043 130.202  0.00  0.00    +0.000 C 
ATOM      7  C   UNL     1     -10.295   6.929 129.150  0.00  0.00    +0.000 C 
ENDROOT
BRANCH   1   9
ATOM      8  C   UNL     1     -13.887   7.213 127.723  0.00  0.00    +0.000 C 
ATOM      9  C   UNL     1     -12.605   7.831 128.280  0.00  0.00    +0.000 C 
ATOM     10  C   UNL     1     -12.900   9.205 128.890  0.00  0.00    +0.000 C 
ENDBRANCH   1   9
BRANCH   7  11
ATOM     11  O   UNL     1      -9.901   6.465 127.861  0.00  0.00    +0.000 OA
ATOM     12  H   UNL     1      -9.005   6.786 127.685  0.00  0.00    +0.000 HD
ENDBRANCH   7  11
TORSDOF 2
ENDMDL
MODEL 4
REMARK VINA RESULT:      -5.4      1.892      4.597
REMARK  Name = Levomenthol
REMARK  5 active torsions:
REMARK  status: ('A' for Active; 'I' for Inactive)
REMARK    1  A    between atoms: C_1  and  C_2
REMARK    2  A    between atoms: C_2  and  C_3
REMARK    3  A    between atoms: C_2  and  C_4
REMARK    4  A    between atoms: C_7  and  C_8
REMARK    5  A    between atoms: C_10  and  O_11
REMARK                            x       y       z     vdW  Elec       q    Type
REMARK                         _______ _______ _______ _____ _____    ______ ____
ROOT
ATOM      1  C   UNL     1     -10.773   7.142 130.069  0.00  0.00    +0.000 C 
ATOM      2  C   UNL     1     -12.087   7.347 130.844  0.00  0.00    +0.000 C 
ATOM      3  C   UNL     1     -12.811   8.623 130.429  0.00  0.00    +0.000 C 
ATOM      4  C   UNL     1     -13.069   8.660 128.920  0.00  0.00    +0.000 C 
ATOM      5  C   UNL     1     -13.750   9.966 128.523  0.00  0.00    +0.000 C 
ATOM      6  C   UNL     1     -11.762   8.476 128.144  0.00  0.00    +0.000 C 
ATOM      7  C   UNL     1     -11.045   7.189 128.551  0.00  0.00    +0.000 C 
ENDROOT
BRANCH   1   9
ATOM      8  C   UNL     1      -9.521   5.950 132.015  0.00  0.00    +0.000 C 
ATOM      9  C   UNL     1     -10.066   5.852 130.590  0.00  0.00    +0.000 C 
ATOM     10  C   UNL     1     -10.991   4.638 130.458  0.00  0.00    +0.000 C 
ENDBRANCH   1   9
BRANCH   7  11
ATOM     11  O   UNL     1      -9.832   7.100 127.808  0.00  0.00    +0.000 OA
ATOM     12  H   UNL     1      -9.540   6.177 127.814  0.00  0.00    +0.000 HD
ENDBRANCH   7  11
TORSDOF 2
ENDMDL
MODEL 5
REMARK VINA RESULT:      -5.3     11.083     12.091
REMARK  Name = Levomenthol
REMARK  5 active torsions:
REMARK  status: ('A' for Active; 'I' for Inactive)
REMARK    1  A    between atoms: C_1  and  C_2
REMARK    2  A    between atoms: C_2  and  C_3
REMARK    3  A    between atoms: C_2  and  C_4
REMARK    4  A    between atoms: C_7  and  C_8
REMARK    5  A    between atoms: C_10  and  O_11
REMARK                            x       y       z     vdW  Elec       q    Type
REMARK                         _______ _______ _______ _____ _____    ______ ____
ROOT
ATOM      1  C   UNL     1      -7.814  -2.948 126.139  0.00  0.00    +0.000 C 
ATOM      2  C   UNL     1      -6.413  -2.310 126.109  0.00  0.00    +0.000 C 
ATOM      3  C   UNL     1      -5.741  -2.451 124.748  0.00  0.00    +0.000 C 
ATOM      4  C   UNL     1      -6.613  -1.879 123.626  0.00  0.00    +0.000 C 
ATOM      5  C   UNL     1      -5.941  -2.075 122.271  0.00  0.00    +0.000 C 
ATOM      6  C   UNL     1      -8.001  -2.524 123.638  0.00  0.00    +0.000 C 
ATOM      7  C   UNL     1      -8.680  -2.369 124.999  0.00  0.00    +0.000 C 
ENDROOT
BRANCH   1   9
ATOM      8  C   UNL     1      -9.046  -4.089 128.127  0.00  0.00    +0.000 C 
ATOM      9  C   UNL     1      -8.409  -2.814 127.575  0.00  0.00    +0.000 C 
ATOM     10  C   UNL     1      -7.355  -2.281 128.550  0.00  0.00    +0.000 C 
ENDBRANCH   1   9
BRANCH   7  11
ATOM     11  O   UNL     1      -9.950  -3.012 124.940  0.00  0.00    +0.000 OA
ATOM     12  H   UNL     1     -10.533  -2.480 124.380  0.00  0.00    +0.000 HD
ENDBRANCH   7  11
TORSDOF 2
ENDMDL
MODEL 6
REMARK VINA RESULT:      -5.2     10.754     11.426
REMARK  Name = Levomenthol
REMARK  5 active torsions:
REMARK  status: ('A' for Active; 'I' for Inactive)
REMARK    1  A    between atoms: C_1  and  C_2
REMARK    2  A    between atoms: C_2  and  C_3
REMARK    3  A    between atoms: C_2  and  C_4
REMARK    4  A    between atoms: C_7  and  C_8
REMARK    5  A    between atoms: C_10  and  O_11
REMARK                            x       y       z     vdW  Elec       q    Type
REMARK                         _______ _______ _______ _____ _____    ______ ____
ROOT
ATOM      1  C   UNL     1      -7.985  -2.984 125.548  0.00  0.00    +0.000 C 
ATOM      2  C   UNL     1      -9.233  -3.311 126.388  0.00  0.00    +0.000 C 
ATOM      3  C   UNL     1      -8.878  -3.792 127.790  0.00  0.00    +0.000 C 
ATOM      4  C   UNL     1      -7.988  -2.784 128.524  0.00  0.00    +0.000 C 
ATOM      5  C   UNL     1      -7.608  -3.310 129.905  0.00  0.00    +0.000 C 
ATOM      6  C   UNL     1      -6.736  -2.471 127.702  0.00  0.00    +0.000 C 
ATOM      7  C   UNL     1      -7.094  -1.974 126.302  0.00  0.00    +0.000 C 
ENDROOT
BRANCH   1   9
ATOM      8  C   UNL     1      -9.547  -3.405 123.509  0.00  0.00    +0.000 C 
ATOM      9  C   UNL     1      -8.428  -2.556 124.114  0.00  0.00    +0.000 C 
ATOM     10  C   UNL     1      -8.813  -1.074 124.087  0.00  0.00    +0.000 C 
ENDBRANCH   1   9
BRANCH   7  11
ATOM     11  O   UNL     1      -5.882  -1.727 125.593  0.00  0.00    +0.000 OA
ATOM     12  H   UNL     1      -5.973  -0.887 125.121  0.00  0.00    +0.000 HD
ENDBRANCH   7  11
TORSDOF 2
ENDMDL
MODEL 7
REMARK VINA RESULT:      -5.2     11.165     11.876
REMARK  Name = Levomenthol
REMARK  5 active torsions:
REMARK  status: ('A' for Active; 'I' for Inactive)
REMARK    1  A    between atoms: C_1  and  C_2
REMARK    2  A    between atoms: C_2  and  C_3
REMARK    3  A    between atoms: C_2  and  C_4
REMARK    4  A    between atoms: C_7  and  C_8
REMARK    5  A    between atoms: C_10  and  O_11
REMARK                            x       y       z     vdW  Elec       q    Type
REMARK                         _______ _______ _______ _____ _____    ______ ____
ROOT
ATOM      1  C   UNL     1      -7.508  -2.272 124.987  0.00  0.00    +0.000 C 
ATOM      2  C   UNL     1      -6.387  -2.417 126.032  0.00  0.00    +0.000 C 
ATOM      3  C   UNL     1      -6.915  -2.345 127.461  0.00  0.00    +0.000 C 
ATOM      4  C   UNL     1      -8.015  -3.382 127.710  0.00  0.00    +0.000 C 
ATOM      5  C   UNL     1      -8.559  -3.257 129.129  0.00  0.00    +0.000 C 
ATOM      6  C   UNL     1      -9.141  -3.229 126.685  0.00  0.00    +0.000 C 
ATOM      7  C   UNL     1      -8.613  -3.317 125.253  0.00  0.00    +0.000 C 
ENDROOT
BRANCH   1   9
ATOM      8  C   UNL     1      -6.776  -0.932 122.880  0.00  0.00    +0.000 C 
ATOM      9  C   UNL     1      -6.883  -2.298 123.557  0.00  0.00    +0.000 C 
ATOM     10  C   UNL     1      -5.517  -2.990 123.577  0.00  0.00    +0.000 C 
ENDBRANCH   1   9
BRANCH   7  11
ATOM     11  O   UNL     1      -9.711  -3.143 124.361  0.00  0.00    +0.000 OA
ATOM     12  H   UNL     1      -9.979  -4.014 124.037  0.00  0.00    +0.000 HD
ENDBRANCH   7  11
TORSDOF 2
ENDMDL
MODEL 8
REMARK VINA RESULT:      -5.1     10.780     11.318
REMARK  Name = Levomenthol
REMARK  5 active torsions:
REMARK  status: ('A' for Active; 'I' for Inactive)
REMARK    1  A    between atoms: C_1  and  C_2
REMARK    2  A    between atoms: C_2  and  C_3
REMARK    3  A    between atoms: C_2  and  C_4
REMARK    4  A    between atoms: C_7  and  C_8
REMARK    5  A    between atoms: C_10  and  O_11
REMARK                            x       y       z     vdW  Elec       q    Type
REMARK                         _______ _______ _______ _____ _____    ______ ____
ROOT
ATOM      1  C   UNL     1      -8.219  -1.194 125.150  0.00  0.00    +0.000 C 
ATOM      2  C   UNL     1      -6.844  -0.620 124.760  0.00  0.00    +0.000 C 
ATOM      3  C   UNL     1      -5.751  -1.684 124.762  0.00  0.00    +0.000 C 
ATOM      4  C   UNL     1      -6.112  -2.866 123.859  0.00  0.00    +0.000 C 
ATOM      5  C   UNL     1      -5.027  -3.936 123.915  0.00  0.00    +0.000 C 
ATOM      6  C   UNL     1      -7.469  -3.453 124.255  0.00  0.00    +0.000 C 
ATOM      7  C   UNL     1      -8.567  -2.390 124.237  0.00  0.00    +0.000 C 
ENDROOT
BRANCH   1   9
ATOM      8  C   UNL     1      -9.072   0.974 126.309  0.00  0.00    +0.000 C 
ATOM      9  C   UNL     1      -9.267  -0.039 125.181  0.00  0.00    +0.000 C 
ATOM     10  C   UNL     1      -9.323   0.678 123.828  0.00  0.00    +0.000 C 
ENDBRANCH   1   9
BRANCH   7  11
ATOM     11  O   UNL     1      -9.789  -3.003 124.638  0.00  0.00    +0.000 OA
ATOM     12  H   UNL     1      -9.630  -3.952 124.748  0.00  0.00    +0.000 HD
ENDBRANCH   7  11
TORSDOF 2
ENDMDL
MODEL 9
REMARK VINA RESULT:      -5.1     10.278     10.831
REMARK  Name = Levomenthol
REMARK  5 active torsions:
REMARK  status: ('A' for Active; 'I' for Inactive)
REMARK    1  A    between atoms: C_1  and  C_2
REMARK    2  A    between atoms: C_2  and  C_3
REMARK    3  A    between atoms: C_2  and  C_4
REMARK    4  A    between atoms: C_7  and  C_8
REMARK    5  A    between atoms: C_10  and  O_11
REMARK                            x       y       z     vdW  Elec       q    Type
REMARK                         _______ _______ _______ _____ _____    ______ ____
ROOT
ATOM      1  C   UNL     1      -8.881  -1.182 124.730  0.00  0.00    +0.000 C 
ATOM      2  C   UNL     1      -7.821  -0.766 125.767  0.00  0.00    +0.000 C 
ATOM      3  C   UNL     1      -8.073  -1.389 127.136  0.00  0.00    +0.000 C 
ATOM      4  C   UNL     1      -8.169  -2.915 127.052  0.00  0.00    +0.000 C 
ATOM      5  C   UNL     1      -8.469  -3.510 128.424  0.00  0.00    +0.000 C 
ATOM      6  C   UNL     1      -9.235  -3.335 126.037  0.00  0.00    +0.000 C 
ATOM      7  C   UNL     1      -8.972  -2.722 124.662  0.00  0.00    +0.000 C 
ENDROOT
BRANCH   1   9
ATOM      8  C   UNL     1      -9.728   0.412 122.856  0.00  0.00    +0.000 C 
ATOM      9  C   UNL     1      -8.586  -0.461 123.378  0.00  0.00    +0.000 C 
ATOM     10  C   UNL     1      -7.293   0.354 123.470  0.00  0.00    +0.000 C 
ENDBRANCH   1   9
BRANCH   7  11
ATOM     11  O   UNL     1     -10.014  -3.136 123.782  0.00  0.00    +0.000 OA
ATOM     12  H   UNL     1     -10.825  -2.670 124.032  0.00  0.00    +0.000 HD
ENDBRANCH   7  11
TORSDOF 2
ENDMDL
