MODEL 1
REMARK VINA RESULT:      -6.1      0.000      0.000
REMARK  Name = Levobetaxolol
REMARK  14 active torsions:
REMARK  status: ('A' for Active; 'I' for Inactive)
REMARK    1  A    between atoms: C_1  and  C_2
REMARK    2  A    between atoms: C_2  and  C_3
REMARK    3  A    between atoms: C_2  and  N_4
REMARK    4  A    between atoms: N_4  and  C_5
REMARK    5  A    between atoms: C_5  and  C_6
REMARK    6  A    between atoms: C_6  and  O_7
REMARK    7  A    between atoms: C_6  and  C_8
REMARK    8  A    between atoms: C_8  and  O_9
REMARK    9  A    between atoms: O_9  and  C_10
REMARK   10  A    between atoms: C_13  and  C_14
REMARK   11  A    between atoms: C_14  and  C_15
REMARK   12  A    between atoms: C_15  and  O_16
REMARK   13  A    between atoms: O_16  and  C_17
REMARK   14  A    between atoms: C_17  and  C_18
REMARK                            x       y       z     vdW  Elec       q    Type
REMARK                         _______ _______ _______ _____ _____    ______ ____
ROOT
ATOM      1  C   UNL     1      -8.972  -2.636 126.326  0.00  0.00    +0.000 A 
ATOM      2  C   UNL     1      -8.991  -3.666 127.275  0.00  0.00    +0.000 A 
ATOM      3  C   UNL     1      -8.489  -3.437 128.560  0.00  0.00    +0.000 A 
ATOM      4  C   UNL     1      -7.931  -2.198 128.876  0.00  0.00    +0.000 A 
ATOM      5  C   UNL     1      -7.937  -1.183 127.902  0.00  0.00    +0.000 A 
ATOM      6  C   UNL     1      -8.449  -1.403 126.638  0.00  0.00    +0.000 A 
ENDROOT
BRANCH   1   7
ATOM      7  O   UNL     1      -9.619  -2.838 125.148  0.00  0.00    +0.000 OA
BRANCH   7   8
ATOM      8  C   UNL     1      -8.842  -3.459 124.119  0.00  0.00    +0.000 C 
BRANCH   8   9
ATOM      9  C   UNL     1      -8.519  -2.396 123.064  0.00  0.00    +0.000 C 
BRANCH   9  10
ATOM     10  O   UNL     1      -9.543  -1.394 123.061  0.00  0.00    +0.000 OA
ATOM     11  H   UNL     1      -9.695  -1.137 122.135  0.00  0.00    +0.000 HD
ENDBRANCH   9  10
BRANCH   9  12
ATOM     12  C   UNL     1      -7.130  -1.728 123.238  0.00  0.00    +0.000 C 
BRANCH  12  13
ATOM     13  N   UNL     1      -6.012  -2.520 122.740  0.00  0.00    +0.000 NA
ATOM     14  H   UNL     1      -6.327  -3.366 122.270  0.00  0.00    +0.000 HD
BRANCH  13  16
ATOM     15  C   UNL     1      -5.460  -2.475 125.080  0.00  0.00    +0.000 C 
ATOM     16  C   UNL     1      -4.945  -2.809 123.677  0.00  0.00    +0.000 C 
ATOM     17  C   UNL     1      -4.547  -4.279 123.613  0.00  0.00    +0.000 C 
ENDBRANCH  13  16
ENDBRANCH  12  13
ENDBRANCH   9  12
ENDBRANCH   8   9
ENDBRANCH   7   8
ENDBRANCH   1   7
BRANCH   4  18
ATOM     18  C   UNL     1      -7.305  -1.974 130.231  0.00  0.00    +0.000 C 
BRANCH  18  19
ATOM     19  C   UNL     1      -7.036  -3.290 130.947  0.00  0.00    +0.000 C 
BRANCH  19  20
ATOM     20  O   UNL     1      -5.674  -3.422 131.281  0.00  0.00    +0.000 OA
BRANCH  20  21
ATOM     21  C   UNL     1      -5.043  -4.320 130.370  0.00  0.00    +0.000 C 
BRANCH  21  22
ATOM     22  C   UNL     1      -4.311  -3.535 129.339  0.00  0.00    +0.000 C 
ATOM     23  C   UNL     1      -3.226  -2.580 129.760  0.00  0.00    +0.000 C 
ATOM     24  C   UNL     1      -2.869  -3.829 129.003  0.00  0.00    +0.000 C 
ENDBRANCH  21  22
ENDBRANCH  20  21
ENDBRANCH  19  20
ENDBRANCH  18  19
ENDBRANCH   4  18
TORSDOF 12
ENDMDL
MODEL 2
REMARK VINA RESULT:      -5.9      9.365     11.100
REMARK  Name = Levobetaxolol
REMARK  14 active torsions:
REMARK  status: ('A' for Active; 'I' for Inactive)
REMARK    1  A    between atoms: C_1  and  C_2
REMARK    2  A    between atoms: C_2  and  C_3
REMARK    3  A    between atoms: C_2  and  N_4
REMARK    4  A    between atoms: N_4  and  C_5
REMARK    5  A    between atoms: C_5  and  C_6
REMARK    6  A    between atoms: C_6  and  O_7
REMARK    7  A    between atoms: C_6  and  C_8
REMARK    8  A    between atoms: C_8  and  O_9
REMARK    9  A    between atoms: O_9  and  C_10
REMARK   10  A    between atoms: C_13  and  C_14
REMARK   11  A    between atoms: C_14  and  C_15
REMARK   12  A    between atoms: C_15  and  O_16
REMARK   13  A    between atoms: O_16  and  C_17
REMARK   14  A    between atoms: C_17  and  C_18
REMARK                            x       y       z     vdW  Elec       q    Type
REMARK                         _______ _______ _______ _____ _____    ______ ____
ROOT
ATOM      1  C   UNL     1      -8.028   6.355 131.977  0.00  0.00    +0.000 A 
ATOM      2  C   UNL     1      -7.369   5.758 133.059  0.00  0.00    +0.000 A 
ATOM      3  C   UNL     1      -5.972   5.781 133.121  0.00  0.00    +0.000 A 
ATOM      4  C   UNL     1      -5.241   6.359 132.083  0.00  0.00    +0.000 A 
ATOM      5  C   UNL     1      -5.935   6.958 131.016  0.00  0.00    +0.000 A 
ATOM      6  C   UNL     1      -7.315   6.952 130.963  0.00  0.00    +0.000 A 
ENDROOT
BRANCH   1   7
ATOM      7  O   UNL     1      -9.381   6.464 132.031  0.00  0.00    +0.000 OA
BRANCH   7   8
ATOM      8  C   UNL     1     -10.028   6.720 130.780  0.00  0.00    +0.000 C 
BRANCH   8   9
ATOM      9  C   UNL     1     -11.387   6.013 130.798  0.00  0.00    +0.000 C 
BRANCH   9  10
ATOM     10  O   UNL     1     -11.857   5.909 132.147  0.00  0.00    +0.000 OA
ATOM     11  H   UNL     1     -11.365   5.185 132.571  0.00  0.00    +0.000 HD
ENDBRANCH   9  10
BRANCH   9  12
ATOM     12  C   UNL     1     -12.467   6.689 129.914  0.00  0.00    +0.000 C 
BRANCH  12  13
ATOM     13  N   UNL     1     -12.288   6.488 128.481  0.00  0.00    +0.000 NA
ATOM     14  H   UNL     1     -11.487   5.894 128.279  0.00  0.00    +0.000 HD
BRANCH  13  16
ATOM     15  C   UNL     1     -13.017   8.779 128.416  0.00  0.00    +0.000 C 
ATOM     16  C   UNL     1     -12.283   7.674 127.649  0.00  0.00    +0.000 C 
ATOM     17  C   UNL     1     -10.858   8.120 127.344  0.00  0.00    +0.000 C 
ENDBRANCH  13  16
ENDBRANCH  12  13
ENDBRANCH   9  12
ENDBRANCH   8   9
ENDBRANCH   7   8
ENDBRANCH   1   7
BRANCH   4  18
ATOM     18  C   UNL     1      -3.733   6.307 132.100  0.00  0.00    +0.000 C 
BRANCH  18  19
ATOM     19  C   UNL     1      -3.132   7.184 131.011  0.00  0.00    +0.000 C 
BRANCH  19  20
ATOM     20  O   UNL     1      -2.188   6.475 130.244  0.00  0.00    +0.000 OA
BRANCH  20  21
ATOM     21  C   UNL     1      -2.463   6.660 128.857  0.00  0.00    +0.000 C 
BRANCH  21  22
ATOM     22  C   UNL     1      -2.693   5.332 128.223  0.00  0.00    +0.000 C 
ATOM     23  C   UNL     1      -3.258   4.203 129.044  0.00  0.00    +0.000 C 
ATOM     24  C   UNL     1      -4.087   4.820 127.951  0.00  0.00    +0.000 C 
ENDBRANCH  21  22
ENDBRANCH  20  21
ENDBRANCH  19  20
ENDBRANCH  18  19
ENDBRANCH   4  18
TORSDOF 12
ENDMDL
MODEL 3
REMARK VINA RESULT:      -5.8      1.799      2.439
REMARK  Name = Levobetaxolol
REMARK  14 active torsions:
REMARK  status: ('A' for Active; 'I' for Inactive)
REMARK    1  A    between atoms: C_1  and  C_2
REMARK    2  A    between atoms: C_2  and  C_3
REMARK    3  A    between atoms: C_2  and  N_4
REMARK    4  A    between atoms: N_4  and  C_5
REMARK    5  A    between atoms: C_5  and  C_6
REMARK    6  A    between atoms: C_6  and  O_7
REMARK    7  A    between atoms: C_6  and  C_8
REMARK    8  A    between atoms: C_8  and  O_9
REMARK    9  A    between atoms: O_9  and  C_10
REMARK   10  A    between atoms: C_13  and  C_14
REMARK   11  A    between atoms: C_14  and  C_15
REMARK   12  A    between atoms: C_15  and  O_16
REMARK   13  A    between atoms: O_16  and  C_17
REMARK   14  A    between atoms: C_17  and  C_18
REMARK                            x       y       z     vdW  Elec       q    Type
REMARK                         _______ _______ _______ _____ _____    ______ ____
ROOT
ATOM      1  C   UNL     1      -8.554  -2.777 126.891  0.00  0.00    +0.000 A 
ATOM      2  C   UNL     1      -8.798  -3.682 127.931  0.00  0.00    +0.000 A 
ATOM      3  C   UNL     1      -8.380  -3.376 129.231  0.00  0.00    +0.000 A 
ATOM      4  C   UNL     1      -7.684  -2.193 129.475  0.00  0.00    +0.000 A 
ATOM      5  C   UNL     1      -7.464  -1.302 128.409  0.00  0.00    +0.000 A 
ATOM      6  C   UNL     1      -7.893  -1.595 127.128  0.00  0.00    +0.000 A 
ENDROOT
BRANCH   1   7
ATOM      7  O   UNL     1      -9.119  -3.025 125.680  0.00  0.00    +0.000 OA
BRANCH   7   8
ATOM      8  C   UNL     1      -8.211  -3.420 124.647  0.00  0.00    +0.000 C 
BRANCH   8   9
ATOM      9  C   UNL     1      -8.876  -3.131 123.298  0.00  0.00    +0.000 C 
BRANCH   9  10
ATOM     10  O   UNL     1     -10.248  -3.540 123.340  0.00  0.00    +0.000 OA
ATOM     11  H   UNL     1     -10.549  -3.456 124.261  0.00  0.00    +0.000 HD
ENDBRANCH   9  10
BRANCH   9  12
ATOM     12  C   UNL     1      -8.782  -1.650 122.846  0.00  0.00    +0.000 C 
BRANCH  12  13
ATOM     13  N   UNL     1      -9.581  -0.724 123.640  0.00  0.00    +0.000 NA
ATOM     14  H   UNL     1     -10.521  -0.617 123.265  0.00  0.00    +0.000 HD
BRANCH  13  16
ATOM     15  C   UNL     1      -9.553   1.029 125.286  0.00  0.00    +0.000 C 
ATOM     16  C   UNL     1      -8.988   0.563 123.940  0.00  0.00    +0.000 C 
ATOM     17  C   UNL     1      -7.470   0.456 124.029  0.00  0.00    +0.000 C 
ENDBRANCH  13  16
ENDBRANCH  12  13
ENDBRANCH   9  12
ENDBRANCH   8   9
ENDBRANCH   7   8
ENDBRANCH   1   7
BRANCH   4  18
ATOM     18  C   UNL     1      -7.150  -1.900 130.857  0.00  0.00    +0.000 C 
BRANCH  18  19
ATOM     19  C   UNL     1      -7.210  -3.130 131.750  0.00  0.00    +0.000 C 
BRANCH  19  20
ATOM     20  O   UNL     1      -6.020  -3.879 131.669  0.00  0.00    +0.000 OA
BRANCH  20  21
ATOM     21  C   UNL     1      -4.898  -3.017 131.844  0.00  0.00    +0.000 C 
BRANCH  21  22
ATOM     22  C   UNL     1      -3.830  -3.402 130.882  0.00  0.00    +0.000 C 
ATOM     23  C   UNL     1      -4.187  -3.681 129.445  0.00  0.00    +0.000 C 
ATOM     24  C   UNL     1      -3.377  -2.462 129.791  0.00  0.00    +0.000 C 
ENDBRANCH  21  22
ENDBRANCH  20  21
ENDBRANCH  19  20
ENDBRANCH  18  19
ENDBRANCH   4  18
TORSDOF 12
ENDMDL
MODEL 4
REMARK VINA RESULT:      -5.7      6.894      8.848
REMARK  Name = Levobetaxolol
REMARK  14 active torsions:
REMARK  status: ('A' for Active; 'I' for Inactive)
REMARK    1  A    between atoms: C_1  and  C_2
REMARK    2  A    between atoms: C_2  and  C_3
REMARK    3  A    between atoms: C_2  and  N_4
REMARK    4  A    between atoms: N_4  and  C_5
REMARK    5  A    between atoms: C_5  and  C_6
REMARK    6  A    between atoms: C_6  and  O_7
REMARK    7  A    between atoms: C_6  and  C_8
REMARK    8  A    between atoms: C_8  and  O_9
REMARK    9  A    between atoms: O_9  and  C_10
REMARK   10  A    between atoms: C_13  and  C_14
REMARK   11  A    between atoms: C_14  and  C_15
REMARK   12  A    between atoms: C_15  and  O_16
REMARK   13  A    between atoms: O_16  and  C_17
REMARK   14  A    between atoms: C_17  and  C_18
REMARK                            x       y       z     vdW  Elec       q    Type
REMARK                         _______ _______ _______ _____ _____    ______ ____
ROOT
ATOM      1  C   UNL     1      -9.966   3.072 130.385  0.00  0.00    +0.000 A 
ATOM      2  C   UNL     1      -8.998   2.510 129.543  0.00  0.00    +0.000 A 
ATOM      3  C   UNL     1      -8.346   1.332 129.921  0.00  0.00    +0.000 A 
ATOM      4  C   UNL     1      -8.631   0.747 131.155  0.00  0.00    +0.000 A 
ATOM      5  C   UNL     1      -9.615   1.333 131.972  0.00  0.00    +0.000 A 
ATOM      6  C   UNL     1     -10.272   2.486 131.591  0.00  0.00    +0.000 A 
ENDROOT
BRANCH   1   7
ATOM      7  O   UNL     1     -10.697   4.116 129.915  0.00  0.00    +0.000 OA
BRANCH   7   8
ATOM      8  C   UNL     1     -10.263   5.412 130.339  0.00  0.00    +0.000 C 
BRANCH   8   9
ATOM      9  C   UNL     1     -11.358   6.010 131.228  0.00  0.00    +0.000 C 
BRANCH   9  10
ATOM     10  O   UNL     1     -10.779   6.500 132.442  0.00  0.00    +0.000 OA
ATOM     11  H   UNL     1      -9.863   6.174 132.480  0.00  0.00    +0.000 HD
ENDBRANCH   9  10
BRANCH   9  12
ATOM     12  C   UNL     1     -12.187   7.131 130.549  0.00  0.00    +0.000 C 
BRANCH  12  13
ATOM     13  N   UNL     1     -11.413   8.016 129.685  0.00  0.00    +0.000 NA
ATOM     14  H   UNL     1     -11.094   8.845 130.181  0.00  0.00    +0.000 HD
BRANCH  13  16
ATOM     15  C   UNL     1     -10.939   8.131 127.331  0.00  0.00    +0.000 C 
ATOM     16  C   UNL     1     -12.002   8.364 128.409  0.00  0.00    +0.000 C 
ATOM     17  C   UNL     1     -13.225   7.501 128.119  0.00  0.00    +0.000 C 
ENDBRANCH  13  16
ENDBRANCH  12  13
ENDBRANCH   9  12
ENDBRANCH   8   9
ENDBRANCH   7   8
ENDBRANCH   1   7
BRANCH   4  18
ATOM     18  C   UNL     1      -7.866  -0.472 131.609  0.00  0.00    +0.000 C 
BRANCH  18  19
ATOM     19  C   UNL     1      -7.378  -1.297 130.426  0.00  0.00    +0.000 C 
BRANCH  19  20
ATOM     20  O   UNL     1      -7.188  -2.645 130.786  0.00  0.00    +0.000 OA
BRANCH  20  21
ATOM     21  C   UNL     1      -7.204  -3.459 129.615  0.00  0.00    +0.000 C 
BRANCH  21  22
ATOM     22  C   UNL     1      -8.388  -3.101 128.786  0.00  0.00    +0.000 C 
ATOM     23  C   UNL     1      -8.282  -3.134 127.284  0.00  0.00    +0.000 C 
ATOM     24  C   UNL     1      -9.140  -4.143 127.996  0.00  0.00    +0.000 C 
ENDBRANCH  21  22
ENDBRANCH  20  21
ENDBRANCH  19  20
ENDBRANCH  18  19
ENDBRANCH   4  18
TORSDOF 12
ENDMDL
MODEL 5
REMARK VINA RESULT:      -5.7      1.245      1.948
REMARK  Name = Levobetaxolol
REMARK  14 active torsions:
REMARK  status: ('A' for Active; 'I' for Inactive)
REMARK    1  A    between atoms: C_1  and  C_2
REMARK    2  A    between atoms: C_2  and  C_3
REMARK    3  A    between atoms: C_2  and  N_4
REMARK    4  A    between atoms: N_4  and  C_5
REMARK    5  A    between atoms: C_5  and  C_6
REMARK    6  A    between atoms: C_6  and  O_7
REMARK    7  A    between atoms: C_6  and  C_8
REMARK    8  A    between atoms: C_8  and  O_9
REMARK    9  A    between atoms: O_9  and  C_10
REMARK   10  A    between atoms: C_13  and  C_14
REMARK   11  A    between atoms: C_14  and  C_15
REMARK   12  A    between atoms: C_15  and  O_16
REMARK   13  A    between atoms: O_16  and  C_17
REMARK   14  A    between atoms: C_17  and  C_18
REMARK                            x       y       z     vdW  Elec       q    Type
REMARK                         _______ _______ _______ _____ _____    ______ ____
ROOT
ATOM      1  C   UNL     1      -8.510  -0.875 126.295  0.00  0.00    +0.000 A 
ATOM      2  C   UNL     1      -7.815  -0.496 127.449  0.00  0.00    +0.000 A 
ATOM      3  C   UNL     1      -7.559  -1.440 128.449  0.00  0.00    +0.000 A 
ATOM      4  C   UNL     1      -8.035  -2.743 128.310  0.00  0.00    +0.000 A 
ATOM      5  C   UNL     1      -8.722  -3.093 127.133  0.00  0.00    +0.000 A 
ATOM      6  C   UNL     1      -8.960  -2.166 126.138  0.00  0.00    +0.000 A 
ENDROOT
BRANCH   1   7
ATOM      7  O   UNL     1      -8.594   0.017 125.274  0.00  0.00    +0.000 OA
BRANCH   7   8
ATOM      8  C   UNL     1      -9.084  -0.508 124.036  0.00  0.00    +0.000 C 
BRANCH   8   9
ATOM      9  C   UNL     1      -7.923  -0.520 123.036  0.00  0.00    +0.000 C 
BRANCH   9  10
ATOM     10  O   UNL     1      -6.854   0.295 123.530  0.00  0.00    +0.000 OA
ATOM     11  H   UNL     1      -6.843   1.112 123.003  0.00  0.00    +0.000 HD
ENDBRANCH   9  10
BRANCH   9  12
ATOM     12  C   UNL     1      -7.391  -1.936 122.694  0.00  0.00    +0.000 C 
BRANCH  12  13
ATOM     13  N   UNL     1      -5.989  -2.152 123.030  0.00  0.00    +0.000 NA
ATOM     14  H   UNL     1      -5.415  -2.276 122.199  0.00  0.00    +0.000 HD
BRANCH  13  16
ATOM     15  C   UNL     1      -4.463  -3.938 123.545  0.00  0.00    +0.000 C 
ATOM     16  C   UNL     1      -5.701  -3.170 124.019  0.00  0.00    +0.000 C 
ATOM     17  C   UNL     1      -5.427  -2.544 125.382  0.00  0.00    +0.000 C 
ENDBRANCH  13  16
ENDBRANCH  12  13
ENDBRANCH   9  12
ENDBRANCH   8   9
ENDBRANCH   7   8
ENDBRANCH   1   7
BRANCH   4  18
ATOM     18  C   UNL     1      -7.842  -3.743 129.425  0.00  0.00    +0.000 C 
BRANCH  18  19
ATOM     19  C   UNL     1      -7.421  -3.061 130.719  0.00  0.00    +0.000 C 
BRANCH  19  20
ATOM     20  O   UNL     1      -6.378  -3.763 131.352  0.00  0.00    +0.000 OA
BRANCH  20  21
ATOM     21  C   UNL     1      -5.526  -4.345 130.368  0.00  0.00    +0.000 C 
BRANCH  21  22
ATOM     22  C   UNL     1      -4.305  -3.506 130.221  0.00  0.00    +0.000 C 
ATOM     23  C   UNL     1      -3.339  -3.787 129.101  0.00  0.00    +0.000 C 
ATOM     24  C   UNL     1      -4.155  -2.525 129.084  0.00  0.00    +0.000 C 
ENDBRANCH  21  22
ENDBRANCH  20  21
ENDBRANCH  19  20
ENDBRANCH  18  19
ENDBRANCH   4  18
TORSDOF 12
ENDMDL
MODEL 6
REMARK VINA RESULT:      -5.7      9.186     11.318
REMARK  Name = Levobetaxolol
REMARK  14 active torsions:
REMARK  status: ('A' for Active; 'I' for Inactive)
REMARK    1  A    between atoms: C_1  and  C_2
REMARK    2  A    between atoms: C_2  and  C_3
REMARK    3  A    between atoms: C_2  and  N_4
REMARK    4  A    between atoms: N_4  and  C_5
REMARK    5  A    between atoms: C_5  and  C_6
REMARK    6  A    between atoms: C_6  and  O_7
REMARK    7  A    between atoms: C_6  and  C_8
REMARK    8  A    between atoms: C_8  and  O_9
REMARK    9  A    between atoms: O_9  and  C_10
REMARK   10  A    between atoms: C_13  and  C_14
REMARK   11  A    between atoms: C_14  and  C_15
REMARK   12  A    between atoms: C_15  and  O_16
REMARK   13  A    between atoms: O_16  and  C_17
REMARK   14  A    between atoms: C_17  and  C_18
REMARK                            x       y       z     vdW  Elec       q    Type
REMARK                         _______ _______ _______ _____ _____    ______ ____
ROOT
ATOM      1  C   UNL     1      -5.865   6.419 131.817  0.00  0.00    +0.000 A 
ATOM      2  C   UNL     1      -6.398   5.790 132.948  0.00  0.00    +0.000 A 
ATOM      3  C   UNL     1      -7.784   5.661 133.084  0.00  0.00    +0.000 A 
ATOM      4  C   UNL     1      -8.629   6.198 132.113  0.00  0.00    +0.000 A 
ATOM      5  C   UNL     1      -8.059   6.815 130.985  0.00  0.00    +0.000 A 
ATOM      6  C   UNL     1      -6.690   6.927 130.841  0.00  0.00    +0.000 A 
ENDROOT
BRANCH   1   7
ATOM      7  O   UNL     1      -4.519   6.377 131.634  0.00  0.00    +0.000 OA
BRANCH   7   8
ATOM      8  C   UNL     1      -4.069   5.549 130.557  0.00  0.00    +0.000 C 
BRANCH   8   9
ATOM      9  C   UNL     1      -3.218   6.412 129.621  0.00  0.00    +0.000 C 
BRANCH   9  10
ATOM     10  O   UNL     1      -1.852   6.389 130.054  0.00  0.00    +0.000 OA
ATOM     11  H   UNL     1      -1.396   7.129 129.616  0.00  0.00    +0.000 HD
ENDBRANCH   9  10
BRANCH   9  12
ATOM     12  C   UNL     1      -3.304   6.006 128.127  0.00  0.00    +0.000 C 
BRANCH  12  13
ATOM     13  N   UNL     1      -2.251   5.097 127.686  0.00  0.00    +0.000 NA
ATOM     14  H   UNL     1      -1.661   5.519 126.973  0.00  0.00    +0.000 HD
BRANCH  13  16
ATOM     15  C   UNL     1      -3.805   3.896 126.298  0.00  0.00    +0.000 C 
ATOM     16  C   UNL     1      -2.657   3.761 127.305  0.00  0.00    +0.000 C 
ATOM     17  C   UNL     1      -1.501   3.002 126.664  0.00  0.00    +0.000 C 
ENDBRANCH  13  16
ENDBRANCH  12  13
ENDBRANCH   9  12
ENDBRANCH   8   9
ENDBRANCH   7   8
ENDBRANCH   1   7
BRANCH   4  18
ATOM     18  C   UNL     1     -10.126   6.143 132.298  0.00  0.00    +0.000 C 
BRANCH  18  19
ATOM     19  C   UNL     1     -10.859   6.704 131.088  0.00  0.00    +0.000 C 
BRANCH  19  20
ATOM     20  O   UNL     1     -12.189   6.244 131.036  0.00  0.00    +0.000 OA
BRANCH  20  21
ATOM     21  C   UNL     1     -13.052   7.318 130.668  0.00  0.00    +0.000 C 
BRANCH  21  22
ATOM     22  C   UNL     1     -12.330   8.229 129.738  0.00  0.00    +0.000 C 
ATOM     23  C   UNL     1     -12.917   8.529 128.383  0.00  0.00    +0.000 C 
ATOM     24  C   UNL     1     -12.851   9.610 129.426  0.00  0.00    +0.000 C 
ENDBRANCH  21  22
ENDBRANCH  20  21
ENDBRANCH  19  20
ENDBRANCH  18  19
ENDBRANCH   4  18
TORSDOF 12
ENDMDL
MODEL 7
REMARK VINA RESULT:      -5.6      6.330      8.288
REMARK  Name = Levobetaxolol
REMARK  14 active torsions:
REMARK  status: ('A' for Active; 'I' for Inactive)
REMARK    1  A    between atoms: C_1  and  C_2
REMARK    2  A    between atoms: C_2  and  C_3
REMARK    3  A    between atoms: C_2  and  N_4
REMARK    4  A    between atoms: N_4  and  C_5
REMARK    5  A    between atoms: C_5  and  C_6
REMARK    6  A    between atoms: C_6  and  O_7
REMARK    7  A    between atoms: C_6  and  C_8
REMARK    8  A    between atoms: C_8  and  O_9
REMARK    9  A    between atoms: O_9  and  C_10
REMARK   10  A    between atoms: C_13  and  C_14
REMARK   11  A    between atoms: C_14  and  C_15
REMARK   12  A    between atoms: C_15  and  O_16
REMARK   13  A    between atoms: O_16  and  C_17
REMARK   14  A    between atoms: C_17  and  C_18
REMARK                            x       y       z     vdW  Elec       q    Type
REMARK                         _______ _______ _______ _____ _____    ______ ____
ROOT
ATOM      1  C   UNL     1      -9.391   2.648 130.189  0.00  0.00    +0.000 A 
ATOM      2  C   UNL     1      -9.737   2.195 131.468  0.00  0.00    +0.000 A 
ATOM      3  C   UNL     1      -9.101   1.070 132.004  0.00  0.00    +0.000 A 
ATOM      4  C   UNL     1      -8.157   0.380 131.244  0.00  0.00    +0.000 A 
ATOM      5  C   UNL     1      -7.826   0.868 129.966  0.00  0.00    +0.000 A 
ATOM      6  C   UNL     1      -8.442   1.989 129.444  0.00  0.00    +0.000 A 
ENDROOT
BRANCH   1   7
ATOM      7  O   UNL     1      -9.902   3.834 129.769  0.00  0.00    +0.000 OA
BRANCH   7   8
ATOM      8  C   UNL     1      -8.938   4.852 129.480  0.00  0.00    +0.000 C 
BRANCH   8   9
ATOM      9  C   UNL     1      -9.690   6.171 129.276  0.00  0.00    +0.000 C 
BRANCH   9  10
ATOM     10  O   UNL     1      -9.864   6.414 127.875  0.00  0.00    +0.000 OA
ATOM     11  H   UNL     1      -8.987   6.612 127.504  0.00  0.00    +0.000 HD
ENDBRANCH   9  10
BRANCH   9  12
ATOM     12  C   UNL     1     -11.061   6.239 129.997  0.00  0.00    +0.000 C 
BRANCH  12  13
ATOM     13  N   UNL     1     -12.205   5.923 129.150  0.00  0.00    +0.000 NA
ATOM     14  H   UNL     1     -11.918   5.539 128.252  0.00  0.00    +0.000 HD
BRANCH  13  16
ATOM     15  C   UNL     1     -12.737   8.182 129.780  0.00  0.00    +0.000 C 
ATOM     16  C   UNL     1     -13.201   6.961 128.979  0.00  0.00    +0.000 C 
ATOM     17  C   UNL     1     -13.349   7.338 127.509  0.00  0.00    +0.000 C 
ENDBRANCH  13  16
ENDBRANCH  12  13
ENDBRANCH   9  12
ENDBRANCH   8   9
ENDBRANCH   7   8
ENDBRANCH   1   7
BRANCH   4  18
ATOM     18  C   UNL     1      -7.533  -0.886 131.779  0.00  0.00    +0.000 C 
BRANCH  18  19
ATOM     19  C   UNL     1      -8.019  -2.112 131.020  0.00  0.00    +0.000 C 
BRANCH  19  20
ATOM     20  O   UNL     1      -6.988  -3.058 130.861  0.00  0.00    +0.000 OA
BRANCH  20  21
ATOM     21  C   UNL     1      -6.973  -3.529 129.516  0.00  0.00    +0.000 C 
BRANCH  21  22
ATOM     22  C   UNL     1      -8.236  -3.120 128.841  0.00  0.00    +0.000 C 
ATOM     23  C   UNL     1      -8.237  -2.864 127.356  0.00  0.00    +0.000 C 
ATOM     24  C   UNL     1      -8.969  -4.055 127.910  0.00  0.00    +0.000 C 
ENDBRANCH  21  22
ENDBRANCH  20  21
ENDBRANCH  19  20
ENDBRANCH  18  19
ENDBRANCH   4  18
TORSDOF 12
ENDMDL
MODEL 8
REMARK VINA RESULT:      -5.6      3.194      3.914
REMARK  Name = Levobetaxolol
REMARK  14 active torsions:
REMARK  status: ('A' for Active; 'I' for Inactive)
REMARK    1  A    between atoms: C_1  and  C_2
REMARK    2  A    between atoms: C_2  and  C_3
REMARK    3  A    between atoms: C_2  and  N_4
REMARK    4  A    between atoms: N_4  and  C_5
REMARK    5  A    between atoms: C_5  and  C_6
REMARK    6  A    between atoms: C_6  and  O_7
REMARK    7  A    between atoms: C_6  and  C_8
REMARK    8  A    between atoms: C_8  and  O_9
REMARK    9  A    between atoms: O_9  and  C_10
REMARK   10  A    between atoms: C_13  and  C_14
REMARK   11  A    between atoms: C_14  and  C_15
REMARK   12  A    between atoms: C_15  and  O_16
REMARK   13  A    between atoms: O_16  and  C_17
REMARK   14  A    between atoms: C_17  and  C_18
REMARK                            x       y       z     vdW  Elec       q    Type
REMARK                         _______ _______ _______ _____ _____    ______ ____
ROOT
ATOM      1  C   UNL     1      -8.218  -0.500 125.878  0.00  0.00    +0.000 A 
ATOM      2  C   UNL     1      -7.684  -0.172 127.130  0.00  0.00    +0.000 A 
ATOM      3  C   UNL     1      -7.580  -1.154 128.120  0.00  0.00    +0.000 A 
ATOM      4  C   UNL     1      -8.049  -2.444 127.870  0.00  0.00    +0.000 A 
ATOM      5  C   UNL     1      -8.571  -2.741 126.598  0.00  0.00    +0.000 A 
ATOM      6  C   UNL     1      -8.657  -1.776 125.613  0.00  0.00    +0.000 A 
ENDROOT
BRANCH   1   7
ATOM      7  O   UNL     1      -8.149   0.429 124.888  0.00  0.00    +0.000 OA
BRANCH   7   8
ATOM      8  C   UNL     1      -9.201   0.375 123.920  0.00  0.00    +0.000 C 
BRANCH   8   9
ATOM      9  C   UNL     1      -9.688   1.806 123.672  0.00  0.00    +0.000 C 
BRANCH   9  10
ATOM     10  O   UNL     1      -9.523   2.584 124.864  0.00  0.00    +0.000 OA
ATOM     11  H   UNL     1      -9.715   2.002 125.619  0.00  0.00    +0.000 HD
ENDBRANCH   9  10
BRANCH   9  12
ATOM     12  C   UNL     1      -8.997   2.517 122.479  0.00  0.00    +0.000 C 
BRANCH  12  13
ATOM     13  N   UNL     1      -8.080   3.584 122.861  0.00  0.00    +0.000 NA
ATOM     14  H   UNL     1      -8.249   4.436 122.332  0.00  0.00    +0.000 HD
BRANCH  13  16
ATOM     15  C   UNL     1      -6.034   3.852 121.625  0.00  0.00    +0.000 C 
ATOM     16  C   UNL     1      -6.669   3.257 122.886  0.00  0.00    +0.000 C 
ATOM     17  C   UNL     1      -5.996   3.840 124.123  0.00  0.00    +0.000 C 
ENDBRANCH  13  16
ENDBRANCH  12  13
ENDBRANCH   9  12
ENDBRANCH   8   9
ENDBRANCH   7   8
ENDBRANCH   1   7
BRANCH   4  18
ATOM     18  C   UNL     1      -8.024  -3.484 128.964  0.00  0.00    +0.000 C 
BRANCH  18  19
ATOM     19  C   UNL     1      -7.800  -2.852 130.330  0.00  0.00    +0.000 C 
BRANCH  19  20
ATOM     20  O   UNL     1      -6.831  -3.559 131.068  0.00  0.00    +0.000 OA
BRANCH  20  21
ATOM     21  C   UNL     1      -5.896  -4.162 130.177  0.00  0.00    +0.000 C 
BRANCH  21  22
ATOM     22  C   UNL     1      -4.714  -3.269 130.031  0.00  0.00    +0.000 C 
ATOM     23  C   UNL     1      -3.511  -3.746 129.260  0.00  0.00    +0.000 C 
ATOM     24  C   UNL     1      -4.362  -2.638 128.706  0.00  0.00    +0.000 C 
ENDBRANCH  21  22
ENDBRANCH  20  21
ENDBRANCH  19  20
ENDBRANCH  18  19
ENDBRANCH   4  18
TORSDOF 12
ENDMDL
MODEL 9
REMARK VINA RESULT:      -5.6      1.949      3.506
REMARK  Name = Levobetaxolol
REMARK  14 active torsions:
REMARK  status: ('A' for Active; 'I' for Inactive)
REMARK    1  A    between atoms: C_1  and  C_2
REMARK    2  A    between atoms: C_2  and  C_3
REMARK    3  A    between atoms: C_2  and  N_4
REMARK    4  A    between atoms: N_4  and  C_5
REMARK    5  A    between atoms: C_5  and  C_6
REMARK    6  A    between atoms: C_6  and  O_7
REMARK    7  A    between atoms: C_6  and  C_8
REMARK    8  A    between atoms: C_8  and  O_9
REMARK    9  A    between atoms: O_9  and  C_10
REMARK   10  A    between atoms: C_13  and  C_14
REMARK   11  A    between atoms: C_14  and  C_15
REMARK   12  A    between atoms: C_15  and  O_16
REMARK   13  A    between atoms: O_16  and  C_17
REMARK   14  A    between atoms: C_17  and  C_18
REMARK                            x       y       z     vdW  Elec       q    Type
REMARK                         _______ _______ _______ _____ _____    ______ ____
ROOT
ATOM      1  C   UNL     1      -7.216  -2.562 128.006  0.00  0.00    +0.000 A 
ATOM      2  C   UNL     1      -5.847  -2.319 127.843  0.00  0.00    +0.000 A 
ATOM      3  C   UNL     1      -4.937  -2.809 128.786  0.00  0.00    +0.000 A 
ATOM      4  C   UNL     1      -5.402  -3.497 129.906  0.00  0.00    +0.000 A 
ATOM      5  C   UNL     1      -6.784  -3.731 130.034  0.00  0.00    +0.000 A 
ATOM      6  C   UNL     1      -7.681  -3.263 129.093  0.00  0.00    +0.000 A 
ENDROOT
BRANCH   1   7
ATOM      7  O   UNL     1      -8.053  -2.221 126.991  0.00  0.00    +0.000 OA
BRANCH   7   8
ATOM      8  C   UNL     1      -8.849  -3.289 126.465  0.00  0.00    +0.000 C 
BRANCH   8   9
ATOM      9  C   UNL     1      -9.296  -2.894 125.054  0.00  0.00    +0.000 C 
BRANCH   9  10
ATOM     10  O   UNL     1      -9.549  -1.485 125.007  0.00  0.00    +0.000 OA
ATOM     11  H   UNL     1      -8.758  -1.060 124.631  0.00  0.00    +0.000 HD
ENDBRANCH   9  10
BRANCH   9  12
ATOM     12  C   UNL     1      -8.297  -3.288 123.936  0.00  0.00    +0.000 C 
BRANCH  12  13
ATOM     13  N   UNL     1      -6.949  -3.584 124.407  0.00  0.00    +0.000 NA
ATOM     14  H   UNL     1      -6.918  -3.701 125.417  0.00  0.00    +0.000 HD
BRANCH  13  16
ATOM     15  C   UNL     1      -4.686  -3.590 123.593  0.00  0.00    +0.000 C 
ATOM     16  C   UNL     1      -5.889  -2.710 123.949  0.00  0.00    +0.000 C 
ATOM     17  C   UNL     1      -6.326  -1.918 122.723  0.00  0.00    +0.000 C 
ENDBRANCH  13  16
ENDBRANCH  12  13
ENDBRANCH   9  12
ENDBRANCH   8   9
ENDBRANCH   7   8
ENDBRANCH   1   7
BRANCH   4  18
ATOM     18  C   UNL     1      -4.434  -3.948 130.973  0.00  0.00    +0.000 C 
BRANCH  18  19
ATOM     19  C   UNL     1      -5.127  -4.790 132.035  0.00  0.00    +0.000 C 
BRANCH  19  20
ATOM     20  O   UNL     1      -4.586  -4.549 133.312  0.00  0.00    +0.000 OA
BRANCH  20  21
ATOM     21  C   UNL     1      -5.480  -3.731 134.064  0.00  0.00    +0.000 C 
BRANCH  21  22
ATOM     22  C   UNL     1      -6.881  -4.061 133.685  0.00  0.00    +0.000 C 
ATOM     23  C   UNL     1      -7.960  -4.048 134.736  0.00  0.00    +0.000 C 
ATOM     24  C   UNL     1      -7.958  -3.004 133.653  0.00  0.00    +0.000 C 
ENDBRANCH  21  22
ENDBRANCH  20  21
ENDBRANCH  19  20
ENDBRANCH  18  19
ENDBRANCH   4  18
TORSDOF 12
ENDMDL
