MODEL 1
REMARK VINA RESULT:      -7.0      0.000      0.000
REMARK  Name = Levobupivacaine
REMARK  8 active torsions:
REMARK  status: ('A' for Active; 'I' for Inactive)
REMARK    1  A    between atoms: C_1  and  C_2
REMARK    2  A    between atoms: C_2  and  C_3
REMARK    3  A    between atoms: C_3  and  C_4
REMARK    4  A    between atoms: C_4  and  N_5
REMARK    5  A    between atoms: C_10  and  C_11
REMARK    6  A    between atoms: N_13  and  C_14
REMARK    7  A    between atoms: C_15  and  C_16
REMARK    8  A    between atoms: C_20  and  C_21
REMARK                            x       y       z     vdW  Elec       q    Type
REMARK                         _______ _______ _______ _____ _____    ______ ____
ROOT
ATOM      1  C   UNL     1      -7.437   2.227 122.868  0.00  0.00    +0.000 C 
ATOM      2  O   UNL     1      -6.693   1.495 122.183  0.00  0.00    +0.000 OA
ATOM      3  N   UNL     1      -7.533   3.583 122.563  0.00  0.00    +0.000 N 
ATOM      4  H   UNL     1      -7.537   4.218 123.351  0.00  0.00    +0.000 HD
ENDROOT
BRANCH   3   5
ATOM      5  C   UNL     1      -6.963   4.034 121.324  0.00  0.00    +0.000 A 
ATOM      6  C   UNL     1      -5.636   4.466 121.299  0.00  0.00    +0.000 A 
ATOM      7  C   UNL     1      -4.818   4.375 122.506  0.00  0.00    +0.000 C 
ATOM      8  C   UNL     1      -5.028   5.077 120.198  0.00  0.00    +0.000 A 
ATOM      9  C   UNL     1      -5.733   5.174 119.027  0.00  0.00    +0.000 A 
ATOM     10  C   UNL     1      -7.040   4.683 118.996  0.00  0.00    +0.000 A 
ATOM     11  C   UNL     1      -7.667   4.113 120.134  0.00  0.00    +0.000 A 
ATOM     12  C   UNL     1      -9.094   3.694 120.072  0.00  0.00    +0.000 C 
ENDBRANCH   3   5
BRANCH   1  18
ATOM     13  N   UNL     1      -8.241   0.173 124.271  0.00  0.00    +0.000 NA
ATOM     14  C   UNL     1      -6.883  -0.386 124.355  0.00  0.00    +0.000 C 
ATOM     15  C   UNL     1      -6.053   0.271 125.459  0.00  0.00    +0.000 C 
ATOM     16  C   UNL     1      -6.092   1.797 125.419  0.00  0.00    +0.000 C 
ATOM     17  C   UNL     1      -7.535   2.297 125.342  0.00  0.00    +0.000 C 
ATOM     18  C   UNL     1      -8.225   1.680 124.117  0.00  0.00    +0.000 C 
BRANCH  13  19
ATOM     19  C   UNL     1      -9.072  -0.574 123.286  0.00  0.00    +0.000 C 
BRANCH  19  20
ATOM     20  C   UNL     1      -8.592  -2.005 123.074  0.00  0.00    +0.000 C 
BRANCH  20  22
ATOM     21  C   UNL     1      -9.273  -3.194 125.257  0.00  0.00    +0.000 C 
ATOM     22  C   UNL     1      -9.333  -3.168 123.720  0.00  0.00    +0.000 C 
ENDBRANCH  20  22
ENDBRANCH  19  20
ENDBRANCH  13  19
ENDBRANCH   1  18
TORSDOF 5
ENDMDL
MODEL 2
REMARK VINA RESULT:      -6.8      1.415      2.487
REMARK  Name = Levobupivacaine
REMARK  8 active torsions:
REMARK  status: ('A' for Active; 'I' for Inactive)
REMARK    1  A    between atoms: C_1  and  C_2
REMARK    2  A    between atoms: C_2  and  C_3
REMARK    3  A    between atoms: C_3  and  C_4
REMARK    4  A    between atoms: C_4  and  N_5
REMARK    5  A    between atoms: C_10  and  C_11
REMARK    6  A    between atoms: N_13  and  C_14
REMARK    7  A    between atoms: C_15  and  C_16
REMARK    8  A    between atoms: C_20  and  C_21
REMARK                            x       y       z     vdW  Elec       q    Type
REMARK                         _______ _______ _______ _____ _____    ______ ____
ROOT
ATOM      1  C   UNL     1      -8.201   1.418 123.236  0.00  0.00    +0.000 C 
ATOM      2  O   UNL     1      -7.169   0.832 122.851  0.00  0.00    +0.000 OA
ATOM      3  N   UNL     1      -8.280   2.806 123.132  0.00  0.00    +0.000 N 
ATOM      4  H   UNL     1      -8.685   3.289 123.923  0.00  0.00    +0.000 HD
ENDROOT
BRANCH   3   5
ATOM      5  C   UNL     1      -7.271   3.479 122.361  0.00  0.00    +0.000 A 
ATOM      6  C   UNL     1      -7.524   3.783 121.023  0.00  0.00    +0.000 A 
ATOM      7  C   UNL     1      -8.835   3.495 120.446  0.00  0.00    +0.000 C 
ATOM      8  C   UNL     1      -6.565   4.283 120.135  0.00  0.00    +0.000 A 
ATOM      9  C   UNL     1      -5.321   4.594 120.617  0.00  0.00    +0.000 A 
ATOM     10  C   UNL     1      -5.059   4.371 121.971  0.00  0.00    +0.000 A 
ATOM     11  C   UNL     1      -6.021   3.815 122.852  0.00  0.00    +0.000 A 
ATOM     12  C   UNL     1      -5.656   3.508 124.263  0.00  0.00    +0.000 C 
ENDBRANCH   3   5
BRANCH   1  18
ATOM     13  N   UNL     1      -9.074  -0.736 124.431  0.00  0.00    +0.000 NA
ATOM     14  C   UNL     1      -7.991  -0.703 125.426  0.00  0.00    +0.000 C 
ATOM     15  C   UNL     1      -8.284   0.267 126.571  0.00  0.00    +0.000 C 
ATOM     16  C   UNL     1      -8.727   1.648 126.094  0.00  0.00    +0.000 C 
ATOM     17  C   UNL     1      -9.859   1.529 125.073  0.00  0.00    +0.000 C 
ATOM     18  C   UNL     1      -9.401   0.646 123.903  0.00  0.00    +0.000 C 
BRANCH  13  19
ATOM     19  C   UNL     1      -8.830  -1.786 123.403  0.00  0.00    +0.000 C 
BRANCH  19  20
ATOM     20  C   UNL     1      -9.226  -3.179 123.876  0.00  0.00    +0.000 C 
BRANCH  20  22
ATOM     21  C   UNL     1      -6.759  -3.807 124.289  0.00  0.00    +0.000 C 
ATOM     22  C   UNL     1      -8.236  -4.038 124.653  0.00  0.00    +0.000 C 
ENDBRANCH  20  22
ENDBRANCH  19  20
ENDBRANCH  13  19
ENDBRANCH   1  18
TORSDOF 5
ENDMDL
MODEL 3
REMARK VINA RESULT:      -6.5      3.613      7.375
REMARK  Name = Levobupivacaine
REMARK  8 active torsions:
REMARK  status: ('A' for Active; 'I' for Inactive)
REMARK    1  A    between atoms: C_1  and  C_2
REMARK    2  A    between atoms: C_2  and  C_3
REMARK    3  A    between atoms: C_3  and  C_4
REMARK    4  A    between atoms: C_4  and  N_5
REMARK    5  A    between atoms: C_10  and  C_11
REMARK    6  A    between atoms: N_13  and  C_14
REMARK    7  A    between atoms: C_15  and  C_16
REMARK    8  A    between atoms: C_20  and  C_21
REMARK                            x       y       z     vdW  Elec       q    Type
REMARK                         _______ _______ _______ _____ _____    ______ ____
ROOT
ATOM      1  C   UNL     1      -7.161  -0.589 125.691  0.00  0.00    +0.000 C 
ATOM      2  O   UNL     1      -7.876   0.138 126.411  0.00  0.00    +0.000 OA
ATOM      3  N   UNL     1      -6.629  -1.764 126.219  0.00  0.00    +0.000 N 
ATOM      4  H   UNL     1      -5.667  -1.964 125.980  0.00  0.00    +0.000 HD
ENDROOT
BRANCH   3   5
ATOM      5  C   UNL     1      -7.127  -2.214 127.489  0.00  0.00    +0.000 A 
ATOM      6  C   UNL     1      -6.399  -1.932 128.647  0.00  0.00    +0.000 A 
ATOM      7  C   UNL     1      -5.192  -1.114 128.566  0.00  0.00    +0.000 C 
ATOM      8  C   UNL     1      -6.695  -2.457 129.909  0.00  0.00    +0.000 A 
ATOM      9  C   UNL     1      -7.827  -3.215 130.057  0.00  0.00    +0.000 A 
ATOM     10  C   UNL     1      -8.618  -3.454 128.932  0.00  0.00    +0.000 A 
ATOM     11  C   UNL     1      -8.281  -2.962 127.645  0.00  0.00    +0.000 A 
ATOM     12  C   UNL     1      -9.109  -3.328 126.463  0.00  0.00    +0.000 C 
ENDBRANCH   3   5
BRANCH   1  18
ATOM     13  N   UNL     1      -7.507  -0.941 123.124  0.00  0.00    +0.000 NA
ATOM     14  C   UNL     1      -8.967  -0.792 123.233  0.00  0.00    +0.000 C 
ATOM     15  C   UNL     1      -9.399   0.675 123.272  0.00  0.00    +0.000 C 
ATOM     16  C   UNL     1      -8.615   1.509 124.283  0.00  0.00    +0.000 C 
ATOM     17  C   UNL     1      -7.111   1.307 124.098  0.00  0.00    +0.000 C 
ATOM     18  C   UNL     1      -6.778  -0.187 124.217  0.00  0.00    +0.000 C 
BRANCH  13  19
ATOM     19  C   UNL     1      -7.123  -2.369 122.949  0.00  0.00    +0.000 C 
BRANCH  19  20
ATOM     20  C   UNL     1      -5.614  -2.579 122.949  0.00  0.00    +0.000 C 
BRANCH  20  22
ATOM     21  C   UNL     1      -4.206  -4.689 123.411  0.00  0.00    +0.000 C 
ATOM     22  C   UNL     1      -4.963  -3.480 123.990  0.00  0.00    +0.000 C 
ENDBRANCH  20  22
ENDBRANCH  19  20
ENDBRANCH  13  19
ENDBRANCH   1  18
TORSDOF 5
ENDMDL
MODEL 4
REMARK VINA RESULT:      -6.5      2.552      7.452
REMARK  Name = Levobupivacaine
REMARK  8 active torsions:
REMARK  status: ('A' for Active; 'I' for Inactive)
REMARK    1  A    between atoms: C_1  and  C_2
REMARK    2  A    between atoms: C_2  and  C_3
REMARK    3  A    between atoms: C_3  and  C_4
REMARK    4  A    between atoms: C_4  and  N_5
REMARK    5  A    between atoms: C_10  and  C_11
REMARK    6  A    between atoms: N_13  and  C_14
REMARK    7  A    between atoms: C_15  and  C_16
REMARK    8  A    between atoms: C_20  and  C_21
REMARK                            x       y       z     vdW  Elec       q    Type
REMARK                         _______ _______ _______ _____ _____    ______ ____
ROOT
ATOM      1  C   UNL     1      -8.979  -0.315 125.203  0.00  0.00    +0.000 C 
ATOM      2  O   UNL     1     -10.080  -0.364 125.788  0.00  0.00    +0.000 OA
ATOM      3  N   UNL     1      -7.837  -0.782 125.852  0.00  0.00    +0.000 N 
ATOM      4  H   UNL     1      -7.004  -0.218 125.749  0.00  0.00    +0.000 HD
ENDROOT
BRANCH   3   5
ATOM      5  C   UNL     1      -8.015  -1.525 127.070  0.00  0.00    +0.000 A 
ATOM      6  C   UNL     1      -7.789  -0.893 128.294  0.00  0.00    +0.000 A 
ATOM      7  C   UNL     1      -7.461   0.529 128.330  0.00  0.00    +0.000 C 
ATOM      8  C   UNL     1      -7.769  -1.554 129.527  0.00  0.00    +0.000 A 
ATOM      9  C   UNL     1      -8.089  -2.886 129.565  0.00  0.00    +0.000 A 
ATOM     10  C   UNL     1      -8.393  -3.531 128.365  0.00  0.00    +0.000 A 
ATOM     11  C   UNL     1      -8.360  -2.865 127.112  0.00  0.00    +0.000 A 
ATOM     12  C   UNL     1      -8.598  -3.624 125.854  0.00  0.00    +0.000 C 
ENDBRANCH   3   5
BRANCH   1  18
ATOM     13  N   UNL     1      -7.394   0.541 123.308  0.00  0.00    +0.000 NA
ATOM     14  C   UNL     1      -6.624  -0.713 123.295  0.00  0.00    +0.000 C 
ATOM     15  C   UNL     1      -7.310  -1.806 122.474  0.00  0.00    +0.000 C 
ATOM     16  C   UNL     1      -8.784  -1.991 122.825  0.00  0.00    +0.000 C 
ATOM     17  C   UNL     1      -9.515  -0.648 122.808  0.00  0.00    +0.000 C 
ATOM     18  C   UNL     1      -8.820   0.324 123.772  0.00  0.00    +0.000 C 
BRANCH  13  19
ATOM     19  C   UNL     1      -6.643   1.628 123.995  0.00  0.00    +0.000 C 
BRANCH  19  20
ATOM     20  C   UNL     1      -6.960   3.009 123.437  0.00  0.00    +0.000 C 
BRANCH  20  22
ATOM     21  C   UNL     1      -5.615   3.365 121.267  0.00  0.00    +0.000 C 
ATOM     22  C   UNL     1      -6.997   3.242 121.932  0.00  0.00    +0.000 C 
ENDBRANCH  20  22
ENDBRANCH  19  20
ENDBRANCH  13  19
ENDBRANCH   1  18
TORSDOF 5
ENDMDL
MODEL 5
REMARK VINA RESULT:      -6.5      8.104     10.340
REMARK  Name = Levobupivacaine
REMARK  8 active torsions:
REMARK  status: ('A' for Active; 'I' for Inactive)
REMARK    1  A    between atoms: C_1  and  C_2
REMARK    2  A    between atoms: C_2  and  C_3
REMARK    3  A    between atoms: C_3  and  C_4
REMARK    4  A    between atoms: C_4  and  N_5
REMARK    5  A    between atoms: C_10  and  C_11
REMARK    6  A    between atoms: N_13  and  C_14
REMARK    7  A    between atoms: C_15  and  C_16
REMARK    8  A    between atoms: C_20  and  C_21
REMARK                            x       y       z     vdW  Elec       q    Type
REMARK                         _______ _______ _______ _____ _____    ______ ____
ROOT
ATOM      1  C   UNL     1      -9.025   5.929 130.043  0.00  0.00    +0.000 C 
ATOM      2  O   UNL     1      -8.633   7.077 130.341  0.00  0.00    +0.000 OA
ATOM      3  N   UNL     1     -10.354   5.734 129.671  0.00  0.00    +0.000 N 
ATOM      4  H   UNL     1     -10.807   4.914 130.050  0.00  0.00    +0.000 HD
ENDROOT
BRANCH   3   5
ATOM      5  C   UNL     1     -11.154   6.899 129.407  0.00  0.00    +0.000 A 
ATOM      6  C   UNL     1     -11.960   7.418 130.421  0.00  0.00    +0.000 A 
ATOM      7  C   UNL     1     -11.918   6.829 131.757  0.00  0.00    +0.000 C 
ATOM      8  C   UNL     1     -12.899   8.438 130.235  0.00  0.00    +0.000 A 
ATOM      9  C   UNL     1     -12.974   9.047 129.010  0.00  0.00    +0.000 A 
ATOM     10  C   UNL     1     -12.127   8.601 127.993  0.00  0.00    +0.000 A 
ATOM     11  C   UNL     1     -11.215   7.530 128.176  0.00  0.00    +0.000 A 
ATOM     12  C   UNL     1     -10.406   7.031 127.030  0.00  0.00    +0.000 C 
ENDBRANCH   3   5
BRANCH   1  18
ATOM     13  N   UNL     1      -6.786   4.887 130.898  0.00  0.00    +0.000 NA
ATOM     14  C   UNL     1      -7.023   5.342 132.278  0.00  0.00    +0.000 C 
ATOM     15  C   UNL     1      -7.960   4.406 133.044  0.00  0.00    +0.000 C 
ATOM     16  C   UNL     1      -9.235   4.067 132.277  0.00  0.00    +0.000 C 
ATOM     17  C   UNL     1      -8.904   3.594 130.861  0.00  0.00    +0.000 C 
ATOM     18  C   UNL     1      -8.081   4.673 130.142  0.00  0.00    +0.000 C 
BRANCH  13  19
ATOM     19  C   UNL     1      -5.766   5.734 130.219  0.00  0.00    +0.000 C 
BRANCH  19  20
ATOM     20  C   UNL     1      -5.327   6.922 131.065  0.00  0.00    +0.000 C 
BRANCH  20  22
ATOM     21  C   UNL     1      -3.043   7.791 131.887  0.00  0.00    +0.000 C 
ATOM     22  C   UNL     1      -4.048   7.677 130.727  0.00  0.00    +0.000 C 
ENDBRANCH  20  22
ENDBRANCH  19  20
ENDBRANCH  13  19
ENDBRANCH   1  18
TORSDOF 5
ENDMDL
MODEL 6
REMARK VINA RESULT:      -6.5      2.557      6.946
REMARK  Name = Levobupivacaine
REMARK  8 active torsions:
REMARK  status: ('A' for Active; 'I' for Inactive)
REMARK    1  A    between atoms: C_1  and  C_2
REMARK    2  A    between atoms: C_2  and  C_3
REMARK    3  A    between atoms: C_3  and  C_4
REMARK    4  A    between atoms: C_4  and  N_5
REMARK    5  A    between atoms: C_10  and  C_11
REMARK    6  A    between atoms: N_13  and  C_14
REMARK    7  A    between atoms: C_15  and  C_16
REMARK    8  A    between atoms: C_20  and  C_21
REMARK                            x       y       z     vdW  Elec       q    Type
REMARK                         _______ _______ _______ _____ _____    ______ ____
ROOT
ATOM      1  C   UNL     1      -7.633   0.982 125.331  0.00  0.00    +0.000 C 
ATOM      2  O   UNL     1      -6.575   0.488 124.890  0.00  0.00    +0.000 OA
ATOM      3  N   UNL     1      -8.795   0.214 125.341  0.00  0.00    +0.000 N 
ATOM      4  H   UNL     1      -9.644   0.686 125.057  0.00  0.00    +0.000 HD
ENDROOT
BRANCH   3   5
ATOM      5  C   UNL     1      -8.672  -1.192 125.074  0.00  0.00    +0.000 A 
ATOM      6  C   UNL     1      -8.986  -1.677 123.803  0.00  0.00    +0.000 A 
ATOM      7  C   UNL     1      -9.351  -0.745 122.739  0.00  0.00    +0.000 C 
ATOM      8  C   UNL     1      -9.063  -3.034 123.476  0.00  0.00    +0.000 A 
ATOM      9  C   UNL     1      -8.713  -3.960 124.423  0.00  0.00    +0.000 A 
ATOM     10  C   UNL     1      -8.322  -3.505 125.684  0.00  0.00    +0.000 A 
ATOM     11  C   UNL     1      -8.297  -2.128 126.023  0.00  0.00    +0.000 A 
ATOM     12  C   UNL     1      -7.966  -1.704 127.412  0.00  0.00    +0.000 C 
ENDBRANCH   3   5
BRANCH   1  18
ATOM     13  N   UNL     1      -6.392   3.202 125.935  0.00  0.00    +0.000 NA
ATOM     14  C   UNL     1      -5.655   3.215 124.661  0.00  0.00    +0.000 C 
ATOM     15  C   UNL     1      -6.490   3.784 123.513  0.00  0.00    +0.000 C 
ATOM     16  C   UNL     1      -7.883   3.166 123.415  0.00  0.00    +0.000 C 
ATOM     17  C   UNL     1      -8.585   3.200 124.773  0.00  0.00    +0.000 C 
ATOM     18  C   UNL     1      -7.717   2.479 125.815  0.00  0.00    +0.000 C 
BRANCH  13  19
ATOM     19  C   UNL     1      -5.515   2.775 127.060  0.00  0.00    +0.000 C 
BRANCH  19  20
ATOM     20  C   UNL     1      -4.099   2.438 126.611  0.00  0.00    +0.000 C 
BRANCH  20  22
ATOM     21  C   UNL     1      -1.589   3.016 126.498  0.00  0.00    +0.000 C 
ATOM     22  C   UNL     1      -2.900   3.074 127.302  0.00  0.00    +0.000 C 
ENDBRANCH  20  22
ENDBRANCH  19  20
ENDBRANCH  13  19
ENDBRANCH   1  18
TORSDOF 5
ENDMDL
MODEL 7
REMARK VINA RESULT:      -6.5      5.260      8.831
REMARK  Name = Levobupivacaine
REMARK  8 active torsions:
REMARK  status: ('A' for Active; 'I' for Inactive)
REMARK    1  A    between atoms: C_1  and  C_2
REMARK    2  A    between atoms: C_2  and  C_3
REMARK    3  A    between atoms: C_3  and  C_4
REMARK    4  A    between atoms: C_4  and  N_5
REMARK    5  A    between atoms: C_10  and  C_11
REMARK    6  A    between atoms: N_13  and  C_14
REMARK    7  A    between atoms: C_15  and  C_16
REMARK    8  A    between atoms: C_20  and  C_21
REMARK                            x       y       z     vdW  Elec       q    Type
REMARK                         _______ _______ _______ _____ _____    ______ ____
ROOT
ATOM      1  C   UNL     1      -6.598  -1.962 127.402  0.00  0.00    +0.000 C 
ATOM      2  O   UNL     1      -7.353  -2.956 127.439  0.00  0.00    +0.000 OA
ATOM      3  N   UNL     1      -5.939  -1.560 128.562  0.00  0.00    +0.000 N 
ATOM      4  H   UNL     1      -5.908  -0.564 128.735  0.00  0.00    +0.000 HD
ENDROOT
BRANCH   3   5
ATOM      5  C   UNL     1      -5.963  -2.450 129.690  0.00  0.00    +0.000 A 
ATOM      6  C   UNL     1      -6.981  -2.324 130.638  0.00  0.00    +0.000 A 
ATOM      7  C   UNL     1      -8.053  -1.354 130.430  0.00  0.00    +0.000 C 
ATOM      8  C   UNL     1      -7.015  -3.018 131.852  0.00  0.00    +0.000 A 
ATOM      9  C   UNL     1      -6.050  -3.958 132.099  0.00  0.00    +0.000 A 
ATOM     10  C   UNL     1      -5.058  -4.162 131.138  0.00  0.00    +0.000 A 
ATOM     11  C   UNL     1      -5.002  -3.416 129.932  0.00  0.00    +0.000 A 
ATOM     12  C   UNL     1      -3.868  -3.606 128.986  0.00  0.00    +0.000 C 
ENDBRANCH   3   5
BRANCH   1  18
ATOM     13  N   UNL     1      -7.268  -1.514 124.916  0.00  0.00    +0.000 NA
ATOM     14  C   UNL     1      -8.704  -1.489 125.238  0.00  0.00    +0.000 C 
ATOM     15  C   UNL     1      -9.151  -0.135 125.791  0.00  0.00    +0.000 C 
ATOM     16  C   UNL     1      -8.257   0.385 126.913  0.00  0.00    +0.000 C 
ATOM     17  C   UNL     1      -6.786   0.336 126.498  0.00  0.00    +0.000 C 
ATOM     18  C   UNL     1      -6.416  -1.099 126.098  0.00  0.00    +0.000 C 
BRANCH  13  19
ATOM     19  C   UNL     1      -6.887  -2.792 124.253  0.00  0.00    +0.000 C 
BRANCH  19  20
ATOM     20  C   UNL     1      -5.703  -2.636 123.307  0.00  0.00    +0.000 C 
BRANCH  20  22
ATOM     21  C   UNL     1      -4.396  -4.850 123.500  0.00  0.00    +0.000 C 
ATOM     22  C   UNL     1      -4.376  -3.316 123.616  0.00  0.00    +0.000 C 
ENDBRANCH  20  22
ENDBRANCH  19  20
ENDBRANCH  13  19
ENDBRANCH   1  18
TORSDOF 5
ENDMDL
MODEL 8
REMARK VINA RESULT:      -6.4      7.197     10.313
REMARK  Name = Levobupivacaine
REMARK  8 active torsions:
REMARK  status: ('A' for Active; 'I' for Inactive)
REMARK    1  A    between atoms: C_1  and  C_2
REMARK    2  A    between atoms: C_2  and  C_3
REMARK    3  A    between atoms: C_3  and  C_4
REMARK    4  A    between atoms: C_4  and  N_5
REMARK    5  A    between atoms: C_10  and  C_11
REMARK    6  A    between atoms: N_13  and  C_14
REMARK    7  A    between atoms: C_15  and  C_16
REMARK    8  A    between atoms: C_20  and  C_21
REMARK                            x       y       z     vdW  Elec       q    Type
REMARK                         _______ _______ _______ _____ _____    ______ ____
ROOT
ATOM      1  C   UNL     1      -8.902   4.515 130.118  0.00  0.00    +0.000 C 
ATOM      2  O   UNL     1      -9.757   3.997 129.370  0.00  0.00    +0.000 OA
ATOM      3  N   UNL     1      -8.049   3.694 130.853  0.00  0.00    +0.000 N 
ATOM      4  H   UNL     1      -7.878   3.973 131.810  0.00  0.00    +0.000 HD
ENDROOT
BRANCH   3   5
ATOM      5  C   UNL     1      -8.025   2.294 130.532  0.00  0.00    +0.000 A 
ATOM      6  C   UNL     1      -8.795   1.407 131.288  0.00  0.00    +0.000 A 
ATOM      7  C   UNL     1      -9.678   1.918 132.333  0.00  0.00    +0.000 C 
ATOM      8  C   UNL     1      -8.725   0.015 131.177  0.00  0.00    +0.000 A 
ATOM      9  C   UNL     1      -7.931  -0.529 130.202  0.00  0.00    +0.000 A 
ATOM     10  C   UNL     1      -7.204   0.334 129.379  0.00  0.00    +0.000 A 
ATOM     11  C   UNL     1      -7.240   1.744 129.533  0.00  0.00    +0.000 A 
ATOM     12  C   UNL     1      -6.370   2.612 128.692  0.00  0.00    +0.000 C 
ENDBRANCH   3   5
BRANCH   1  18
ATOM     13  N   UNL     1     -10.058   6.857 130.002  0.00  0.00    +0.000 NA
ATOM     14  C   UNL     1     -11.200   6.407 130.814  0.00  0.00    +0.000 C 
ATOM     15  C   UNL     1     -10.893   6.433 132.312  0.00  0.00    +0.000 C 
ATOM     16  C   UNL     1      -9.574   5.753 132.670  0.00  0.00    +0.000 C 
ATOM     17  C   UNL     1      -8.439   6.280 131.793  0.00  0.00    +0.000 C 
ATOM     18  C   UNL     1      -8.798   6.074 130.314  0.00  0.00    +0.000 C 
BRANCH  13  19
ATOM     19  C   UNL     1     -10.425   6.955 128.562  0.00  0.00    +0.000 C 
BRANCH  19  20
ATOM     20  C   UNL     1     -10.966   8.327 128.183  0.00  0.00    +0.000 C 
BRANCH  20  22
ATOM     21  C   UNL     1     -12.973   9.567 129.224  0.00  0.00    +0.000 C 
ATOM     22  C   UNL     1     -12.468   8.582 128.155  0.00  0.00    +0.000 C 
ENDBRANCH  20  22
ENDBRANCH  19  20
ENDBRANCH  13  19
ENDBRANCH   1  18
TORSDOF 5
ENDMDL
MODEL 9
REMARK VINA RESULT:      -6.4      6.931      9.248
REMARK  Name = Levobupivacaine
REMARK  8 active torsions:
REMARK  status: ('A' for Active; 'I' for Inactive)
REMARK    1  A    between atoms: C_1  and  C_2
REMARK    2  A    between atoms: C_2  and  C_3
REMARK    3  A    between atoms: C_3  and  C_4
REMARK    4  A    between atoms: C_4  and  N_5
REMARK    5  A    between atoms: C_10  and  C_11
REMARK    6  A    between atoms: N_13  and  C_14
REMARK    7  A    between atoms: C_15  and  C_16
REMARK    8  A    between atoms: C_20  and  C_21
REMARK                            x       y       z     vdW  Elec       q    Type
REMARK                         _______ _______ _______ _____ _____    ______ ____
ROOT
ATOM      1  C   UNL     1      -9.351   4.604 129.816  0.00  0.00    +0.000 C 
ATOM      2  O   UNL     1     -10.429   3.996 129.646  0.00  0.00    +0.000 OA
ATOM      3  N   UNL     1      -9.338   5.997 129.784  0.00  0.00    +0.000 N 
ATOM      4  H   UNL     1      -8.568   6.424 129.288  0.00  0.00    +0.000 HD
ENDROOT
BRANCH   3   5
ATOM      5  C   UNL     1     -10.603   6.680 129.804  0.00  0.00    +0.000 A 
ATOM      6  C   UNL     1     -11.090   7.250 128.626  0.00  0.00    +0.000 A 
ATOM      7  C   UNL     1     -10.357   7.074 127.375  0.00  0.00    +0.000 C 
ATOM      8  C   UNL     1     -12.217   8.075 128.560  0.00  0.00    +0.000 A 
ATOM      9  C   UNL     1     -12.962   8.264 129.694  0.00  0.00    +0.000 A 
ATOM     10  C   UNL     1     -12.543   7.646 130.875  0.00  0.00    +0.000 A 
ATOM     11  C   UNL     1     -11.368   6.854 130.944  0.00  0.00    +0.000 A 
ATOM     12  C   UNL     1     -10.916   6.298 132.249  0.00  0.00    +0.000 C 
ENDBRANCH   3   5
BRANCH   1  18
ATOM     13  N   UNL     1      -8.058   2.334 129.902  0.00  0.00    +0.000 NA
ATOM     14  C   UNL     1      -8.618   1.890 128.615  0.00  0.00    +0.000 C 
ATOM     15  C   UNL     1      -7.865   2.479 127.422  0.00  0.00    +0.000 C 
ATOM     16  C   UNL     1      -7.663   3.989 127.519  0.00  0.00    +0.000 C 
ATOM     17  C   UNL     1      -7.071   4.367 128.878  0.00  0.00    +0.000 C 
ATOM     18  C   UNL     1      -7.984   3.844 129.996  0.00  0.00    +0.000 C 
BRANCH  13  19
ATOM     19  C   UNL     1      -8.717   1.641 131.044  0.00  0.00    +0.000 C 
BRANCH  19  20
ATOM     20  C   UNL     1      -8.293   2.197 132.397  0.00  0.00    +0.000 C 
BRANCH  20  22
ATOM     21  C   UNL     1      -8.671   3.983 134.217  0.00  0.00    +0.000 C 
ATOM     22  C   UNL     1      -9.293   2.941 133.271  0.00  0.00    +0.000 C 
ENDBRANCH  20  22
ENDBRANCH  19  20
ENDBRANCH  13  19
ENDBRANCH   1  18
TORSDOF 5
ENDMDL
