MODEL 1
REMARK VINA RESULT:      -7.5      0.000      0.000
REMARK  Name = Levocetirizine
REMARK  9 active torsions:
REMARK  status: ('A' for Active; 'I' for Inactive)
REMARK    1  A    between atoms: O_1  and  C_2
REMARK    2  A    between atoms: C_2  and  C_4
REMARK    3  A    between atoms: C_4  and  O_5
REMARK    4  A    between atoms: O_5  and  C_6
REMARK    5  A    between atoms: C_6  and  C_7
REMARK    6  A    between atoms: C_7  and  N_8
REMARK    7  A    between atoms: N_11  and  C_14
REMARK    8  A    between atoms: C_14  and  C_15
REMARK    9  A    between atoms: C_14  and  C_21
REMARK                            x       y       z     vdW  Elec       q    Type
REMARK                         _______ _______ _______ _____ _____    ______ ____
ROOT
ATOM      1  N   UNL     1      -6.889   3.587 127.710  0.00  0.00    +0.000 NA
ATOM      2  C   UNL     1      -6.949   2.129 127.492  0.00  0.00    +0.000 C 
ATOM      3  C   UNL     1      -7.633   1.628 126.193  0.00  0.00    +0.000 C 
ATOM      4  N   UNL     1      -7.231   2.388 124.990  0.00  0.00    +0.000 NA
ATOM      5  C   UNL     1      -7.028   3.829 125.243  0.00  0.00    +0.000 C 
ATOM      6  C   UNL     1      -6.285   4.199 126.522  0.00  0.00    +0.000 C 
ENDROOT
BRANCH   1   7
ATOM      7  C   UNL     1      -8.078   4.359 128.131  0.00  0.00    +0.000 C 
BRANCH   7   8
ATOM      8  C   UNL     1      -8.263   4.850 129.570  0.00  0.00    +0.000 C 
BRANCH   8   9
ATOM      9  O   UNL     1      -8.874   6.143 129.573  0.00  0.00    +0.000 OA
BRANCH   9  10
ATOM     10  C   UNL     1      -9.737   6.351 130.681  0.00  0.00    +0.000 C 
BRANCH  10  11
ATOM     11  C   UNL     1     -11.159   5.867 130.484  0.00  0.00    +0.000 C 
ATOM     12  O   UNL     1     -11.628   5.488 129.410  0.00  0.00    +0.000 OA
BRANCH  11  13
ATOM     13  O   UNL     1     -11.875   5.806 131.634  0.00  0.00    +0.000 OA
ATOM     14  H   UNL     1     -11.482   5.284 132.361  0.00  0.00    +0.000 HD
ENDBRANCH  11  13
ENDBRANCH  10  11
ENDBRANCH   9  10
ENDBRANCH   8   9
ENDBRANCH   7   8
ENDBRANCH   1   7
BRANCH   4  15
ATOM     15  C   UNL     1      -8.020   2.068 123.751  0.00  0.00    +0.000 C 
BRANCH  15  16
ATOM     16  C   UNL     1      -7.619   2.794 122.461  0.00  0.00    +0.000 A 
ATOM     17  C   UNL     1      -8.594   3.337 121.662  0.00  0.00    +0.000 A 
ATOM     18  C   UNL     1      -8.345   3.860 120.423  0.00  0.00    +0.000 A 
ATOM     19  C   UNL     1      -7.073   4.116 120.019  0.00  0.00    +0.000 A 
ATOM     20 CL   UNL     1      -6.866   4.988 118.559  0.00  0.00    +0.000 Cl
ATOM     21  C   UNL     1      -6.037   3.697 120.832  0.00  0.00    +0.000 A 
ATOM     22  C   UNL     1      -6.306   3.003 122.031  0.00  0.00    +0.000 A 
ENDBRANCH  15  16
BRANCH  15  23
ATOM     23  C   UNL     1      -8.062   0.571 123.459  0.00  0.00    +0.000 A 
ATOM     24  C   UNL     1      -6.859  -0.152 123.302  0.00  0.00    +0.000 A 
ATOM     25  C   UNL     1      -6.851  -1.494 122.979  0.00  0.00    +0.000 A 
ATOM     26  C   UNL     1      -8.059  -2.134 122.760  0.00  0.00    +0.000 A 
ATOM     27  C   UNL     1      -9.262  -1.429 122.856  0.00  0.00    +0.000 A 
ATOM     28  C   UNL     1      -9.271  -0.083 123.223  0.00  0.00    +0.000 A 
ENDBRANCH  15  23
ENDBRANCH   4  15
TORSDOF 9
ENDMDL
MODEL 2
REMARK VINA RESULT:      -7.2      4.836      7.376
REMARK  Name = Levocetirizine
REMARK  9 active torsions:
REMARK  status: ('A' for Active; 'I' for Inactive)
REMARK    1  A    between atoms: O_1  and  C_2
REMARK    2  A    between atoms: C_2  and  C_4
REMARK    3  A    between atoms: C_4  and  O_5
REMARK    4  A    between atoms: O_5  and  C_6
REMARK    5  A    between atoms: C_6  and  C_7
REMARK    6  A    between atoms: C_7  and  N_8
REMARK    7  A    between atoms: N_11  and  C_14
REMARK    8  A    between atoms: C_14  and  C_15
REMARK    9  A    between atoms: C_14  and  C_21
REMARK                            x       y       z     vdW  Elec       q    Type
REMARK                         _______ _______ _______ _____ _____    ______ ____
ROOT
ATOM      1  N   UNL     1      -6.868   3.409 124.485  0.00  0.00    +0.000 NA
ATOM      2  C   UNL     1      -8.219   3.218 125.048  0.00  0.00    +0.000 C 
ATOM      3  C   UNL     1      -8.649   1.771 125.401  0.00  0.00    +0.000 C 
ATOM      4  N   UNL     1      -7.601   1.006 126.111  0.00  0.00    +0.000 NA
ATOM      5  C   UNL     1      -6.232   1.308 125.645  0.00  0.00    +0.000 C 
ATOM      6  C   UNL     1      -5.906   2.776 125.392  0.00  0.00    +0.000 C 
ENDROOT
BRANCH   1   7
ATOM      7  C   UNL     1      -6.554   3.057 123.084  0.00  0.00    +0.000 C 
BRANCH   7   8
ATOM      8  C   UNL     1      -7.573   3.230 121.952  0.00  0.00    +0.000 C 
BRANCH   8   9
ATOM      9  O   UNL     1      -6.957   3.872 120.833  0.00  0.00    +0.000 OA
BRANCH   9  10
ATOM     10  C   UNL     1      -5.605   4.234 121.070  0.00  0.00    +0.000 C 
BRANCH  10  11
ATOM     11  C   UNL     1      -5.095   5.387 120.231  0.00  0.00    +0.000 C 
ATOM     12  O   UNL     1      -5.443   5.618 119.072  0.00  0.00    +0.000 OA
BRANCH  11  13
ATOM     13  O   UNL     1      -4.259   6.218 120.901  0.00  0.00    +0.000 OA
ATOM     14  H   UNL     1      -3.313   5.969 120.905  0.00  0.00    +0.000 HD
ENDBRANCH  11  13
ENDBRANCH  10  11
ENDBRANCH   9  10
ENDBRANCH   8   9
ENDBRANCH   7   8
ENDBRANCH   1   7
BRANCH   4  15
ATOM     15  C   UNL     1      -7.900  -0.456 126.291  0.00  0.00    +0.000 C 
BRANCH  15  16
ATOM     16  C   UNL     1      -7.069  -1.446 125.467  0.00  0.00    +0.000 A 
ATOM     17  C   UNL     1      -5.860  -1.879 125.951  0.00  0.00    +0.000 A 
ATOM     18  C   UNL     1      -4.984  -2.632 125.220  0.00  0.00    +0.000 A 
ATOM     19  C   UNL     1      -5.374  -3.223 124.059  0.00  0.00    +0.000 A 
ATOM     20 CL   UNL     1      -4.293  -4.337 123.335  0.00  0.00    +0.000 Cl
ATOM     21  C   UNL     1      -6.629  -2.920 123.568  0.00  0.00    +0.000 A 
ATOM     22  C   UNL     1      -7.461  -2.003 124.247  0.00  0.00    +0.000 A 
ENDBRANCH  15  16
BRANCH  15  23
ATOM     23  C   UNL     1      -7.838  -0.886 127.753  0.00  0.00    +0.000 A 
ATOM     24  C   UNL     1      -8.026  -2.242 128.098  0.00  0.00    +0.000 A 
ATOM     25  C   UNL     1      -8.037  -2.666 129.412  0.00  0.00    +0.000 A 
ATOM     26  C   UNL     1      -7.905  -1.724 130.418  0.00  0.00    +0.000 A 
ATOM     27  C   UNL     1      -7.772  -0.367 130.105  0.00  0.00    +0.000 A 
ATOM     28  C   UNL     1      -7.719   0.055 128.776  0.00  0.00    +0.000 A 
ENDBRANCH  15  23
ENDBRANCH   4  15
TORSDOF 9
ENDMDL
MODEL 3
REMARK VINA RESULT:      -7.2      2.249      4.133
REMARK  Name = Levocetirizine
REMARK  9 active torsions:
REMARK  status: ('A' for Active; 'I' for Inactive)
REMARK    1  A    between atoms: O_1  and  C_2
REMARK    2  A    between atoms: C_2  and  C_4
REMARK    3  A    between atoms: C_4  and  O_5
REMARK    4  A    between atoms: O_5  and  C_6
REMARK    5  A    between atoms: C_6  and  C_7
REMARK    6  A    between atoms: C_7  and  N_8
REMARK    7  A    between atoms: N_11  and  C_14
REMARK    8  A    between atoms: C_14  and  C_15
REMARK    9  A    between atoms: C_14  and  C_21
REMARK                            x       y       z     vdW  Elec       q    Type
REMARK                         _______ _______ _______ _____ _____    ______ ____
ROOT
ATOM      1  N   UNL     1      -7.160   4.500 127.262  0.00  0.00    +0.000 NA
ATOM      2  C   UNL     1      -5.787   4.250 126.782  0.00  0.00    +0.000 C 
ATOM      3  C   UNL     1      -5.613   3.282 125.583  0.00  0.00    +0.000 C 
ATOM      4  N   UNL     1      -6.584   3.521 124.493  0.00  0.00    +0.000 NA
ATOM      5  C   UNL     1      -7.924   3.915 124.974  0.00  0.00    +0.000 C 
ATOM      6  C   UNL     1      -7.970   4.924 126.117  0.00  0.00    +0.000 C 
ENDROOT
BRANCH   1   7
ATOM      7  C   UNL     1      -7.897   3.499 128.064  0.00  0.00    +0.000 C 
BRANCH   7   8
ATOM      8  C   UNL     1      -8.489   3.831 129.437  0.00  0.00    +0.000 C 
BRANCH   8   9
ATOM      9  O   UNL     1      -9.840   3.368 129.513  0.00  0.00    +0.000 OA
BRANCH   9  10
ATOM     10  C   UNL     1     -10.537   3.861 130.647  0.00  0.00    +0.000 C 
BRANCH  10  11
ATOM     11  C   UNL     1     -11.317   5.139 130.414  0.00  0.00    +0.000 C 
ATOM     12  O   UNL     1     -11.652   5.562 129.307  0.00  0.00    +0.000 OA
BRANCH  11  13
ATOM     13  O   UNL     1     -11.699   5.758 131.558  0.00  0.00    +0.000 OA
ATOM     14  H   UNL     1     -11.016   5.842 132.253  0.00  0.00    +0.000 HD
ENDBRANCH  11  13
ENDBRANCH  10  11
ENDBRANCH   9  10
ENDBRANCH   8   9
ENDBRANCH   7   8
ENDBRANCH   1   7
BRANCH   4  15
ATOM     15  C   UNL     1      -6.581   2.481 123.408  0.00  0.00    +0.000 C 
BRANCH  15  16
ATOM     16  C   UNL     1      -7.321   1.169 123.696  0.00  0.00    +0.000 A 
ATOM     17  C   UNL     1      -6.897   0.010 123.096  0.00  0.00    +0.000 A 
ATOM     18  C   UNL     1      -7.586  -1.169 123.168  0.00  0.00    +0.000 A 
ATOM     19  C   UNL     1      -8.597  -1.331 124.062  0.00  0.00    +0.000 A 
ATOM     20 CL   UNL     1      -9.243  -2.905 124.251  0.00  0.00    +0.000 Cl
ATOM     21  C   UNL     1      -9.003  -0.227 124.788  0.00  0.00    +0.000 A 
ATOM     22  C   UNL     1      -8.395   1.029 124.579  0.00  0.00    +0.000 A 
ENDBRANCH  15  16
BRANCH  15  23
ATOM     23  C   UNL     1      -7.087   3.029 122.078  0.00  0.00    +0.000 A 
ATOM     24  C   UNL     1      -6.174   3.547 121.135  0.00  0.00    +0.000 A 
ATOM     25  C   UNL     1      -6.592   4.106 119.944  0.00  0.00    +0.000 A 
ATOM     26  C   UNL     1      -7.950   4.200 119.692  0.00  0.00    +0.000 A 
ATOM     27  C   UNL     1      -8.878   3.744 120.634  0.00  0.00    +0.000 A 
ATOM     28  C   UNL     1      -8.453   3.141 121.817  0.00  0.00    +0.000 A 
ENDBRANCH  15  23
ENDBRANCH   4  15
TORSDOF 9
ENDMDL
MODEL 4
REMARK VINA RESULT:      -7.2      5.324      7.787
REMARK  Name = Levocetirizine
REMARK  9 active torsions:
REMARK  status: ('A' for Active; 'I' for Inactive)
REMARK    1  A    between atoms: O_1  and  C_2
REMARK    2  A    between atoms: C_2  and  C_4
REMARK    3  A    between atoms: C_4  and  O_5
REMARK    4  A    between atoms: O_5  and  C_6
REMARK    5  A    between atoms: C_6  and  C_7
REMARK    6  A    between atoms: C_7  and  N_8
REMARK    7  A    between atoms: N_11  and  C_14
REMARK    8  A    between atoms: C_14  and  C_15
REMARK    9  A    between atoms: C_14  and  C_21
REMARK                            x       y       z     vdW  Elec       q    Type
REMARK                         _______ _______ _______ _____ _____    ______ ____
ROOT
ATOM      1  N   UNL     1      -7.419   3.317 124.296  0.00  0.00    +0.000 NA
ATOM      2  C   UNL     1      -8.583   2.568 124.810  0.00  0.00    +0.000 C 
ATOM      3  C   UNL     1      -8.369   1.076 125.173  0.00  0.00    +0.000 C 
ATOM      4  N   UNL     1      -7.127   0.831 125.937  0.00  0.00    +0.000 NA
ATOM      5  C   UNL     1      -5.999   1.688 125.518  0.00  0.00    +0.000 C 
ATOM      6  C   UNL     1      -6.318   3.155 125.250  0.00  0.00    +0.000 C 
ENDROOT
BRANCH   1   7
ATOM      7  C   UNL     1      -6.925   3.132 122.914  0.00  0.00    +0.000 C 
BRANCH   7   8
ATOM      8  C   UNL     1      -7.810   3.393 121.691  0.00  0.00    +0.000 C 
BRANCH   8   9
ATOM      9  O   UNL     1      -7.003   3.778 120.575  0.00  0.00    +0.000 OA
BRANCH   9  10
ATOM     10  C   UNL     1      -5.705   4.215 120.949  0.00  0.00    +0.000 C 
BRANCH  10  11
ATOM     11  C   UNL     1      -5.163   5.376 120.141  0.00  0.00    +0.000 C 
ATOM     12  O   UNL     1      -5.509   5.650 118.991  0.00  0.00    +0.000 OA
BRANCH  11  13
ATOM     13  O   UNL     1      -4.299   6.161 120.830  0.00  0.00    +0.000 OA
ATOM     14  H   UNL     1      -4.570   6.411 121.736  0.00  0.00    +0.000 HD
ENDBRANCH  11  13
ENDBRANCH  10  11
ENDBRANCH   9  10
ENDBRANCH   8   9
ENDBRANCH   7   8
ENDBRANCH   1   7
BRANCH   4  15
ATOM     15  C   UNL     1      -6.782  -0.618 126.132  0.00  0.00    +0.000 C 
BRANCH  15  16
ATOM     16  C   UNL     1      -6.902  -1.180 127.553  0.00  0.00    +0.000 A 
ATOM     17  C   UNL     1      -6.146  -2.267 127.915  0.00  0.00    +0.000 A 
ATOM     18  C   UNL     1      -6.302  -2.929 129.101  0.00  0.00    +0.000 A 
ATOM     19  C   UNL     1      -7.035  -2.387 130.110  0.00  0.00    +0.000 A 
ATOM     20 CL   UNL     1      -6.981  -3.164 131.635  0.00  0.00    +0.000 Cl
ATOM     21  C   UNL     1      -7.735  -1.224 129.850  0.00  0.00    +0.000 A 
ATOM     22  C   UNL     1      -7.702  -0.642 128.565  0.00  0.00    +0.000 A 
ENDBRANCH  15  16
BRANCH  15  23
ATOM     23  C   UNL     1      -7.564  -1.532 125.193  0.00  0.00    +0.000 A 
ATOM     24  C   UNL     1      -7.268  -1.546 123.813  0.00  0.00    +0.000 A 
ATOM     25  C   UNL     1      -7.989  -2.313 122.919  0.00  0.00    +0.000 A 
ATOM     26  C   UNL     1      -9.060  -3.053 123.388  0.00  0.00    +0.000 A 
ATOM     27  C   UNL     1      -9.408  -3.015 124.742  0.00  0.00    +0.000 A 
ATOM     28  C   UNL     1      -8.654  -2.273 125.651  0.00  0.00    +0.000 A 
ENDBRANCH  15  23
ENDBRANCH   4  15
TORSDOF 9
ENDMDL
MODEL 5
REMARK VINA RESULT:      -7.1      6.488      9.106
REMARK  Name = Levocetirizine
REMARK  9 active torsions:
REMARK  status: ('A' for Active; 'I' for Inactive)
REMARK    1  A    between atoms: O_1  and  C_2
REMARK    2  A    between atoms: C_2  and  C_4
REMARK    3  A    between atoms: C_4  and  O_5
REMARK    4  A    between atoms: O_5  and  C_6
REMARK    5  A    between atoms: C_6  and  C_7
REMARK    6  A    between atoms: C_7  and  N_8
REMARK    7  A    between atoms: N_11  and  C_14
REMARK    8  A    between atoms: C_14  and  C_15
REMARK    9  A    between atoms: C_14  and  C_21
REMARK                            x       y       z     vdW  Elec       q    Type
REMARK                         _______ _______ _______ _____ _____    ______ ____
ROOT
ATOM      1  N   UNL     1      -7.938   5.956 131.949  0.00  0.00    +0.000 NA
ATOM      2  C   UNL     1      -7.192   5.733 133.204  0.00  0.00    +0.000 C 
ATOM      3  C   UNL     1      -5.694   5.352 133.086  0.00  0.00    +0.000 C 
ATOM      4  N   UNL     1      -4.957   6.171 132.099  0.00  0.00    +0.000 NA
ATOM      5  C   UNL     1      -5.757   6.517 130.906  0.00  0.00    +0.000 C 
ATOM      6  C   UNL     1      -7.201   6.940 131.152  0.00  0.00    +0.000 C 
ENDROOT
BRANCH   1   7
ATOM      7  C   UNL     1      -8.372   4.830 131.094  0.00  0.00    +0.000 C 
BRANCH   7   8
ATOM      8  C   UNL     1      -8.964   5.050 129.698  0.00  0.00    +0.000 C 
BRANCH   8   9
ATOM      9  O   UNL     1     -10.391   5.103 129.774  0.00  0.00    +0.000 OA
BRANCH   9  10
ATOM     10  C   UNL     1     -10.894   6.423 129.922  0.00  0.00    +0.000 C 
BRANCH  10  11
ATOM     11  C   UNL     1     -12.039   6.565 130.904  0.00  0.00    +0.000 C 
ATOM     12  O   UNL     1     -13.084   7.177 130.677  0.00  0.00    +0.000 OA
BRANCH  11  13
ATOM     13  O   UNL     1     -11.854   5.878 132.058  0.00  0.00    +0.000 OA
ATOM     14  H   UNL     1     -11.318   6.322 132.744  0.00  0.00    +0.000 HD
ENDBRANCH  11  13
ENDBRANCH  10  11
ENDBRANCH   9  10
ENDBRANCH   8   9
ENDBRANCH   7   8
ENDBRANCH   1   7
BRANCH   4  15
ATOM     15  C   UNL     1      -3.559   5.702 131.809  0.00  0.00    +0.000 C 
BRANCH  15  16
ATOM     16  C   UNL     1      -3.249   5.275 130.370  0.00  0.00    +0.000 A 
ATOM     17  C   UNL     1      -3.588   4.013 129.952  0.00  0.00    +0.000 A 
ATOM     18  C   UNL     1      -3.211   3.494 128.744  0.00  0.00    +0.000 A 
ATOM     19  C   UNL     1      -2.703   4.295 127.771  0.00  0.00    +0.000 A 
ATOM     20 CL   UNL     1      -2.482   3.611 126.217  0.00  0.00    +0.000 Cl
ATOM     21  C   UNL     1      -2.442   5.614 128.088  0.00  0.00    +0.000 A 
ATOM     22  C   UNL     1      -2.676   6.096 129.394  0.00  0.00    +0.000 A 
ENDBRANCH  15  16
BRANCH  15  23
ATOM     23  C   UNL     1      -2.505   6.716 132.241  0.00  0.00    +0.000 A 
ATOM     24  C   UNL     1      -1.196   6.287 132.548  0.00  0.00    +0.000 A 
ATOM     25  C   UNL     1      -0.227   7.161 132.998  0.00  0.00    +0.000 A 
ATOM     26  C   UNL     1      -0.568   8.488 133.197  0.00  0.00    +0.000 A 
ATOM     27  C   UNL     1      -1.872   8.929 132.953  0.00  0.00    +0.000 A 
ATOM     28  C   UNL     1      -2.838   8.053 132.458  0.00  0.00    +0.000 A 
ENDBRANCH  15  23
ENDBRANCH   4  15
TORSDOF 9
ENDMDL
MODEL 6
REMARK VINA RESULT:      -7.0      3.569      5.399
REMARK  Name = Levocetirizine
REMARK  9 active torsions:
REMARK  status: ('A' for Active; 'I' for Inactive)
REMARK    1  A    between atoms: O_1  and  C_2
REMARK    2  A    between atoms: C_2  and  C_4
REMARK    3  A    between atoms: C_4  and  O_5
REMARK    4  A    between atoms: O_5  and  C_6
REMARK    5  A    between atoms: C_6  and  C_7
REMARK    6  A    between atoms: C_7  and  N_8
REMARK    7  A    between atoms: N_11  and  C_14
REMARK    8  A    between atoms: C_14  and  C_15
REMARK    9  A    between atoms: C_14  and  C_21
REMARK                            x       y       z     vdW  Elec       q    Type
REMARK                         _______ _______ _______ _____ _____    ______ ____
ROOT
ATOM      1  N   UNL     1      -5.199   3.692 127.210  0.00  0.00    +0.000 NA
ATOM      2  C   UNL     1      -5.586   4.529 126.057  0.00  0.00    +0.000 C 
ATOM      3  C   UNL     1      -5.713   3.831 124.679  0.00  0.00    +0.000 C 
ATOM      4  N   UNL     1      -6.434   2.541 124.740  0.00  0.00    +0.000 NA
ATOM      5  C   UNL     1      -6.157   1.769 125.968  0.00  0.00    +0.000 C 
ATOM      6  C   UNL     1      -6.120   2.554 127.275  0.00  0.00    +0.000 C 
ENDROOT
BRANCH   1   7
ATOM      7  C   UNL     1      -3.806   3.232 127.402  0.00  0.00    +0.000 C 
BRANCH   7   8
ATOM      8  C   UNL     1      -2.604   4.147 127.150  0.00  0.00    +0.000 C 
BRANCH   8   9
ATOM      9  O   UNL     1      -2.396   5.004 128.276  0.00  0.00    +0.000 OA
BRANCH   9  10
ATOM     10  C   UNL     1      -2.873   6.325 128.069  0.00  0.00    +0.000 C 
BRANCH  10  11
ATOM     11  C   UNL     1      -3.858   6.820 129.108  0.00  0.00    +0.000 C 
ATOM     12  O   UNL     1      -3.661   7.775 129.860  0.00  0.00    +0.000 OA
BRANCH  11  13
ATOM     13  O   UNL     1      -5.042   6.160 129.091  0.00  0.00    +0.000 OA
ATOM     14  H   UNL     1      -5.021   5.244 128.749  0.00  0.00    +0.000 HD
ENDBRANCH  11  13
ENDBRANCH  10  11
ENDBRANCH   9  10
ENDBRANCH   8   9
ENDBRANCH   7   8
ENDBRANCH   1   7
BRANCH   4  15
ATOM     15  C   UNL     1      -6.402   1.741 123.468  0.00  0.00    +0.000 C 
BRANCH  15  16
ATOM     16  C   UNL     1      -7.131   0.392 123.473  0.00  0.00    +0.000 A 
ATOM     17  C   UNL     1      -8.396   0.310 123.997  0.00  0.00    +0.000 A 
ATOM     18  C   UNL     1      -9.056  -0.873 124.187  0.00  0.00    +0.000 A 
ATOM     19  C   UNL     1      -8.602  -2.022 123.619  0.00  0.00    +0.000 A 
ATOM     20 CL   UNL     1      -9.612  -3.402 123.708  0.00  0.00    +0.000 Cl
ATOM     21  C   UNL     1      -7.382  -1.987 122.972  0.00  0.00    +0.000 A 
ATOM     22  C   UNL     1      -6.627  -0.794 122.932  0.00  0.00    +0.000 A 
ENDBRANCH  15  16
BRANCH  15  23
ATOM     23  C   UNL     1      -6.893   2.541 122.266  0.00  0.00    +0.000 A 
ATOM     24  C   UNL     1      -5.969   3.027 121.316  0.00  0.00    +0.000 A 
ATOM     25  C   UNL     1      -6.363   3.805 120.245  0.00  0.00    +0.000 A 
ATOM     26  C   UNL     1      -7.698   4.153 120.130  0.00  0.00    +0.000 A 
ATOM     27  C   UNL     1      -8.625   3.731 121.087  0.00  0.00    +0.000 A 
ATOM     28  C   UNL     1      -8.233   2.910 122.145  0.00  0.00    +0.000 A 
ENDBRANCH  15  23
ENDBRANCH   4  15
TORSDOF 9
ENDMDL
MODEL 7
REMARK VINA RESULT:      -6.9      5.471      9.694
REMARK  Name = Levocetirizine
REMARK  9 active torsions:
REMARK  status: ('A' for Active; 'I' for Inactive)
REMARK    1  A    between atoms: O_1  and  C_2
REMARK    2  A    between atoms: C_2  and  C_4
REMARK    3  A    between atoms: C_4  and  O_5
REMARK    4  A    between atoms: O_5  and  C_6
REMARK    5  A    between atoms: C_6  and  C_7
REMARK    6  A    between atoms: C_7  and  N_8
REMARK    7  A    between atoms: N_11  and  C_14
REMARK    8  A    between atoms: C_14  and  C_15
REMARK    9  A    between atoms: C_14  and  C_21
REMARK                            x       y       z     vdW  Elec       q    Type
REMARK                         _______ _______ _______ _____ _____    ______ ____
ROOT
ATOM      1  N   UNL     1      -3.427   2.941 127.464  0.00  0.00    +0.000 NA
ATOM      2  C   UNL     1      -2.397   3.998 127.477  0.00  0.00    +0.000 C 
ATOM      3  C   UNL     1      -2.707   5.289 128.276  0.00  0.00    +0.000 C 
ATOM      4  N   UNL     1      -3.298   5.027 129.607  0.00  0.00    +0.000 NA
ATOM      5  C   UNL     1      -4.220   3.873 129.624  0.00  0.00    +0.000 C 
ATOM      6  C   UNL     1      -3.778   2.633 128.854  0.00  0.00    +0.000 C 
ENDROOT
BRANCH   1   7
ATOM      7  C   UNL     1      -4.653   3.061 126.645  0.00  0.00    +0.000 C 
BRANCH   7   8
ATOM      8  C   UNL     1      -5.059   4.378 125.975  0.00  0.00    +0.000 C 
BRANCH   8   9
ATOM      9  O   UNL     1      -6.120   4.994 126.709  0.00  0.00    +0.000 OA
BRANCH   9  10
ATOM     10  C   UNL     1      -7.288   4.191 126.784  0.00  0.00    +0.000 C 
BRANCH  10  11
ATOM     11  C   UNL     1      -8.458   4.685 125.959  0.00  0.00    +0.000 C 
ATOM     12  O   UNL     1      -8.956   5.808 126.052  0.00  0.00    +0.000 OA
BRANCH  11  13
ATOM     13  O   UNL     1      -8.879   3.796 125.026  0.00  0.00    +0.000 OA
ATOM     14  H   UNL     1      -9.626   4.080 124.463  0.00  0.00    +0.000 HD
ENDBRANCH  11  13
ENDBRANCH  10  11
ENDBRANCH   9  10
ENDBRANCH   8   9
ENDBRANCH   7   8
ENDBRANCH   1   7
BRANCH   4  15
ATOM     15  C   UNL     1      -3.797   6.248 130.326  0.00  0.00    +0.000 C 
BRANCH  15  16
ATOM     16  C   UNL     1      -5.096   6.104 131.128  0.00  0.00    +0.000 A 
ATOM     17  C   UNL     1      -6.257   6.645 130.635  0.00  0.00    +0.000 A 
ATOM     18  C   UNL     1      -7.421   6.704 131.350  0.00  0.00    +0.000 A 
ATOM     19  C   UNL     1      -7.572   5.987 132.496  0.00  0.00    +0.000 A 
ATOM     20 CL   UNL     1      -9.133   5.930 133.195  0.00  0.00    +0.000 Cl
ATOM     21  C   UNL     1      -6.468   5.320 132.992  0.00  0.00    +0.000 A 
ATOM     22  C   UNL     1      -5.223   5.408 132.334  0.00  0.00    +0.000 A 
ENDBRANCH  15  16
BRANCH  15  23
ATOM     23  C   UNL     1      -2.739   6.856 131.242  0.00  0.00    +0.000 A 
ATOM     24  C   UNL     1      -1.595   6.108 131.593  0.00  0.00    +0.000 A 
ATOM     25  C   UNL     1      -0.643   6.596 132.465  0.00  0.00    +0.000 A 
ATOM     26  C   UNL     1      -0.843   7.837 133.044  0.00  0.00    +0.000 A 
ATOM     27  C   UNL     1      -1.995   8.576 132.755  0.00  0.00    +0.000 A 
ATOM     28  C   UNL     1      -2.935   8.100 131.842  0.00  0.00    +0.000 A 
ENDBRANCH  15  23
ENDBRANCH   4  15
TORSDOF 9
ENDMDL
MODEL 8
REMARK VINA RESULT:      -6.9      5.224      7.450
REMARK  Name = Levocetirizine
REMARK  9 active torsions:
REMARK  status: ('A' for Active; 'I' for Inactive)
REMARK    1  A    between atoms: O_1  and  C_2
REMARK    2  A    between atoms: C_2  and  C_4
REMARK    3  A    between atoms: C_4  and  O_5
REMARK    4  A    between atoms: O_5  and  C_6
REMARK    5  A    between atoms: C_6  and  C_7
REMARK    6  A    between atoms: C_7  and  N_8
REMARK    7  A    between atoms: N_11  and  C_14
REMARK    8  A    between atoms: C_14  and  C_15
REMARK    9  A    between atoms: C_14  and  C_21
REMARK                            x       y       z     vdW  Elec       q    Type
REMARK                         _______ _______ _______ _____ _____    ______ ____
ROOT
ATOM      1  N   UNL     1      -6.942   2.834 127.827  0.00  0.00    +0.000 NA
ATOM      2  C   UNL     1      -7.814   2.140 126.858  0.00  0.00    +0.000 C 
ATOM      3  C   UNL     1      -7.411   0.704 126.435  0.00  0.00    +0.000 C 
ATOM      4  N   UNL     1      -7.000  -0.147 127.573  0.00  0.00    +0.000 NA
ATOM      5  C   UNL     1      -6.251   0.584 128.616  0.00  0.00    +0.000 C 
ATOM      6  C   UNL     1      -6.780   1.964 128.994  0.00  0.00    +0.000 C 
ENDROOT
BRANCH   1   7
ATOM      7  C   UNL     1      -5.636   3.401 127.429  0.00  0.00    +0.000 C 
BRANCH   7   8
ATOM      8  C   UNL     1      -5.489   4.348 126.233  0.00  0.00    +0.000 C 
BRANCH   8   9
ATOM      9  O   UNL     1      -5.129   3.608 125.064  0.00  0.00    +0.000 OA
BRANCH   9  10
ATOM     10  C   UNL     1      -5.735   4.104 123.879  0.00  0.00    +0.000 C 
BRANCH  10  11
ATOM     11  C   UNL     1      -6.959   3.340 123.418  0.00  0.00    +0.000 C 
ATOM     12  O   UNL     1      -6.928   2.265 122.817  0.00  0.00    +0.000 OA
BRANCH  11  13
ATOM     13  O   UNL     1      -8.129   3.908 123.801  0.00  0.00    +0.000 OA
ATOM     14  H   UNL     1      -8.637   4.365 123.101  0.00  0.00    +0.000 HD
ENDBRANCH  11  13
ENDBRANCH  10  11
ENDBRANCH   9  10
ENDBRANCH   8   9
ENDBRANCH   7   8
ENDBRANCH   1   7
BRANCH   4  15
ATOM     15  C   UNL     1      -6.412  -1.475 127.185  0.00  0.00    +0.000 C 
BRANCH  15  16
ATOM     16  C   UNL     1      -6.014  -2.422 128.324  0.00  0.00    +0.000 A 
ATOM     17  C   UNL     1      -6.992  -3.003 129.091  0.00  0.00    +0.000 A 
ATOM     18  C   UNL     1      -6.729  -3.730 130.220  0.00  0.00    +0.000 A 
ATOM     19  C   UNL     1      -5.465  -4.146 130.501  0.00  0.00    +0.000 A 
ATOM     20 CL   UNL     1      -5.264  -5.246 131.797  0.00  0.00    +0.000 Cl
ATOM     21  C   UNL     1      -4.439  -3.689 129.697  0.00  0.00    +0.000 A 
ATOM     22  C   UNL     1      -4.704  -2.798 128.635  0.00  0.00    +0.000 A 
ENDBRANCH  15  16
BRANCH  15  23
ATOM     23  C   UNL     1      -7.305  -2.245 126.218  0.00  0.00    +0.000 A 
ATOM     24  C   UNL     1      -6.773  -2.738 125.007  0.00  0.00    +0.000 A 
ATOM     25  C   UNL     1      -7.558  -3.389 124.076  0.00  0.00    +0.000 A 
ATOM     26  C   UNL     1      -8.914  -3.519 124.322  0.00  0.00    +0.000 A 
ATOM     27  C   UNL     1      -9.476  -2.991 125.489  0.00  0.00    +0.000 A 
ATOM     28  C   UNL     1      -8.675  -2.372 126.447  0.00  0.00    +0.000 A 
ENDBRANCH  15  23
ENDBRANCH   4  15
TORSDOF 9
ENDMDL
MODEL 9
REMARK VINA RESULT:      -6.8      1.797      2.400
REMARK  Name = Levocetirizine
REMARK  9 active torsions:
REMARK  status: ('A' for Active; 'I' for Inactive)
REMARK    1  A    between atoms: O_1  and  C_2
REMARK    2  A    between atoms: C_2  and  C_4
REMARK    3  A    between atoms: C_4  and  O_5
REMARK    4  A    between atoms: O_5  and  C_6
REMARK    5  A    between atoms: C_6  and  C_7
REMARK    6  A    between atoms: C_7  and  N_8
REMARK    7  A    between atoms: N_11  and  C_14
REMARK    8  A    between atoms: C_14  and  C_15
REMARK    9  A    between atoms: C_14  and  C_21
REMARK                            x       y       z     vdW  Elec       q    Type
REMARK                         _______ _______ _______ _____ _____    ______ ____
ROOT
ATOM      1  N   UNL     1      -7.737   3.448 129.611  0.00  0.00    +0.000 NA
ATOM      2  C   UNL     1      -7.583   1.981 129.572  0.00  0.00    +0.000 C 
ATOM      3  C   UNL     1      -8.084   1.244 128.303  0.00  0.00    +0.000 C 
ATOM      4  N   UNL     1      -7.689   1.912 127.043  0.00  0.00    +0.000 NA
ATOM      5  C   UNL     1      -7.701   3.387 127.130  0.00  0.00    +0.000 C 
ATOM      6  C   UNL     1      -7.123   4.001 128.400  0.00  0.00    +0.000 C 
ENDROOT
BRANCH   1   7
ATOM      7  C   UNL     1      -9.049   4.086 129.853  0.00  0.00    +0.000 C 
BRANCH   7   8
ATOM      8  C   UNL     1      -9.294   5.574 129.582  0.00  0.00    +0.000 C 
BRANCH   8   9
ATOM      9  O   UNL     1     -10.689   5.810 129.370  0.00  0.00    +0.000 OA
BRANCH   9  10
ATOM     10  C   UNL     1     -11.509   5.261 130.391  0.00  0.00    +0.000 C 
BRANCH  10  11
ATOM     11  C   UNL     1     -11.768   6.180 131.567  0.00  0.00    +0.000 C 
ATOM     12  O   UNL     1     -12.683   7.003 131.625  0.00  0.00    +0.000 OA
BRANCH  11  13
ATOM     13  O   UNL     1     -10.936   5.966 132.616  0.00  0.00    +0.000 OA
ATOM     14  H   UNL     1     -11.201   6.368 133.467  0.00  0.00    +0.000 HD
ENDBRANCH  11  13
ENDBRANCH  10  11
ENDBRANCH   9  10
ENDBRANCH   8   9
ENDBRANCH   7   8
ENDBRANCH   1   7
BRANCH   4  15
ATOM     15  C   UNL     1      -8.322   1.345 125.804  0.00  0.00    +0.000 C 
BRANCH  15  16
ATOM     16  C   UNL     1      -7.981   2.023 124.472  0.00  0.00    +0.000 A 
ATOM     17  C   UNL     1      -8.992   2.357 123.606  0.00  0.00    +0.000 A 
ATOM     18  C   UNL     1      -8.773   2.816 122.337  0.00  0.00    +0.000 A 
ATOM     19  C   UNL     1      -7.536   3.225 121.948  0.00  0.00    +0.000 A 
ATOM     20 CL   UNL     1      -7.401   4.006 120.431  0.00  0.00    +0.000 Cl
ATOM     21  C   UNL     1      -6.484   3.025 122.820  0.00  0.00    +0.000 A 
ATOM     22  C   UNL     1      -6.696   2.390 124.063  0.00  0.00    +0.000 A 
ENDBRANCH  15  16
BRANCH  15  23
ATOM     23  C   UNL     1      -8.066  -0.151 125.654  0.00  0.00    +0.000 A 
ATOM     24  C   UNL     1      -9.150  -1.055 125.637  0.00  0.00    +0.000 A 
ATOM     25  C   UNL     1      -8.962  -2.420 125.562  0.00  0.00    +0.000 A 
ATOM     26  C   UNL     1      -7.669  -2.915 125.549  0.00  0.00    +0.000 A 
ATOM     27  C   UNL     1      -6.577  -2.045 125.619  0.00  0.00    +0.000 A 
ATOM     28  C   UNL     1      -6.768  -0.664 125.652  0.00  0.00    +0.000 A 
ENDBRANCH  15  23
ENDBRANCH   4  15
TORSDOF 9
ENDMDL
