MODEL 1
REMARK VINA RESULT:      -9.5      0.000      0.000
REMARK  Name = Lidoflazine
REMARK  11 active torsions:
REMARK  status: ('A' for Active; 'I' for Inactive)
REMARK    1  A    between atoms: C_1  and  C_2
REMARK    2  A    between atoms: C_6  and  C_7
REMARK    3  A    between atoms: C_8  and  N_9
REMARK    4  A    between atoms: C_10  and  C_12
REMARK    5  A    between atoms: C_12  and  N_13
REMARK    6  A    between atoms: N_16  and  C_17
REMARK    7  A    between atoms: C_17  and  C_18
REMARK    8  A    between atoms: C_18  and  C_19
REMARK    9  A    between atoms: C_19  and  C_20
REMARK   10  A    between atoms: C_20  and  C_21
REMARK   11  A    between atoms: C_20  and  C_28
REMARK                            x       y       z     vdW  Elec       q    Type
REMARK                         _______ _______ _______ _____ _____    ______ ____
ROOT
ATOM      1  N   UNL     1      -6.872   4.742 128.692  0.00  0.00    +0.000 NA
ATOM      2  C   UNL     1      -5.509   4.171 128.928  0.00  0.00    +0.000 C 
ATOM      3  C   UNL     1      -5.477   2.637 129.175  0.00  0.00    +0.000 C 
ATOM      4  N   UNL     1      -6.169   1.852 128.139  0.00  0.00    +0.000 NA
ATOM      5  C   UNL     1      -7.454   2.513 127.921  0.00  0.00    +0.000 C 
ATOM      6  C   UNL     1      -7.333   4.011 127.499  0.00  0.00    +0.000 C 
ENDROOT
BRANCH   1   7
ATOM      7  C   UNL     1      -7.897   4.561 129.836  0.00  0.00    +0.000 C 
BRANCH   7   9
ATOM      8  N   UNL     1     -10.292   5.660 129.711  0.00  0.00    +0.000 N 
ATOM      9  C   UNL     1      -8.946   5.762 129.943  0.00  0.00    +0.000 C 
ATOM     10  O   UNL     1      -8.525   6.885 130.267  0.00  0.00    +0.000 OA
ATOM     11  H   UNL     1     -10.744   4.846 130.123  0.00  0.00    +0.000 HD
BRANCH   8  19
ATOM     12  C   UNL     1     -10.583   7.341 126.911  0.00  0.00    +0.000 C 
ATOM     13  C   UNL     1     -11.255   7.586 128.220  0.00  0.00    +0.000 A 
ATOM     14  C   UNL     1     -12.177   8.635 128.060  0.00  0.00    +0.000 A 
ATOM     15  C   UNL     1     -12.965   9.037 129.102  0.00  0.00    +0.000 A 
ATOM     16  C   UNL     1     -12.843   8.383 130.319  0.00  0.00    +0.000 A 
ATOM     17  C   UNL     1     -11.959   7.293 130.513  0.00  0.00    +0.000 A 
ATOM     18  C   UNL     1     -11.911   6.672 131.881  0.00  0.00    +0.000 C 
ATOM     19  C   UNL     1     -11.137   6.848 129.458  0.00  0.00    +0.000 A 
ENDBRANCH   8  19
ENDBRANCH   7   9
ENDBRANCH   1   7
BRANCH   4  20
ATOM     20  C   UNL     1      -5.483   1.803 126.853  0.00  0.00    +0.000 C 
BRANCH  20  21
ATOM     21  C   UNL     1      -5.953   0.577 126.059  0.00  0.00    +0.000 C 
BRANCH  21  22
ATOM     22  C   UNL     1      -5.498  -0.663 126.765  0.00  0.00    +0.000 C 
BRANCH  22  23
ATOM     23  C   UNL     1      -6.673  -1.468 127.351  0.00  0.00    +0.000 C 
BRANCH  23  24
ATOM     24  C   UNL     1      -7.524  -2.194 126.288  0.00  0.00    +0.000 A 
ATOM     25  C   UNL     1      -6.888  -2.792 125.184  0.00  0.00    +0.000 A 
ATOM     26  C   UNL     1      -7.626  -3.279 124.109  0.00  0.00    +0.000 A 
ATOM     27  C   UNL     1      -9.010  -3.301 124.185  0.00  0.00    +0.000 A 
ATOM     28  F   UNL     1      -9.720  -3.803 123.169  0.00  0.00    +0.000 F 
ATOM     29  C   UNL     1      -9.668  -2.822 125.305  0.00  0.00    +0.000 A 
ATOM     30  C   UNL     1      -8.930  -2.235 126.330  0.00  0.00    +0.000 A 
ENDBRANCH  23  24
BRANCH  23  31
ATOM     31  C   UNL     1      -6.139  -2.453 128.397  0.00  0.00    +0.000 A 
ATOM     32  C   UNL     1      -6.986  -3.098 129.316  0.00  0.00    +0.000 A 
ATOM     33  C   UNL     1      -6.476  -3.944 130.291  0.00  0.00    +0.000 A 
ATOM     34  C   UNL     1      -5.109  -4.156 130.360  0.00  0.00    +0.000 A 
ATOM     35  F   UNL     1      -4.617  -4.962 131.305  0.00  0.00    +0.000 F 
ATOM     36  C   UNL     1      -4.248  -3.551 129.463  0.00  0.00    +0.000 A 
ATOM     37  C   UNL     1      -4.764  -2.724 128.475  0.00  0.00    +0.000 A 
ENDBRANCH  23  31
ENDBRANCH  22  23
ENDBRANCH  21  22
ENDBRANCH  20  21
ENDBRANCH   4  20
TORSDOF 9
ENDMDL
MODEL 2
REMARK VINA RESULT:      -9.5      3.344      5.154
REMARK  Name = Lidoflazine
REMARK  11 active torsions:
REMARK  status: ('A' for Active; 'I' for Inactive)
REMARK    1  A    between atoms: C_1  and  C_2
REMARK    2  A    between atoms: C_6  and  C_7
REMARK    3  A    between atoms: C_8  and  N_9
REMARK    4  A    between atoms: C_10  and  C_12
REMARK    5  A    between atoms: C_12  and  N_13
REMARK    6  A    between atoms: N_16  and  C_17
REMARK    7  A    between atoms: C_17  and  C_18
REMARK    8  A    between atoms: C_18  and  C_19
REMARK    9  A    between atoms: C_19  and  C_20
REMARK   10  A    between atoms: C_20  and  C_21
REMARK   11  A    between atoms: C_20  and  C_28
REMARK                            x       y       z     vdW  Elec       q    Type
REMARK                         _______ _______ _______ _____ _____    ______ ____
ROOT
ATOM      1  N   UNL     1      -6.759   4.911 129.068  0.00  0.00    +0.000 NA
ATOM      2  C   UNL     1      -5.468   4.163 129.173  0.00  0.00    +0.000 C 
ATOM      3  C   UNL     1      -5.614   2.625 129.340  0.00  0.00    +0.000 C 
ATOM      4  N   UNL     1      -6.469   1.993 128.321  0.00  0.00    +0.000 NA
ATOM      5  C   UNL     1      -7.672   2.820 128.232  0.00  0.00    +0.000 C 
ATOM      6  C   UNL     1      -7.389   4.313 127.878  0.00  0.00    +0.000 C 
ENDROOT
BRANCH   1   7
ATOM      7  C   UNL     1      -7.719   4.791 130.274  0.00  0.00    +0.000 C 
BRANCH   7   9
ATOM      8  N   UNL     1     -10.149   5.690 129.775  0.00  0.00    +0.000 N 
ATOM      9  C   UNL     1      -8.885   5.884 130.267  0.00  0.00    +0.000 C 
ATOM     10  O   UNL     1      -8.646   7.004 130.748  0.00  0.00    +0.000 OA
ATOM     11  H   UNL     1     -10.585   4.806 130.031  0.00  0.00    +0.000 HD
BRANCH   8  19
ATOM     12  C   UNL     1     -10.459   7.236 126.901  0.00  0.00    +0.000 C 
ATOM     13  C   UNL     1     -11.174   7.499 128.184  0.00  0.00    +0.000 A 
ATOM     14  C   UNL     1     -12.146   8.490 127.959  0.00  0.00    +0.000 A 
ATOM     15  C   UNL     1     -12.978   8.892 128.965  0.00  0.00    +0.000 A 
ATOM     16  C   UNL     1     -12.852   8.295 130.212  0.00  0.00    +0.000 A 
ATOM     17  C   UNL     1     -11.917   7.263 130.471  0.00  0.00    +0.000 A 
ATOM     18  C   UNL     1     -11.870   6.702 131.864  0.00  0.00    +0.000 C 
ATOM     19  C   UNL     1     -11.049   6.819 129.454  0.00  0.00    +0.000 A 
ENDBRANCH   8  19
ENDBRANCH   7   9
ENDBRANCH   1   7
BRANCH   4  20
ATOM     20  C   UNL     1      -5.884   1.936 126.986  0.00  0.00    +0.000 C 
BRANCH  20  21
ATOM     21  C   UNL     1      -6.979   1.649 125.950  0.00  0.00    +0.000 C 
BRANCH  21  22
ATOM     22  C   UNL     1      -6.627   2.335 124.667  0.00  0.00    +0.000 C 
BRANCH  22  23
ATOM     23  C   UNL     1      -7.745   2.218 123.613  0.00  0.00    +0.000 C 
BRANCH  23  24
ATOM     24  C   UNL     1      -7.463   3.004 122.316  0.00  0.00    +0.000 A 
ATOM     25  C   UNL     1      -8.539   3.416 121.508  0.00  0.00    +0.000 A 
ATOM     26  C   UNL     1      -8.321   3.947 120.240  0.00  0.00    +0.000 A 
ATOM     27  C   UNL     1      -7.026   4.203 119.820  0.00  0.00    +0.000 A 
ATOM     28  F   UNL     1      -6.816   4.748 118.617  0.00  0.00    +0.000 F 
ATOM     29  C   UNL     1      -5.945   3.913 120.635  0.00  0.00    +0.000 A 
ATOM     30  C   UNL     1      -6.161   3.280 121.857  0.00  0.00    +0.000 A 
ENDBRANCH  23  24
BRANCH  23  31
ATOM     31  C   UNL     1      -8.009   0.739 123.317  0.00  0.00    +0.000 A 
ATOM     32  C   UNL     1      -9.312   0.217 123.220  0.00  0.00    +0.000 A 
ATOM     33  C   UNL     1      -9.530  -1.137 123.004  0.00  0.00    +0.000 A 
ATOM     34  C   UNL     1      -8.445  -1.989 122.885  0.00  0.00    +0.000 A 
ATOM     35  F   UNL     1      -8.653  -3.294 122.689  0.00  0.00    +0.000 F 
ATOM     36  C   UNL     1      -7.150  -1.510 122.961  0.00  0.00    +0.000 A 
ATOM     37  C   UNL     1      -6.936  -0.151 123.151  0.00  0.00    +0.000 A 
ENDBRANCH  23  31
ENDBRANCH  22  23
ENDBRANCH  21  22
ENDBRANCH  20  21
ENDBRANCH   4  20
TORSDOF 9
ENDMDL
MODEL 3
REMARK VINA RESULT:      -9.4      3.909      6.929
REMARK  Name = Lidoflazine
REMARK  11 active torsions:
REMARK  status: ('A' for Active; 'I' for Inactive)
REMARK    1  A    between atoms: C_1  and  C_2
REMARK    2  A    between atoms: C_6  and  C_7
REMARK    3  A    between atoms: C_8  and  N_9
REMARK    4  A    between atoms: C_10  and  C_12
REMARK    5  A    between atoms: C_12  and  N_13
REMARK    6  A    between atoms: N_16  and  C_17
REMARK    7  A    between atoms: C_17  and  C_18
REMARK    8  A    between atoms: C_18  and  C_19
REMARK    9  A    between atoms: C_19  and  C_20
REMARK   10  A    between atoms: C_20  and  C_21
REMARK   11  A    between atoms: C_20  and  C_28
REMARK                            x       y       z     vdW  Elec       q    Type
REMARK                         _______ _______ _______ _____ _____    ______ ____
ROOT
ATOM      1  N   UNL     1      -5.774   4.058 127.311  0.00  0.00    +0.000 NA
ATOM      2  C   UNL     1      -7.066   3.303 127.277  0.00  0.00    +0.000 C 
ATOM      3  C   UNL     1      -6.922   1.768 127.078  0.00  0.00    +0.000 C 
ATOM      4  N   UNL     1      -6.000   1.128 128.031  0.00  0.00    +0.000 NA
ATOM      5  C   UNL     1      -4.799   1.961 128.056  0.00  0.00    +0.000 C 
ATOM      6  C   UNL     1      -5.067   3.447 128.450  0.00  0.00    +0.000 C 
ENDROOT
BRANCH   1   7
ATOM      7  C   UNL     1      -4.892   3.962 126.044  0.00  0.00    +0.000 C 
BRANCH   7   9
ATOM      8  N   UNL     1      -5.978   3.322 123.726  0.00  0.00    +0.000 N 
ATOM      9  C   UNL     1      -5.693   4.252 124.692  0.00  0.00    +0.000 C 
ATOM     10  O   UNL     1      -6.103   5.406 124.485  0.00  0.00    +0.000 OA
ATOM     11  H   UNL     1      -6.311   2.425 124.071  0.00  0.00    +0.000 HD
BRANCH   8  19
ATOM     12  C   UNL     1      -4.130   4.795 121.453  0.00  0.00    +0.000 C 
ATOM     13  C   UNL     1      -5.557   4.366 121.362  0.00  0.00    +0.000 A 
ATOM     14  C   UNL     1      -6.007   4.588 120.049  0.00  0.00    +0.000 A 
ATOM     15  C   UNL     1      -7.276   4.241 119.678  0.00  0.00    +0.000 A 
ATOM     16  C   UNL     1      -8.108   3.655 120.622  0.00  0.00    +0.000 A 
ATOM     17  C   UNL     1      -7.682   3.373 121.943  0.00  0.00    +0.000 A 
ATOM     18  C   UNL     1      -8.679   2.744 122.875  0.00  0.00    +0.000 C 
ATOM     19  C   UNL     1      -6.378   3.711 122.356  0.00  0.00    +0.000 A 
ENDBRANCH   8  19
ENDBRANCH   7   9
ENDBRANCH   1   7
BRANCH   4  20
ATOM     20  C   UNL     1      -6.499   1.048 129.399  0.00  0.00    +0.000 C 
BRANCH  20  21
ATOM     21  C   UNL     1      -7.893   0.405 129.408  0.00  0.00    +0.000 C 
BRANCH  21  22
ATOM     22  C   UNL     1      -7.850  -0.839 130.240  0.00  0.00    +0.000 C 
BRANCH  22  23
ATOM     23  C   UNL     1      -6.838  -1.870 129.702  0.00  0.00    +0.000 C 
BRANCH  23  24
ATOM     24  C   UNL     1      -6.499  -2.991 130.707  0.00  0.00    +0.000 A 
ATOM     25  C   UNL     1      -7.010  -2.925 132.016  0.00  0.00    +0.000 A 
ATOM     26  C   UNL     1      -6.570  -3.803 133.003  0.00  0.00    +0.000 A 
ATOM     27  C   UNL     1      -5.722  -4.844 132.661  0.00  0.00    +0.000 A 
ATOM     28  F   UNL     1      -5.327  -5.711 133.600  0.00  0.00    +0.000 F 
ATOM     29  C   UNL     1      -5.285  -5.006 131.357  0.00  0.00    +0.000 A 
ATOM     30  C   UNL     1      -5.640  -4.062 130.396  0.00  0.00    +0.000 A 
ENDBRANCH  23  24
BRANCH  23  31
ATOM     31  C   UNL     1      -7.359  -2.449 128.383  0.00  0.00    +0.000 A 
ATOM     32  C   UNL     1      -6.734  -2.179 127.152  0.00  0.00    +0.000 A 
ATOM     33  C   UNL     1      -7.253  -2.669 125.961  0.00  0.00    +0.000 A 
ATOM     34  C   UNL     1      -8.407  -3.434 125.986  0.00  0.00    +0.000 A 
ATOM     35  F   UNL     1      -8.913  -3.897 124.839  0.00  0.00    +0.000 F 
ATOM     36  C   UNL     1      -9.039  -3.732 127.179  0.00  0.00    +0.000 A 
ATOM     37  C   UNL     1      -8.503  -3.261 128.370  0.00  0.00    +0.000 A 
ENDBRANCH  23  31
ENDBRANCH  22  23
ENDBRANCH  21  22
ENDBRANCH  20  21
ENDBRANCH   4  20
TORSDOF 9
ENDMDL
MODEL 4
REMARK VINA RESULT:      -9.3      3.569      9.297
REMARK  Name = Lidoflazine
REMARK  11 active torsions:
REMARK  status: ('A' for Active; 'I' for Inactive)
REMARK    1  A    between atoms: C_1  and  C_2
REMARK    2  A    between atoms: C_6  and  C_7
REMARK    3  A    between atoms: C_8  and  N_9
REMARK    4  A    between atoms: C_10  and  C_12
REMARK    5  A    between atoms: C_12  and  N_13
REMARK    6  A    between atoms: N_16  and  C_17
REMARK    7  A    between atoms: C_17  and  C_18
REMARK    8  A    between atoms: C_18  and  C_19
REMARK    9  A    between atoms: C_19  and  C_20
REMARK   10  A    between atoms: C_20  and  C_21
REMARK   11  A    between atoms: C_20  and  C_28
REMARK                            x       y       z     vdW  Elec       q    Type
REMARK                         _______ _______ _______ _____ _____    ______ ____
ROOT
ATOM      1  N   UNL     1      -4.993   3.383 128.862  0.00  0.00    +0.000 NA
ATOM      2  C   UNL     1      -6.041   3.478 129.926  0.00  0.00    +0.000 C 
ATOM      3  C   UNL     1      -5.514   3.901 131.326  0.00  0.00    +0.000 C 
ATOM      4  N   UNL     1      -4.711   5.135 131.312  0.00  0.00    +0.000 NA
ATOM      5  C   UNL     1      -3.764   4.990 130.207  0.00  0.00    +0.000 C 
ATOM      6  C   UNL     1      -4.441   4.748 128.821  0.00  0.00    +0.000 C 
ENDROOT
BRANCH   1   7
ATOM      7  C   UNL     1      -3.851   2.372 129.114  0.00  0.00    +0.000 C 
BRANCH   7   9
ATOM      8  N   UNL     1      -4.907   0.017 128.562  0.00  0.00    +0.000 N 
ATOM      9  C   UNL     1      -4.373   0.901 129.462  0.00  0.00    +0.000 C 
ATOM     10  O   UNL     1      -4.289   0.509 130.638  0.00  0.00    +0.000 OA
ATOM     11  H   UNL     1      -4.410  -0.056 127.677  0.00  0.00    +0.000 HD
BRANCH   8  19
ATOM     12  C   UNL     1      -3.800  -2.973 129.324  0.00  0.00    +0.000 C 
ATOM     13  C   UNL     1      -5.205  -2.471 129.319  0.00  0.00    +0.000 A 
ATOM     14  C   UNL     1      -6.042  -3.482 129.824  0.00  0.00    +0.000 A 
ATOM     15  C   UNL     1      -7.385  -3.269 129.967  0.00  0.00    +0.000 A 
ATOM     16  C   UNL     1      -7.904  -2.032 129.614  0.00  0.00    +0.000 A 
ATOM     17  C   UNL     1      -7.091  -0.971 129.143  0.00  0.00    +0.000 A 
ATOM     18  C   UNL     1      -7.773   0.320 128.785  0.00  0.00    +0.000 C 
ATOM     19  C   UNL     1      -5.703  -1.154 128.990  0.00  0.00    +0.000 A 
ENDBRANCH   8  19
ENDBRANCH   7   9
ENDBRANCH   1   7
BRANCH   4  20
ATOM     20  C   UNL     1      -5.472   6.355 131.072  0.00  0.00    +0.000 C 
BRANCH  20  21
ATOM     21  C   UNL     1      -6.773   6.325 131.885  0.00  0.00    +0.000 C 
BRANCH  21  22
ATOM     22  C   UNL     1      -7.905   6.765 131.010  0.00  0.00    +0.000 C 
BRANCH  22  23
ATOM     23  C   UNL     1      -9.280   6.388 131.595  0.00  0.00    +0.000 C 
BRANCH  23  24
ATOM     24  C   UNL     1     -10.472   6.982 130.815  0.00  0.00    +0.000 A 
ATOM     25  C   UNL     1     -11.776   6.826 131.321  0.00  0.00    +0.000 A 
ATOM     26  C   UNL     1     -12.887   7.168 130.557  0.00  0.00    +0.000 A 
ATOM     27  C   UNL     1     -12.708   7.799 129.337  0.00  0.00    +0.000 A 
ATOM     28  F   UNL     1     -13.776   8.163 128.618  0.00  0.00    +0.000 F 
ATOM     29  C   UNL     1     -11.438   8.070 128.856  0.00  0.00    +0.000 A 
ATOM     30  C   UNL     1     -10.329   7.627 129.573  0.00  0.00    +0.000 A 
ENDBRANCH  23  24
BRANCH  23  31
ATOM     31  C   UNL     1      -9.387   4.863 131.690  0.00  0.00    +0.000 A 
ATOM     32  C   UNL     1      -9.618   4.058 130.560  0.00  0.00    +0.000 A 
ATOM     33  C   UNL     1      -9.766   2.683 130.675  0.00  0.00    +0.000 A 
ATOM     34  C   UNL     1      -9.687   2.093 131.926  0.00  0.00    +0.000 A 
ATOM     35  F   UNL     1      -9.840   0.771 132.040  0.00  0.00    +0.000 F 
ATOM     36  C   UNL     1      -9.446   2.851 133.058  0.00  0.00    +0.000 A 
ATOM     37  C   UNL     1      -9.274   4.223 132.934  0.00  0.00    +0.000 A 
ENDBRANCH  23  31
ENDBRANCH  22  23
ENDBRANCH  21  22
ENDBRANCH  20  21
ENDBRANCH   4  20
TORSDOF 9
ENDMDL
MODEL 5
REMARK VINA RESULT:      -9.2      1.593      4.451
REMARK  Name = Lidoflazine
REMARK  11 active torsions:
REMARK  status: ('A' for Active; 'I' for Inactive)
REMARK    1  A    between atoms: C_1  and  C_2
REMARK    2  A    between atoms: C_6  and  C_7
REMARK    3  A    between atoms: C_8  and  N_9
REMARK    4  A    between atoms: C_10  and  C_12
REMARK    5  A    between atoms: C_12  and  N_13
REMARK    6  A    between atoms: N_16  and  C_17
REMARK    7  A    between atoms: C_17  and  C_18
REMARK    8  A    between atoms: C_18  and  C_19
REMARK    9  A    between atoms: C_19  and  C_20
REMARK   10  A    between atoms: C_20  and  C_21
REMARK   11  A    between atoms: C_20  and  C_28
REMARK                            x       y       z     vdW  Elec       q    Type
REMARK                         _______ _______ _______ _____ _____    ______ ____
ROOT
ATOM      1  N   UNL     1      -9.753   2.963 131.524  0.00  0.00    +0.000 NA
ATOM      2  C   UNL     1      -9.274   2.928 130.107  0.00  0.00    +0.000 C 
ATOM      3  C   UNL     1      -7.734   3.047 129.934  0.00  0.00    +0.000 C 
ATOM      4  N   UNL     1      -6.967   2.082 130.740  0.00  0.00    +0.000 NA
ATOM      5  C   UNL     1      -7.541   2.129 132.084  0.00  0.00    +0.000 C 
ATOM      6  C   UNL     1      -9.068   1.810 132.132  0.00  0.00    +0.000 C 
ENDROOT
BRANCH   1   7
ATOM      7  C   UNL     1      -9.421   4.243 132.327  0.00  0.00    +0.000 C 
BRANCH   7   9
ATOM      8  N   UNL     1     -11.123   5.663 130.896  0.00  0.00    +0.000 N 
ATOM      9  C   UNL     1      -9.983   5.578 131.651  0.00  0.00    +0.000 C 
ATOM     10  O   UNL     1      -9.353   6.635 131.820  0.00  0.00    +0.000 OA
ATOM     11  H   UNL     1     -11.930   5.166 131.268  0.00  0.00    +0.000 HD
BRANCH   8  19
ATOM     12  C   UNL     1      -9.744   6.285 127.987  0.00  0.00    +0.000 C 
ATOM     13  C   UNL     1     -10.770   7.080 128.722  0.00  0.00    +0.000 A 
ATOM     14  C   UNL     1     -11.182   8.146 127.903  0.00  0.00    +0.000 A 
ATOM     15  C   UNL     1     -12.153   9.012 128.320  0.00  0.00    +0.000 A 
ATOM     16  C   UNL     1     -12.733   8.813 129.565  0.00  0.00    +0.000 A 
ATOM     17  C   UNL     1     -12.381   7.727 130.404  0.00  0.00    +0.000 A 
ATOM     18  C   UNL     1     -13.074   7.623 131.733  0.00  0.00    +0.000 C 
ATOM     19  C   UNL     1     -11.388   6.811 130.002  0.00  0.00    +0.000 A 
ENDBRANCH   8  19
ENDBRANCH   7   9
ENDBRANCH   1   7
BRANCH   4  20
ATOM     20  C   UNL     1      -7.055   0.701 130.281  0.00  0.00    +0.000 C 
BRANCH  20  21
ATOM     21  C   UNL     1      -6.527   0.596 128.843  0.00  0.00    +0.000 C 
BRANCH  21  22
ATOM     22  C   UNL     1      -7.388  -0.360 128.077  0.00  0.00    +0.000 C 
BRANCH  22  23
ATOM     23  C   UNL     1      -6.574  -1.504 127.443  0.00  0.00    +0.000 C 
BRANCH  23  24
ATOM     24  C   UNL     1      -6.042  -2.531 128.465  0.00  0.00    +0.000 A 
ATOM     25  C   UNL     1      -6.946  -3.188 129.320  0.00  0.00    +0.000 A 
ATOM     26  C   UNL     1      -6.493  -3.966 130.381  0.00  0.00    +0.000 A 
ATOM     27  C   UNL     1      -5.136  -4.211 130.518  0.00  0.00    +0.000 A 
ATOM     28  F   UNL     1      -4.702  -4.989 131.515  0.00  0.00    +0.000 F 
ATOM     29  C   UNL     1      -4.224  -3.670 129.627  0.00  0.00    +0.000 A 
ATOM     30  C   UNL     1      -4.672  -2.804 128.633  0.00  0.00    +0.000 A 
ENDBRANCH  23  24
BRANCH  23  31
ATOM     31  C   UNL     1      -7.418  -2.186 126.362  0.00  0.00    +0.000 A 
ATOM     32  C   UNL     1      -6.845  -2.718 125.193  0.00  0.00    +0.000 A 
ATOM     33  C   UNL     1      -7.634  -3.284 124.200  0.00  0.00    +0.000 A 
ATOM     34  C   UNL     1      -9.008  -3.324 124.364  0.00  0.00    +0.000 A 
ATOM     35  F   UNL     1      -9.769  -3.859 123.405  0.00  0.00    +0.000 F 
ATOM     36  C   UNL     1      -9.605  -2.824 125.507  0.00  0.00    +0.000 A 
ATOM     37  C   UNL     1      -8.811  -2.282 126.509  0.00  0.00    +0.000 A 
ENDBRANCH  23  31
ENDBRANCH  22  23
ENDBRANCH  21  22
ENDBRANCH  20  21
ENDBRANCH   4  20
TORSDOF 9
ENDMDL
MODEL 6
REMARK VINA RESULT:      -9.1      0.822      1.989
REMARK  Name = Lidoflazine
REMARK  11 active torsions:
REMARK  status: ('A' for Active; 'I' for Inactive)
REMARK    1  A    between atoms: C_1  and  C_2
REMARK    2  A    between atoms: C_6  and  C_7
REMARK    3  A    between atoms: C_8  and  N_9
REMARK    4  A    between atoms: C_10  and  C_12
REMARK    5  A    between atoms: C_12  and  N_13
REMARK    6  A    between atoms: N_16  and  C_17
REMARK    7  A    between atoms: C_17  and  C_18
REMARK    8  A    between atoms: C_18  and  C_19
REMARK    9  A    between atoms: C_19  and  C_20
REMARK   10  A    between atoms: C_20  and  C_21
REMARK   11  A    between atoms: C_20  and  C_28
REMARK                            x       y       z     vdW  Elec       q    Type
REMARK                         _______ _______ _______ _____ _____    ______ ____
ROOT
ATOM      1  N   UNL     1      -6.409   4.754 128.902  0.00  0.00    +0.000 NA
ATOM      2  C   UNL     1      -5.027   4.254 129.185  0.00  0.00    +0.000 C 
ATOM      3  C   UNL     1      -4.928   2.728 129.463  0.00  0.00    +0.000 C 
ATOM      4  N   UNL     1      -5.553   1.892 128.425  0.00  0.00    +0.000 NA
ATOM      5  C   UNL     1      -6.862   2.485 128.160  0.00  0.00    +0.000 C 
ATOM      6  C   UNL     1      -6.801   3.979 127.712  0.00  0.00    +0.000 C 
ENDROOT
BRANCH   1   7
ATOM      7  C   UNL     1      -7.455   4.545 130.022  0.00  0.00    +0.000 C 
BRANCH   7   9
ATOM      8  N   UNL     1      -9.280   6.350 129.413  0.00  0.00    +0.000 N 
ATOM      9  C   UNL     1      -8.919   5.045 129.622  0.00  0.00    +0.000 C 
ATOM     10  O   UNL     1      -9.814   4.195 129.477  0.00  0.00    +0.000 OA
ATOM     11  H   UNL     1      -8.627   6.898 128.857  0.00  0.00    +0.000 HD
BRANCH   8  19
ATOM     12  C   UNL     1     -11.298   6.541 131.989  0.00  0.00    +0.000 C 
ATOM     13  C   UNL     1     -11.579   6.859 130.559  0.00  0.00    +0.000 A 
ATOM     14  C   UNL     1     -12.875   7.394 130.466  0.00  0.00    +0.000 A 
ATOM     15  C   UNL     1     -13.373   7.813 129.264  0.00  0.00    +0.000 A 
ATOM     16  C   UNL     1     -12.569   7.709 128.138  0.00  0.00    +0.000 A 
ATOM     17  C   UNL     1     -11.241   7.217 128.193  0.00  0.00    +0.000 A 
ATOM     18  C   UNL     1     -10.474   7.145 126.903  0.00  0.00    +0.000 C 
ATOM     19  C   UNL     1     -10.694   6.783 129.417  0.00  0.00    +0.000 A 
ENDBRANCH   8  19
ENDBRANCH   7   9
ENDBRANCH   1   7
BRANCH   4  20
ATOM     20  C   UNL     1      -4.831   1.853 127.158  0.00  0.00    +0.000 C 
BRANCH  20  21
ATOM     21  C   UNL     1      -5.572   0.947 126.165  0.00  0.00    +0.000 C 
BRANCH  21  22
ATOM     22  C   UNL     1      -5.319  -0.483 126.528  0.00  0.00    +0.000 C 
BRANCH  22  23
ATOM     23  C   UNL     1      -6.579  -1.182 127.073  0.00  0.00    +0.000 C 
BRANCH  23  24
ATOM     24  C   UNL     1      -7.427  -1.875 125.986  0.00  0.00    +0.000 A 
ATOM     25  C   UNL     1      -8.691  -1.352 125.658  0.00  0.00    +0.000 A 
ATOM     26  C   UNL     1      -9.565  -2.055 124.833  0.00  0.00    +0.000 A 
ATOM     27  C   UNL     1      -9.134  -3.218 124.215  0.00  0.00    +0.000 A 
ATOM     28  F   UNL     1      -9.959  -3.875 123.392  0.00  0.00    +0.000 F 
ATOM     29  C   UNL     1      -7.855  -3.703 124.427  0.00  0.00    +0.000 A 
ATOM     30  C   UNL     1      -7.023  -3.057 125.339  0.00  0.00    +0.000 A 
ENDBRANCH  23  24
BRANCH  23  31
ATOM     31  C   UNL     1      -6.174  -2.170 128.171  0.00  0.00    +0.000 A 
ATOM     32  C   UNL     1      -4.834  -2.547 128.379  0.00  0.00    +0.000 A 
ATOM     33  C   UNL     1      -4.494  -3.486 129.343  0.00  0.00    +0.000 A 
ATOM     34  C   UNL     1      -5.491  -4.062 130.113  0.00  0.00    +0.000 A 
ATOM     35  F   UNL     1      -5.165  -4.974 131.034  0.00  0.00    +0.000 F 
ATOM     36  C   UNL     1      -6.817  -3.704 129.947  0.00  0.00    +0.000 A 
ATOM     37  C   UNL     1      -7.150  -2.747 128.998  0.00  0.00    +0.000 A 
ENDBRANCH  23  31
ENDBRANCH  22  23
ENDBRANCH  21  22
ENDBRANCH  20  21
ENDBRANCH   4  20
TORSDOF 9
ENDMDL
MODEL 7
REMARK VINA RESULT:      -9.1      2.390      3.693
REMARK  Name = Lidoflazine
REMARK  11 active torsions:
REMARK  status: ('A' for Active; 'I' for Inactive)
REMARK    1  A    between atoms: C_1  and  C_2
REMARK    2  A    between atoms: C_6  and  C_7
REMARK    3  A    between atoms: C_8  and  N_9
REMARK    4  A    between atoms: C_10  and  C_12
REMARK    5  A    between atoms: C_12  and  N_13
REMARK    6  A    between atoms: N_16  and  C_17
REMARK    7  A    between atoms: C_17  and  C_18
REMARK    8  A    between atoms: C_18  and  C_19
REMARK    9  A    between atoms: C_19  and  C_20
REMARK   10  A    between atoms: C_20  and  C_21
REMARK   11  A    between atoms: C_20  and  C_28
REMARK                            x       y       z     vdW  Elec       q    Type
REMARK                         _______ _______ _______ _____ _____    ______ ____
ROOT
ATOM      1  N   UNL     1      -7.909   4.007 128.611  0.00  0.00    +0.000 NA
ATOM      2  C   UNL     1      -6.652   4.037 127.799  0.00  0.00    +0.000 C 
ATOM      3  C   UNL     1      -5.398   3.460 128.513  0.00  0.00    +0.000 C 
ATOM      4  N   UNL     1      -5.597   2.110 129.067  0.00  0.00    +0.000 NA
ATOM      5  C   UNL     1      -6.872   2.148 129.782  0.00  0.00    +0.000 C 
ATOM      6  C   UNL     1      -8.083   2.572 128.895  0.00  0.00    +0.000 C 
ENDROOT
BRANCH   1   7
ATOM      7  C   UNL     1      -7.883   4.796 129.941  0.00  0.00    +0.000 C 
BRANCH   7   9
ATOM      8  N   UNL     1     -10.312   5.812 129.760  0.00  0.00    +0.000 N 
ATOM      9  C   UNL     1      -8.972   5.964 130.005  0.00  0.00    +0.000 C 
ATOM     10  O   UNL     1      -8.593   7.108 130.306  0.00  0.00    +0.000 OA
ATOM     11  H   UNL     1     -10.742   4.993 130.186  0.00  0.00    +0.000 HD
BRANCH   8  19
ATOM     12  C   UNL     1     -10.647   7.391 126.906  0.00  0.00    +0.000 C 
ATOM     13  C   UNL     1     -11.329   7.657 128.206  0.00  0.00    +0.000 A 
ATOM     14  C   UNL     1     -12.283   8.672 128.011  0.00  0.00    +0.000 A 
ATOM     15  C   UNL     1     -13.085   9.083 129.038  0.00  0.00    +0.000 A 
ATOM     16  C   UNL     1     -12.947   8.472 130.276  0.00  0.00    +0.000 A 
ATOM     17  C   UNL     1     -12.029   7.417 130.506  0.00  0.00    +0.000 A 
ATOM     18  C   UNL     1     -11.966   6.842 131.894  0.00  0.00    +0.000 C 
ATOM     19  C   UNL     1     -11.192   6.963 129.468  0.00  0.00    +0.000 A 
ENDBRANCH   8  19
ENDBRANCH   7   9
ENDBRANCH   1   7
BRANCH   4  20
ATOM     20  C   UNL     1      -5.692   1.050 128.070  0.00  0.00    +0.000 C 
BRANCH  20  21
ATOM     21  C   UNL     1      -4.789   1.378 126.874  0.00  0.00    +0.000 C 
BRANCH  21  22
ATOM     22  C   UNL     1      -5.246   0.590 125.687  0.00  0.00    +0.000 C 
BRANCH  22  23
ATOM     23  C   UNL     1      -6.782   0.530 125.578  0.00  0.00    +0.000 C 
BRANCH  23  24
ATOM     24  C   UNL     1      -7.368   1.480 124.512  0.00  0.00    +0.000 A 
ATOM     25  C   UNL     1      -8.749   1.452 124.245  0.00  0.00    +0.000 A 
ATOM     26  C   UNL     1      -9.284   2.143 123.162  0.00  0.00    +0.000 A 
ATOM     27  C   UNL     1      -8.470   2.981 122.418  0.00  0.00    +0.000 A 
ATOM     28  F   UNL     1      -8.990   3.675 121.399  0.00  0.00    +0.000 F 
ATOM     29  C   UNL     1      -7.126   3.120 122.721  0.00  0.00    +0.000 A 
ATOM     30  C   UNL     1      -6.572   2.343 123.736  0.00  0.00    +0.000 A 
ENDBRANCH  23  24
BRANCH  23  31
ATOM     31  C   UNL     1      -7.215  -0.917 125.326  0.00  0.00    +0.000 A 
ATOM     32  C   UNL     1      -8.178  -1.558 126.127  0.00  0.00    +0.000 A 
ATOM     33  C   UNL     1      -8.518  -2.888 125.916  0.00  0.00    +0.000 A 
ATOM     34  C   UNL     1      -7.896  -3.595 124.901  0.00  0.00    +0.000 A 
ATOM     35  F   UNL     1      -8.214  -4.878 124.704  0.00  0.00    +0.000 F 
ATOM     36  C   UNL     1      -6.956  -2.994 124.084  0.00  0.00    +0.000 A 
ATOM     37  C   UNL     1      -6.638  -1.657 124.283  0.00  0.00    +0.000 A 
ENDBRANCH  23  31
ENDBRANCH  22  23
ENDBRANCH  21  22
ENDBRANCH  20  21
ENDBRANCH   4  20
TORSDOF 9
ENDMDL
MODEL 8
REMARK VINA RESULT:      -9.0      1.867      2.726
REMARK  Name = Lidoflazine
REMARK  11 active torsions:
REMARK  status: ('A' for Active; 'I' for Inactive)
REMARK    1  A    between atoms: C_1  and  C_2
REMARK    2  A    between atoms: C_6  and  C_7
REMARK    3  A    between atoms: C_8  and  N_9
REMARK    4  A    between atoms: C_10  and  C_12
REMARK    5  A    between atoms: C_12  and  N_13
REMARK    6  A    between atoms: N_16  and  C_17
REMARK    7  A    between atoms: C_17  and  C_18
REMARK    8  A    between atoms: C_18  and  C_19
REMARK    9  A    between atoms: C_19  and  C_20
REMARK   10  A    between atoms: C_20  and  C_21
REMARK   11  A    between atoms: C_20  and  C_28
REMARK                            x       y       z     vdW  Elec       q    Type
REMARK                         _______ _______ _______ _____ _____    ______ ____
ROOT
ATOM      1  N   UNL     1      -6.982   3.538 130.864  0.00  0.00    +0.000 NA
ATOM      2  C   UNL     1      -7.708   2.236 130.736  0.00  0.00    +0.000 C 
ATOM      3  C   UNL     1      -7.229   1.332 129.566  0.00  0.00    +0.000 C 
ATOM      4  N   UNL     1      -5.776   1.091 129.556  0.00  0.00    +0.000 NA
ATOM      5  C   UNL     1      -5.147   2.396 129.754  0.00  0.00    +0.000 C 
ATOM      6  C   UNL     1      -5.585   3.117 131.067  0.00  0.00    +0.000 C 
ENDROOT
BRANCH   1   7
ATOM      7  C   UNL     1      -7.063   4.488 129.646  0.00  0.00    +0.000 C 
BRANCH   7   9
ATOM      8  N   UNL     1      -8.730   6.464 130.174  0.00  0.00    +0.000 N 
ATOM      9  C   UNL     1      -8.450   5.277 129.549  0.00  0.00    +0.000 C 
ATOM     10  O   UNL     1      -9.355   4.793 128.850  0.00  0.00    +0.000 OA
ATOM     11  H   UNL     1      -7.995   7.166 130.123  0.00  0.00    +0.000 HD
BRANCH   8  19
ATOM     12  C   UNL     1     -10.472   8.336 128.122  0.00  0.00    +0.000 C 
ATOM     13  C   UNL     1     -10.875   7.778 129.446  0.00  0.00    +0.000 A 
ATOM     14  C   UNL     1     -12.229   8.085 129.667  0.00  0.00    +0.000 A 
ATOM     15  C   UNL     1     -12.868   7.651 130.794  0.00  0.00    +0.000 A 
ATOM     16  C   UNL     1     -12.156   6.893 131.713  0.00  0.00    +0.000 A 
ATOM     17  C   UNL     1     -10.803   6.523 131.510  0.00  0.00    +0.000 A 
ATOM     18  C   UNL     1     -10.138   5.706 132.582  0.00  0.00    +0.000 C 
ATOM     19  C   UNL     1     -10.116   6.947 130.355  0.00  0.00    +0.000 A 
ENDBRANCH   8  19
ENDBRANCH   7   9
ENDBRANCH   1   7
BRANCH   4  20
ATOM     20  C   UNL     1      -5.297   0.214 130.618  0.00  0.00    +0.000 C 
BRANCH  20  21
ATOM     21  C   UNL     1      -4.126  -0.634 130.104  0.00  0.00    +0.000 C 
BRANCH  21  22
ATOM     22  C   UNL     1      -4.659  -1.923 129.563  0.00  0.00    +0.000 C 
BRANCH  22  23
ATOM     23  C   UNL     1      -6.103  -2.201 130.023  0.00  0.00    +0.000 C 
BRANCH  23  24
ATOM     24  C   UNL     1      -7.044  -2.649 128.886  0.00  0.00    +0.000 A 
ATOM     25  C   UNL     1      -6.875  -2.113 127.596  0.00  0.00    +0.000 A 
ATOM     26  C   UNL     1      -7.818  -2.336 126.596  0.00  0.00    +0.000 A 
ATOM     27  C   UNL     1      -8.867  -3.210 126.832  0.00  0.00    +0.000 A 
ATOM     28  F   UNL     1      -9.754  -3.454 125.860  0.00  0.00    +0.000 F 
ATOM     29  C   UNL     1      -9.004  -3.843 128.055  0.00  0.00    +0.000 A 
ATOM     30  C   UNL     1      -8.121  -3.532 129.087  0.00  0.00    +0.000 A 
ENDBRANCH  23  24
BRANCH  23  31
ATOM     31  C   UNL     1      -6.082  -3.228 131.160  0.00  0.00    +0.000 A 
ATOM     32  C   UNL     1      -6.796  -3.031 132.356  0.00  0.00    +0.000 A 
ATOM     33  C   UNL     1      -6.720  -3.948 133.396  0.00  0.00    +0.000 A 
ATOM     34  C   UNL     1      -5.928  -5.075 133.252  0.00  0.00    +0.000 A 
ATOM     35  F   UNL     1      -5.846  -5.952 134.257  0.00  0.00    +0.000 F 
ATOM     36  C   UNL     1      -5.225  -5.309 132.085  0.00  0.00    +0.000 A 
ATOM     37  C   UNL     1      -5.322  -4.401 131.038  0.00  0.00    +0.000 A 
ENDBRANCH  23  31
ENDBRANCH  22  23
ENDBRANCH  21  22
ENDBRANCH  20  21
ENDBRANCH   4  20
TORSDOF 9
ENDMDL
MODEL 9
REMARK VINA RESULT:      -9.0      3.595      9.353
REMARK  Name = Lidoflazine
REMARK  11 active torsions:
REMARK  status: ('A' for Active; 'I' for Inactive)
REMARK    1  A    between atoms: C_1  and  C_2
REMARK    2  A    between atoms: C_6  and  C_7
REMARK    3  A    between atoms: C_8  and  N_9
REMARK    4  A    between atoms: C_10  and  C_12
REMARK    5  A    between atoms: C_12  and  N_13
REMARK    6  A    between atoms: N_16  and  C_17
REMARK    7  A    between atoms: C_17  and  C_18
REMARK    8  A    between atoms: C_18  and  C_19
REMARK    9  A    between atoms: C_19  and  C_20
REMARK   10  A    between atoms: C_20  and  C_21
REMARK   11  A    between atoms: C_20  and  C_28
REMARK                            x       y       z     vdW  Elec       q    Type
REMARK                         _______ _______ _______ _____ _____    ______ ____
ROOT
ATOM      1  N   UNL     1      -6.134   2.765 126.783  0.00  0.00    +0.000 NA
ATOM      2  C   UNL     1      -7.111   2.632 127.909  0.00  0.00    +0.000 C 
ATOM      3  C   UNL     1      -6.486   2.710 129.330  0.00  0.00    +0.000 C 
ATOM      4  N   UNL     1      -5.643   3.898 129.545  0.00  0.00    +0.000 NA
ATOM      5  C   UNL     1      -4.771   3.994 128.375  0.00  0.00    +0.000 C 
ATOM      6  C   UNL     1      -5.539   4.092 127.020  0.00  0.00    +0.000 C 
ENDROOT
BRANCH   1   7
ATOM      7  C   UNL     1      -5.014   1.701 126.720  0.00  0.00    +0.000 C 
BRANCH   7   9
ATOM      8  N   UNL     1      -6.222  -0.014 125.119  0.00  0.00    +0.000 N 
ATOM      9  C   UNL     1      -5.537   0.258 126.274  0.00  0.00    +0.000 C 
ATOM     10  O   UNL     1      -5.307  -0.709 127.020  0.00  0.00    +0.000 OA
ATOM     11  H   UNL     1      -5.854   0.430 124.281  0.00  0.00    +0.000 HD
BRANCH   8  19
ATOM     12  C   UNL     1      -5.151  -2.859 123.890  0.00  0.00    +0.000 C 
ATOM     13  C   UNL     1      -6.514  -2.512 124.391  0.00  0.00    +0.000 A 
ATOM     14  C   UNL     1      -7.306  -3.674 124.371  0.00  0.00    +0.000 A 
ATOM     15  C   UNL     1      -8.596  -3.646 124.822  0.00  0.00    +0.000 A 
ATOM     16  C   UNL     1      -9.105  -2.451 125.310  0.00  0.00    +0.000 A 
ATOM     17  C   UNL     1      -8.329  -1.268 125.390  0.00  0.00    +0.000 A 
ATOM     18  C   UNL     1      -8.996  -0.035 125.929  0.00  0.00    +0.000 C 
ATOM     19  C   UNL     1      -6.993  -1.263 124.940  0.00  0.00    +0.000 A 
ENDBRANCH   8  19
ENDBRANCH   7   9
ENDBRANCH   1   7
BRANCH   4  20
ATOM     20  C   UNL     1      -6.376   5.155 129.643  0.00  0.00    +0.000 C 
BRANCH  20  21
ATOM     21  C   UNL     1      -6.965   5.306 131.052  0.00  0.00    +0.000 C 
BRANCH  21  22
ATOM     22  C   UNL     1      -7.835   6.523 131.088  0.00  0.00    +0.000 C 
BRANCH  22  23
ATOM     23  C   UNL     1      -9.228   6.232 131.677  0.00  0.00    +0.000 C 
BRANCH  23  24
ATOM     24  C   UNL     1     -10.387   6.861 130.875  0.00  0.00    +0.000 A 
ATOM     25  C   UNL     1     -10.115   7.498 129.650  0.00  0.00    +0.000 A 
ATOM     26  C   UNL     1     -11.092   8.245 128.998  0.00  0.00    +0.000 A 
ATOM     27  C   UNL     1     -12.388   8.249 129.488  0.00  0.00    +0.000 A 
ATOM     28  F   UNL     1     -13.337   8.936 128.842  0.00  0.00    +0.000 F 
ATOM     29  C   UNL     1     -12.718   7.541 130.632  0.00  0.00    +0.000 A 
ATOM     30  C   UNL     1     -11.715   6.886 131.341  0.00  0.00    +0.000 A 
ENDBRANCH  23  24
BRANCH  23  31
ATOM     31  C   UNL     1      -9.411   4.718 131.818  0.00  0.00    +0.000 A 
ATOM     32  C   UNL     1      -9.182   4.048 133.034  0.00  0.00    +0.000 A 
ATOM     33  C   UNL     1      -9.301   2.668 133.127  0.00  0.00    +0.000 A 
ATOM     34  C   UNL     1      -9.649   1.939 132.003  0.00  0.00    +0.000 A 
ATOM     35  F   UNL     1      -9.753   0.609 132.089  0.00  0.00    +0.000 F 
ATOM     36  C   UNL     1      -9.898   2.564 130.795  0.00  0.00    +0.000 A 
ATOM     37  C   UNL     1      -9.802   3.947 130.712  0.00  0.00    +0.000 A 
ENDBRANCH  23  31
ENDBRANCH  22  23
ENDBRANCH  21  22
ENDBRANCH  20  21
ENDBRANCH   4  20
TORSDOF 9
ENDMDL
