MODEL 1
REMARK VINA RESULT:      -6.1      0.000      0.000
REMARK  Name = Lidocaine
REMARK  9 active torsions:
REMARK  status: ('A' for Active; 'I' for Inactive)
REMARK    1  A    between atoms: C_1  and  C_2
REMARK    2  A    between atoms: C_2  and  N_3
REMARK    3  A    between atoms: N_3  and  C_4
REMARK    4  A    between atoms: N_3  and  C_6
REMARK    5  A    between atoms: C_4  and  C_5
REMARK    6  A    between atoms: C_6  and  C_7
REMARK    7  A    between atoms: N_9  and  C_10
REMARK    8  A    between atoms: C_11  and  C_12
REMARK    9  A    between atoms: C_16  and  C_17
REMARK                            x       y       z     vdW  Elec       q    Type
REMARK                         _______ _______ _______ _____ _____    ______ ____
ROOT
ATOM      1  C   UNL     1      -7.316   1.267 124.188  0.00  0.00    +0.000 C 
ATOM      2  O   UNL     1      -7.833   1.081 125.284  0.00  0.00    +0.000 OA
ATOM      3  N   UNL     1      -7.084   0.222 123.280  0.00  0.00    +0.000 N 
ATOM      4  H   UNL     1      -6.288   0.292 122.661  0.00  0.00    +0.000 HD
ENDROOT
BRANCH   3   5
ATOM      5  C   UNL     1      -7.640  -1.075 123.505  0.00  0.00    +0.000 A 
ATOM      6  C   UNL     1      -6.863  -2.079 124.131  0.00  0.00    +0.000 A 
ATOM      7  C   UNL     1      -5.467  -1.859 124.653  0.00  0.00    +0.000 C 
ATOM      8  C   UNL     1      -7.406  -3.359 124.339  0.00  0.00    +0.000 A 
ATOM      9  C   UNL     1      -8.707  -3.655 123.958  0.00  0.00    +0.000 A 
ATOM     10  C   UNL     1      -9.486  -2.668 123.366  0.00  0.00    +0.000 A 
ATOM     11  C   UNL     1      -8.978  -1.369 123.145  0.00  0.00    +0.000 A 
ATOM     12  C   UNL     1      -9.881  -0.392 122.445  0.00  0.00    +0.000 C 
ENDBRANCH   3   5
BRANCH   1  13
ATOM     13  C   UNL     1      -6.896   2.684 123.703  0.00  0.00    +0.000 C 
BRANCH  13  14
ATOM     14  N   UNL     1      -7.140   2.872 122.227  0.00  0.00    +0.000 NA
BRANCH  14  16
ATOM     15  C   UNL     1      -8.916   3.724 120.613  0.00  0.00    +0.000 C 
ATOM     16  C   UNL     1      -8.573   3.129 121.981  0.00  0.00    +0.000 C 
ENDBRANCH  14  16
BRANCH  14  17
ATOM     17  C   UNL     1      -6.246   3.920 121.685  0.00  0.00    +0.000 C 
ATOM     18  C   UNL     1      -5.107   3.448 120.783  0.00  0.00    +0.000 C 
ENDBRANCH  14  17
ENDBRANCH  13  14
ENDBRANCH   1  13
TORSDOF 5
ENDMDL
MODEL 2
REMARK VINA RESULT:      -6.0      0.436      2.196
REMARK  Name = Lidocaine
REMARK  9 active torsions:
REMARK  status: ('A' for Active; 'I' for Inactive)
REMARK    1  A    between atoms: C_1  and  C_2
REMARK    2  A    between atoms: C_2  and  N_3
REMARK    3  A    between atoms: N_3  and  C_4
REMARK    4  A    between atoms: N_3  and  C_6
REMARK    5  A    between atoms: C_4  and  C_5
REMARK    6  A    between atoms: C_6  and  C_7
REMARK    7  A    between atoms: N_9  and  C_10
REMARK    8  A    between atoms: C_11  and  C_12
REMARK    9  A    between atoms: C_16  and  C_17
REMARK                            x       y       z     vdW  Elec       q    Type
REMARK                         _______ _______ _______ _____ _____    ______ ____
ROOT
ATOM      1  C   UNL     1      -7.173   1.040 124.270  0.00  0.00    +0.000 C 
ATOM      2  O   UNL     1      -7.638   0.858 125.390  0.00  0.00    +0.000 OA
ATOM      3  N   UNL     1      -7.003  -0.005 123.348  0.00  0.00    +0.000 N 
ATOM      4  H   UNL     1      -6.237   0.054 122.692  0.00  0.00    +0.000 HD
ENDROOT
BRANCH   3   5
ATOM      5  C   UNL     1      -7.570  -1.293 123.595  0.00  0.00    +0.000 A 
ATOM      6  C   UNL     1      -8.912  -1.557 123.231  0.00  0.00    +0.000 A 
ATOM      7  C   UNL     1      -9.802  -0.568 122.523  0.00  0.00    +0.000 C 
ATOM      8  C   UNL     1      -9.473  -2.821 123.487  0.00  0.00    +0.000 A 
ATOM      9  C   UNL     1      -8.725  -3.830 124.076  0.00  0.00    +0.000 A 
ATOM     10  C   UNL     1      -7.398  -3.588 124.412  0.00  0.00    +0.000 A 
ATOM     11  C   UNL     1      -6.798  -2.335 124.166  0.00  0.00    +0.000 A 
ATOM     12  C   UNL     1      -5.376  -2.156 124.621  0.00  0.00    +0.000 C 
ENDBRANCH   3   5
BRANCH   1  13
ATOM     13  C   UNL     1      -6.751   2.452 123.771  0.00  0.00    +0.000 C 
BRANCH  13  14
ATOM     14  N   UNL     1      -7.067   2.652 122.310  0.00  0.00    +0.000 NA
BRANCH  14  16
ATOM     15  C   UNL     1      -8.834   3.690 120.800  0.00  0.00    +0.000 C 
ATOM     16  C   UNL     1      -8.474   3.065 122.150  0.00  0.00    +0.000 C 
ENDBRANCH  14  16
BRANCH  14  17
ATOM     17  C   UNL     1      -6.099   3.589 121.697  0.00  0.00    +0.000 C 
ATOM     18  C   UNL     1      -5.264   4.434 122.657  0.00  0.00    +0.000 C 
ENDBRANCH  14  17
ENDBRANCH  13  14
ENDBRANCH   1  13
TORSDOF 5
ENDMDL
MODEL 3
REMARK VINA RESULT:      -5.7      1.054      1.760
REMARK  Name = Lidocaine
REMARK  9 active torsions:
REMARK  status: ('A' for Active; 'I' for Inactive)
REMARK    1  A    between atoms: C_1  and  C_2
REMARK    2  A    between atoms: C_2  and  N_3
REMARK    3  A    between atoms: N_3  and  C_4
REMARK    4  A    between atoms: N_3  and  C_6
REMARK    5  A    between atoms: C_4  and  C_5
REMARK    6  A    between atoms: C_6  and  C_7
REMARK    7  A    between atoms: N_9  and  C_10
REMARK    8  A    between atoms: C_11  and  C_12
REMARK    9  A    between atoms: C_16  and  C_17
REMARK                            x       y       z     vdW  Elec       q    Type
REMARK                         _______ _______ _______ _____ _____    ______ ____
ROOT
ATOM      1  C   UNL     1      -7.859   1.560 124.386  0.00  0.00    +0.000 C 
ATOM      2  O   UNL     1      -8.450   1.295 125.427  0.00  0.00    +0.000 OA
ATOM      3  N   UNL     1      -7.345   0.566 123.539  0.00  0.00    +0.000 N 
ATOM      4  H   UNL     1      -6.512   0.773 123.006  0.00  0.00    +0.000 HD
ENDROOT
BRANCH   3   5
ATOM      5  C   UNL     1      -7.681  -0.808 123.742  0.00  0.00    +0.000 A 
ATOM      6  C   UNL     1      -6.805  -1.651 124.468  0.00  0.00    +0.000 A 
ATOM      7  C   UNL     1      -5.531  -1.179 125.118  0.00  0.00    +0.000 C 
ATOM      8  C   UNL     1      -7.130  -3.006 124.655  0.00  0.00    +0.000 A 
ATOM      9  C   UNL     1      -8.312  -3.535 124.156  0.00  0.00    +0.000 A 
ATOM     10  C   UNL     1      -9.190  -2.709 123.465  0.00  0.00    +0.000 A 
ATOM     11  C   UNL     1      -8.903  -1.341 123.261  0.00  0.00    +0.000 A 
ATOM     12  C   UNL     1      -9.889  -0.548 122.450  0.00  0.00    +0.000 C 
ENDBRANCH   3   5
BRANCH   1  13
ATOM     13  C   UNL     1      -7.649   3.025 123.907  0.00  0.00    +0.000 C 
BRANCH  13  14
ATOM     14  N   UNL     1      -6.283   3.232 123.303  0.00  0.00    +0.000 NA
BRANCH  14  16
ATOM     15  C   UNL     1      -5.137   4.044 121.179  0.00  0.00    +0.000 C 
ATOM     16  C   UNL     1      -6.408   3.539 121.865  0.00  0.00    +0.000 C 
ENDBRANCH  14  16
BRANCH  14  17
ATOM     17  C   UNL     1      -5.530   4.253 124.065  0.00  0.00    +0.000 C 
ATOM     18  C   UNL     1      -4.870   3.789 125.362  0.00  0.00    +0.000 C 
ENDBRANCH  14  17
ENDBRANCH  13  14
ENDBRANCH   1  13
TORSDOF 5
ENDMDL
MODEL 4
REMARK VINA RESULT:      -5.6      7.674      9.890
REMARK  Name = Lidocaine
REMARK  9 active torsions:
REMARK  status: ('A' for Active; 'I' for Inactive)
REMARK    1  A    between atoms: C_1  and  C_2
REMARK    2  A    between atoms: C_2  and  N_3
REMARK    3  A    between atoms: N_3  and  C_4
REMARK    4  A    between atoms: N_3  and  C_6
REMARK    5  A    between atoms: C_4  and  C_5
REMARK    6  A    between atoms: C_6  and  C_7
REMARK    7  A    between atoms: N_9  and  C_10
REMARK    8  A    between atoms: C_11  and  C_12
REMARK    9  A    between atoms: C_16  and  C_17
REMARK                            x       y       z     vdW  Elec       q    Type
REMARK                         _______ _______ _______ _____ _____    ______ ____
ROOT
ATOM      1  C   UNL     1      -8.882   5.920 129.818  0.00  0.00    +0.000 C 
ATOM      2  O   UNL     1      -8.451   6.983 130.251  0.00  0.00    +0.000 OA
ATOM      3  N   UNL     1     -10.231   5.740 129.476  0.00  0.00    +0.000 N 
ATOM      4  H   UNL     1     -10.637   4.822 129.590  0.00  0.00    +0.000 HD
ENDROOT
BRANCH   3   5
ATOM      5  C   UNL     1     -11.121   6.857 129.410  0.00  0.00    +0.000 A 
ATOM      6  C   UNL     1     -11.268   7.574 128.199  0.00  0.00    +0.000 A 
ATOM      7  C   UNL     1     -10.582   7.200 126.911  0.00  0.00    +0.000 C 
ATOM      8  C   UNL     1     -12.134   8.682 128.140  0.00  0.00    +0.000 A 
ATOM      9  C   UNL     1     -12.867   9.077 129.250  0.00  0.00    +0.000 A 
ATOM     10  C   UNL     1     -12.749   8.362 130.436  0.00  0.00    +0.000 A 
ATOM     11  C   UNL     1     -11.895   7.241 130.533  0.00  0.00    +0.000 A 
ATOM     12  C   UNL     1     -11.793   6.574 131.877  0.00  0.00    +0.000 C 
ENDBRANCH   3   5
BRANCH   1  13
ATOM     13  C   UNL     1      -7.961   4.687 129.591  0.00  0.00    +0.000 C 
BRANCH  13  14
ATOM     14  N   UNL     1      -8.419   3.848 128.424  0.00  0.00    +0.000 NA
BRANCH  14  16
ATOM     15  C   UNL     1      -8.012   4.655 126.044  0.00  0.00    +0.000 C 
ATOM     16  C   UNL     1      -7.467   3.979 127.304  0.00  0.00    +0.000 C 
ENDBRANCH  14  16
BRANCH  14  17
ATOM     17  C   UNL     1      -8.644   2.448 128.852  0.00  0.00    +0.000 C 
ATOM     18  C   UNL     1      -8.458   1.370 127.787  0.00  0.00    +0.000 C 
ENDBRANCH  14  17
ENDBRANCH  13  14
ENDBRANCH   1  13
TORSDOF 5
ENDMDL
MODEL 5
REMARK VINA RESULT:      -5.6      8.236     10.598
REMARK  Name = Lidocaine
REMARK  9 active torsions:
REMARK  status: ('A' for Active; 'I' for Inactive)
REMARK    1  A    between atoms: C_1  and  C_2
REMARK    2  A    between atoms: C_2  and  N_3
REMARK    3  A    between atoms: N_3  and  C_4
REMARK    4  A    between atoms: N_3  and  C_6
REMARK    5  A    between atoms: C_4  and  C_5
REMARK    6  A    between atoms: C_6  and  C_7
REMARK    7  A    between atoms: N_9  and  C_10
REMARK    8  A    between atoms: C_11  and  C_12
REMARK    9  A    between atoms: C_16  and  C_17
REMARK                            x       y       z     vdW  Elec       q    Type
REMARK                         _______ _______ _______ _____ _____    ______ ____
ROOT
ATOM      1  C   UNL     1      -8.971   5.850 129.907  0.00  0.00    +0.000 C 
ATOM      2  O   UNL     1      -8.509   6.906 130.325  0.00  0.00    +0.000 OA
ATOM      3  N   UNL     1     -10.320   5.710 129.545  0.00  0.00    +0.000 N 
ATOM      4  H   UNL     1     -10.760   4.810 129.670  0.00  0.00    +0.000 HD
ENDROOT
BRANCH   3   5
ATOM      5  C   UNL     1     -11.168   6.856 129.441  0.00  0.00    +0.000 A 
ATOM      6  C   UNL     1     -11.265   7.556 128.214  0.00  0.00    +0.000 A 
ATOM      7  C   UNL     1     -10.567   7.133 126.948  0.00  0.00    +0.000 C 
ATOM      8  C   UNL     1     -12.090   8.691 128.117  0.00  0.00    +0.000 A 
ATOM      9  C   UNL     1     -12.831   9.132 129.204  0.00  0.00    +0.000 A 
ATOM     10  C   UNL     1     -12.761   8.437 130.405  0.00  0.00    +0.000 A 
ATOM     11  C   UNL     1     -11.950   7.289 130.540  0.00  0.00    +0.000 A 
ATOM     12  C   UNL     1     -11.899   6.643 131.897  0.00  0.00    +0.000 C 
ENDBRANCH   3   5
BRANCH   1  13
ATOM     13  C   UNL     1      -8.091   4.581 129.721  0.00  0.00    +0.000 C 
BRANCH  13  14
ATOM     14  N   UNL     1      -8.802   3.329 130.172  0.00  0.00    +0.000 NA
BRANCH  14  16
ATOM     15  C   UNL     1      -8.084   0.963 129.567  0.00  0.00    +0.000 C 
ATOM     16  C   UNL     1      -8.706   2.290 129.129  0.00  0.00    +0.000 C 
ENDBRANCH  14  16
BRANCH  14  17
ATOM     17  C   UNL     1      -8.294   2.894 131.493  0.00  0.00    +0.000 C 
ATOM     18  C   UNL     1      -9.334   2.705 132.596  0.00  0.00    +0.000 C 
ENDBRANCH  14  17
ENDBRANCH  13  14
ENDBRANCH   1  13
TORSDOF 5
ENDMDL
MODEL 6
REMARK VINA RESULT:      -5.6      7.735      9.918
REMARK  Name = Lidocaine
REMARK  9 active torsions:
REMARK  status: ('A' for Active; 'I' for Inactive)
REMARK    1  A    between atoms: C_1  and  C_2
REMARK    2  A    between atoms: C_2  and  N_3
REMARK    3  A    between atoms: N_3  and  C_4
REMARK    4  A    between atoms: N_3  and  C_6
REMARK    5  A    between atoms: C_4  and  C_5
REMARK    6  A    between atoms: C_6  and  C_7
REMARK    7  A    between atoms: N_9  and  C_10
REMARK    8  A    between atoms: C_11  and  C_12
REMARK    9  A    between atoms: C_16  and  C_17
REMARK                            x       y       z     vdW  Elec       q    Type
REMARK                         _______ _______ _______ _____ _____    ______ ____
ROOT
ATOM      1  C   UNL     1      -8.901   5.831 129.795  0.00  0.00    +0.000 C 
ATOM      2  O   UNL     1      -8.452   6.888 130.224  0.00  0.00    +0.000 OA
ATOM      3  N   UNL     1     -10.254   5.671 129.457  0.00  0.00    +0.000 N 
ATOM      4  H   UNL     1     -10.674   4.760 129.574  0.00  0.00    +0.000 HD
ENDROOT
BRANCH   3   5
ATOM      5  C   UNL     1     -11.126   6.802 129.389  0.00  0.00    +0.000 A 
ATOM      6  C   UNL     1     -11.853   7.204 130.535  0.00  0.00    +0.000 A 
ATOM      7  C   UNL     1     -11.726   6.547 131.885  0.00  0.00    +0.000 C 
ATOM      8  C   UNL     1     -12.720   8.309 130.464  0.00  0.00    +0.000 A 
ATOM      9  C   UNL     1     -12.865   9.030 129.288  0.00  0.00    +0.000 A 
ATOM     10  C   UNL     1     -12.136   8.658 128.165  0.00  0.00    +0.000 A 
ATOM     11  C   UNL     1     -11.250   7.559 128.198  0.00  0.00    +0.000 A 
ATOM     12  C   UNL     1     -10.554   7.202 126.914  0.00  0.00    +0.000 C 
ENDBRANCH   3   5
BRANCH   1  13
ATOM     13  C   UNL     1      -8.001   4.582 129.570  0.00  0.00    +0.000 C 
BRANCH  13  14
ATOM     14  N   UNL     1      -8.449   3.769 128.381  0.00  0.00    +0.000 NA
BRANCH  14  16
ATOM     15  C   UNL     1      -7.951   4.595 126.025  0.00  0.00    +0.000 C 
ATOM     16  C   UNL     1      -7.463   3.886 127.290  0.00  0.00    +0.000 C 
ENDBRANCH  14  16
BRANCH  14  17
ATOM     17  C   UNL     1      -8.725   2.372 128.786  0.00  0.00    +0.000 C 
ATOM     18  C   UNL     1      -8.465   2.021 130.250  0.00  0.00    +0.000 C 
ENDBRANCH  14  17
ENDBRANCH  13  14
ENDBRANCH   1  13
TORSDOF 5
ENDMDL
MODEL 7
REMARK VINA RESULT:      -5.5      4.406      6.877
REMARK  Name = Lidocaine
REMARK  9 active torsions:
REMARK  status: ('A' for Active; 'I' for Inactive)
REMARK    1  A    between atoms: C_1  and  C_2
REMARK    2  A    between atoms: C_2  and  N_3
REMARK    3  A    between atoms: N_3  and  C_4
REMARK    4  A    between atoms: N_3  and  C_6
REMARK    5  A    between atoms: C_4  and  C_5
REMARK    6  A    between atoms: C_6  and  C_7
REMARK    7  A    between atoms: N_9  and  C_10
REMARK    8  A    between atoms: C_11  and  C_12
REMARK    9  A    between atoms: C_16  and  C_17
REMARK                            x       y       z     vdW  Elec       q    Type
REMARK                         _______ _______ _______ _____ _____    ______ ____
ROOT
ATOM      1  C   UNL     1      -5.589  -1.484 126.919  0.00  0.00    +0.000 C 
ATOM      2  O   UNL     1      -5.556  -0.471 127.608  0.00  0.00    +0.000 OA
ATOM      3  N   UNL     1      -5.643  -2.771 127.477  0.00  0.00    +0.000 N 
ATOM      4  H   UNL     1      -5.206  -3.531 126.976  0.00  0.00    +0.000 HD
ENDROOT
BRANCH   3   5
ATOM      5  C   UNL     1      -5.884  -2.948 128.875  0.00  0.00    +0.000 A 
ATOM      6  C   UNL     1      -7.211  -3.061 129.356  0.00  0.00    +0.000 A 
ATOM      7  C   UNL     1      -8.429  -3.072 128.469  0.00  0.00    +0.000 C 
ATOM      8  C   UNL     1      -7.447  -3.222 130.733  0.00  0.00    +0.000 A 
ATOM      9  C   UNL     1      -6.396  -3.292 131.636  0.00  0.00    +0.000 A 
ATOM     10  C   UNL     1      -5.089  -3.208 131.170  0.00  0.00    +0.000 A 
ATOM     11  C   UNL     1      -4.811  -3.053 129.795  0.00  0.00    +0.000 A 
ATOM     12  C   UNL     1      -3.367  -2.912 129.400  0.00  0.00    +0.000 C 
ENDBRANCH   3   5
BRANCH   1  13
ATOM     13  C   UNL     1      -5.595  -1.426 125.365  0.00  0.00    +0.000 C 
BRANCH  13  14
ATOM     14  N   UNL     1      -5.855  -2.778 124.750  0.00  0.00    +0.000 NA
BRANCH  14  16
ATOM     15  C   UNL     1      -8.159  -3.859 124.821  0.00  0.00    +0.000 C 
ATOM     16  C   UNL     1      -7.221  -2.825 124.194  0.00  0.00    +0.000 C 
ENDBRANCH  14  16
BRANCH  14  17
ATOM     17  C   UNL     1      -4.801  -3.108 123.764  0.00  0.00    +0.000 C 
ATOM     18  C   UNL     1      -4.418  -4.582 123.641  0.00  0.00    +0.000 C 
ENDBRANCH  14  17
ENDBRANCH  13  14
ENDBRANCH   1  13
TORSDOF 5
ENDMDL
MODEL 8
REMARK VINA RESULT:      -5.5      2.014      2.983
REMARK  Name = Lidocaine
REMARK  9 active torsions:
REMARK  status: ('A' for Active; 'I' for Inactive)
REMARK    1  A    between atoms: C_1  and  C_2
REMARK    2  A    between atoms: C_2  and  N_3
REMARK    3  A    between atoms: N_3  and  C_4
REMARK    4  A    between atoms: N_3  and  C_6
REMARK    5  A    between atoms: C_4  and  C_5
REMARK    6  A    between atoms: C_6  and  C_7
REMARK    7  A    between atoms: N_9  and  C_10
REMARK    8  A    between atoms: C_11  and  C_12
REMARK    9  A    between atoms: C_16  and  C_17
REMARK                            x       y       z     vdW  Elec       q    Type
REMARK                         _______ _______ _______ _____ _____    ______ ____
ROOT
ATOM      1  C   UNL     1      -7.818   0.482 123.661  0.00  0.00    +0.000 C 
ATOM      2  O   UNL     1      -6.741  -0.099 123.579  0.00  0.00    +0.000 OA
ATOM      3  N   UNL     1      -8.895  -0.034 124.398  0.00  0.00    +0.000 N 
ATOM      4  H   UNL     1      -9.833   0.169 124.082  0.00  0.00    +0.000 HD
ENDROOT
BRANCH   3   5
ATOM      5  C   UNL     1      -8.713  -1.154 125.267  0.00  0.00    +0.000 A 
ATOM      6  C   UNL     1      -8.938  -2.466 124.787  0.00  0.00    +0.000 A 
ATOM      7  C   UNL     1      -9.307  -2.789 123.363  0.00  0.00    +0.000 C 
ATOM      8  C   UNL     1      -8.772  -3.566 125.648  0.00  0.00    +0.000 A 
ATOM      9  C   UNL     1      -8.369  -3.391 126.964  0.00  0.00    +0.000 A 
ATOM     10  C   UNL     1      -8.121  -2.108 127.436  0.00  0.00    +0.000 A 
ATOM     11  C   UNL     1      -8.271  -0.979 126.602  0.00  0.00    +0.000 A 
ATOM     12  C   UNL     1      -8.036   0.369 127.225  0.00  0.00    +0.000 C 
ENDBRANCH   3   5
BRANCH   1  13
ATOM     13  C   UNL     1      -8.070   1.852 122.971  0.00  0.00    +0.000 C 
BRANCH  13  14
ATOM     14  N   UNL     1      -6.828   2.707 122.941  0.00  0.00    +0.000 NA
BRANCH  14  16
ATOM     15  C   UNL     1      -5.418   3.413 120.942  0.00  0.00    +0.000 C 
ATOM     16  C   UNL     1      -6.762   3.458 121.672  0.00  0.00    +0.000 C 
ENDBRANCH  14  16
BRANCH  14  17
ATOM     17  C   UNL     1      -6.765   3.568 124.144  0.00  0.00    +0.000 C 
ATOM     18  C   UNL     1      -5.432   3.603 124.889  0.00  0.00    +0.000 C 
ENDBRANCH  14  17
ENDBRANCH  13  14
ENDBRANCH   1  13
TORSDOF 5
ENDMDL
MODEL 9
REMARK VINA RESULT:      -5.5      7.831      8.737
REMARK  Name = Lidocaine
REMARK  9 active torsions:
REMARK  status: ('A' for Active; 'I' for Inactive)
REMARK    1  A    between atoms: C_1  and  C_2
REMARK    2  A    between atoms: C_2  and  N_3
REMARK    3  A    between atoms: N_3  and  C_4
REMARK    4  A    between atoms: N_3  and  C_6
REMARK    5  A    between atoms: C_4  and  C_5
REMARK    6  A    between atoms: C_6  and  C_7
REMARK    7  A    between atoms: N_9  and  C_10
REMARK    8  A    between atoms: C_11  and  C_12
REMARK    9  A    between atoms: C_16  and  C_17
REMARK                            x       y       z     vdW  Elec       q    Type
REMARK                         _______ _______ _______ _____ _____    ______ ____
ROOT
ATOM      1  C   UNL     1     -10.479   4.658 130.214  0.00  0.00    +0.000 C 
ATOM      2  O   UNL     1     -11.414   3.867 130.159  0.00  0.00    +0.000 OA
ATOM      3  N   UNL     1      -9.190   4.271 130.615  0.00  0.00    +0.000 N 
ATOM      4  H   UNL     1      -8.613   4.948 131.094  0.00  0.00    +0.000 HD
ENDROOT
BRANCH   3   5
ATOM      5  C   UNL     1      -8.859   2.889 130.766  0.00  0.00    +0.000 A 
ATOM      6  C   UNL     1      -8.933   2.278 132.041  0.00  0.00    +0.000 A 
ATOM      7  C   UNL     1      -9.411   2.982 133.284  0.00  0.00    +0.000 C 
ATOM      8  C   UNL     1      -8.594   0.921 132.190  0.00  0.00    +0.000 A 
ATOM      9  C   UNL     1      -8.203   0.157 131.099  0.00  0.00    +0.000 A 
ATOM     10  C   UNL     1      -8.152   0.742 129.839  0.00  0.00    +0.000 A 
ATOM     11  C   UNL     1      -8.491   2.099 129.648  0.00  0.00    +0.000 A 
ATOM     12  C   UNL     1      -8.346   2.651 128.257  0.00  0.00    +0.000 C 
ENDBRANCH   3   5
BRANCH   1  13
ATOM     13  C   UNL     1     -10.640   6.155 129.823  0.00  0.00    +0.000 C 
BRANCH  13  14
ATOM     14  N   UNL     1     -11.772   6.365 128.849  0.00  0.00    +0.000 NA
BRANCH  14  16
ATOM     15  C   UNL     1     -12.725   7.471 130.935  0.00  0.00    +0.000 C 
ATOM     16  C   UNL     1     -12.973   6.836 129.566  0.00  0.00    +0.000 C 
ENDBRANCH  14  16
BRANCH  14  17
ATOM     17  C   UNL     1     -11.347   7.260 127.749  0.00  0.00    +0.000 C 
ATOM     18  C   UNL     1     -10.505   8.473 128.142  0.00  0.00    +0.000 C 
ENDBRANCH  14  17
ENDBRANCH  13  14
ENDBRANCH   1  13
TORSDOF 5
ENDMDL
