MODEL 1
REMARK VINA RESULT:      -9.5      0.000      0.000
REMARK  Name = Linagliptin
REMARK  8 active torsions:
REMARK  status: ('A' for Active; 'I' for Inactive)
REMARK    1  A    between atoms: C_1  and  C_2
REMARK    2  A    between atoms: C_3  and  C_4
REMARK    3  A    between atoms: C_4  and  N_5
REMARK    4  A    between atoms: N_12  and  C_13
REMARK    5  A    between atoms: C_13  and  C_14
REMARK    6  A    between atoms: C_22  and  C_23
REMARK    7  A    between atoms: N_27  and  C_28
REMARK    8  A    between atoms: C_33  and  N_34
REMARK                            x       y       z     vdW  Elec       q    Type
REMARK                         _______ _______ _______ _____ _____    ______ ____
ROOT
ATOM      1  N   UNL     1      -7.797  -0.405 128.568  0.00  0.00    +0.000 N 
ATOM      2  C   UNL     1      -7.265  -0.802 127.234  0.00  0.00    +0.000 A 
ATOM      3  N   UNL     1      -6.890   0.303 126.597  0.00  0.00    +0.000 NA
ATOM      4  C   UNL     1      -7.146   1.394 127.377  0.00  0.00    +0.000 A 
ATOM      5  C   UNL     1      -7.681   1.066 128.602  0.00  0.00    +0.000 A 
ATOM      6  C   UNL     1      -7.963   2.182 129.552  0.00  0.00    +0.000 A 
ATOM      7  O   UNL     1      -8.449   1.993 130.667  0.00  0.00    +0.000 OA
ATOM      8  N   UNL     1      -7.631   3.522 129.101  0.00  0.00    +0.000 N 
ATOM      9  C   UNL     1      -7.035   3.762 127.870  0.00  0.00    +0.000 A 
ATOM     10  O   UNL     1      -6.612   4.862 127.534  0.00  0.00    +0.000 OA
ATOM     11  N   UNL     1      -6.866   2.703 126.995  0.00  0.00    +0.000 N 
ATOM     12  C   UNL     1      -6.299   3.050 125.696  0.00  0.00    +0.000 C 
ATOM     13  N   UNL     1      -7.054  -2.073 126.653  0.00  0.00    +0.000 N 
ATOM     14  C   UNL     1      -8.099  -3.061 126.330  0.00  0.00    +0.000 C 
ATOM     15  C   UNL     1      -8.144  -3.503 124.839  0.00  0.00    +0.000 C 
ATOM     16  C   UNL     1      -6.797  -4.004 124.328  0.00  0.00    +0.000 C 
ATOM     17  C   UNL     1      -5.756  -2.900 124.521  0.00  0.00    +0.000 C 
ATOM     18  C   UNL     1      -5.722  -2.431 126.028  0.00  0.00    +0.000 C 
ENDROOT
BRANCH  17  19
ATOM     19  N   UNL     1      -6.025  -1.782 123.605  0.00  0.00    +0.000 NA
ATOM     20  H   UNL     1      -6.424  -2.170 122.749  0.00  0.00    +0.000 HD
ATOM     21  H   UNL     1      -5.165  -1.302 123.347  0.00  0.00    +0.000 HD
ENDBRANCH  17  19
BRANCH   1  22
ATOM     22  C   UNL     1      -8.283  -1.366 129.767  0.00  0.00    +0.000 C 
BRANCH  22  25
ATOM     23  C   UNL     1      -5.319  -4.476 130.412  0.00  0.00    +0.000 C 
ATOM     24  C   UNL     1      -6.356  -3.388 130.187  0.00  0.00    +0.000 C 
ATOM     25  C   UNL     1      -7.246  -2.454 129.993  0.00  0.00    +0.000 C 
ENDBRANCH  22  25
ENDBRANCH   1  22
BRANCH   8  26
ATOM     26  C   UNL     1      -7.850   4.763 130.007  0.00  0.00    +0.000 C 
BRANCH  26  27
ATOM     27  C   UNL     1      -9.049   5.786 129.704  0.00  0.00    +0.000 A 
ATOM     28  N   UNL     1      -9.414   6.309 128.464  0.00  0.00    +0.000 NA
ATOM     29  C   UNL     1     -10.690   7.035 128.416  0.00  0.00    +0.000 A 
ATOM     30  C   UNL     1     -11.596   6.645 129.292  0.00  0.00    +0.000 A 
ATOM     31  C   UNL     1     -12.983   6.866 129.028  0.00  0.00    +0.000 A 
ATOM     32  C   UNL     1     -13.227   8.109 129.429  0.00  0.00    +0.000 A 
ATOM     33  C   UNL     1     -12.695   8.798 128.394  0.00  0.00    +0.000 A 
ATOM     34  C   UNL     1     -11.424   8.150 127.734  0.00  0.00    +0.000 A 
ATOM     35  C   UNL     1     -11.038   6.491 130.570  0.00  0.00    +0.000 A 
ATOM     36  C   UNL     1     -11.912   6.704 131.757  0.00  0.00    +0.000 C 
ATOM     37  N   UNL     1      -9.748   6.126 130.791  0.00  0.00    +0.000 NA
ENDBRANCH  26  27
ENDBRANCH   8  26
TORSDOF 5
ENDMDL
MODEL 2
REMARK VINA RESULT:      -9.4      3.392      7.255
REMARK  Name = Linagliptin
REMARK  8 active torsions:
REMARK  status: ('A' for Active; 'I' for Inactive)
REMARK    1  A    between atoms: C_1  and  C_2
REMARK    2  A    between atoms: C_3  and  C_4
REMARK    3  A    between atoms: C_4  and  N_5
REMARK    4  A    between atoms: N_12  and  C_13
REMARK    5  A    between atoms: C_13  and  C_14
REMARK    6  A    between atoms: C_22  and  C_23
REMARK    7  A    between atoms: N_27  and  C_28
REMARK    8  A    between atoms: C_33  and  N_34
REMARK                            x       y       z     vdW  Elec       q    Type
REMARK                         _______ _______ _______ _____ _____    ______ ____
ROOT
ATOM      1  N   UNL     1      -7.338   0.473 129.104  0.00  0.00    +0.000 N 
ATOM      2  C   UNL     1      -6.950  -0.928 129.426  0.00  0.00    +0.000 A 
ATOM      3  N   UNL     1      -7.188  -1.676 128.353  0.00  0.00    +0.000 NA
ATOM      4  C   UNL     1      -7.720  -0.903 127.360  0.00  0.00    +0.000 A 
ATOM      5  C   UNL     1      -7.834   0.422 127.715  0.00  0.00    +0.000 A 
ATOM      6  C   UNL     1      -8.367   1.365 126.688  0.00  0.00    +0.000 A 
ATOM      7  O   UNL     1      -8.514   2.568 126.910  0.00  0.00    +0.000 OA
ATOM      8  N   UNL     1      -8.706   0.799 125.395  0.00  0.00    +0.000 N 
ATOM      9  C   UNL     1      -8.503  -0.542 125.098  0.00  0.00    +0.000 A 
ATOM     10  O   UNL     1      -8.641  -1.007 123.973  0.00  0.00    +0.000 OA
ATOM     11  N   UNL     1      -8.080  -1.390 126.107  0.00  0.00    +0.000 N 
ATOM     12  C   UNL     1      -7.960  -2.796 125.733  0.00  0.00    +0.000 C 
ATOM     13  N   UNL     1      -6.347  -1.491 130.573  0.00  0.00    +0.000 N 
ATOM     14  C   UNL     1      -6.932  -1.534 131.925  0.00  0.00    +0.000 C 
ATOM     15  C   UNL     1      -7.070  -2.959 132.535  0.00  0.00    +0.000 C 
ATOM     16  C   UNL     1      -5.757  -3.736 132.526  0.00  0.00    +0.000 C 
ATOM     17  C   UNL     1      -5.247  -3.824 131.087  0.00  0.00    +0.000 C 
ATOM     18  C   UNL     1      -5.128  -2.382 130.455  0.00  0.00    +0.000 C 
ENDROOT
BRANCH  17  19
ATOM     19  N   UNL     1      -6.118  -4.701 130.291  0.00  0.00    +0.000 NA
ATOM     20  H   UNL     1      -5.798  -4.661 129.321  0.00  0.00    +0.000 HD
ATOM     21  H   UNL     1      -7.082  -4.374 130.305  0.00  0.00    +0.000 HD
ENDBRANCH  17  19
BRANCH   1  22
ATOM     22  C   UNL     1      -7.152   1.787 130.018  0.00  0.00    +0.000 C 
BRANCH  22  25
ATOM     23  C   UNL     1     -10.989   3.767 130.498  0.00  0.00    +0.000 C 
ATOM     24  C   UNL     1      -9.646   3.074 130.330  0.00  0.00    +0.000 C 
ATOM     25  C   UNL     1      -8.494   2.480 130.186  0.00  0.00    +0.000 C 
ENDBRANCH  22  25
ENDBRANCH   1  22
BRANCH   8  26
ATOM     26  C   UNL     1      -9.243   1.681 124.235  0.00  0.00    +0.000 C 
BRANCH  26  27
ATOM     27  C   UNL     1      -8.240   2.609 123.392  0.00  0.00    +0.000 A 
ATOM     28  N   UNL     1      -6.884   2.817 123.636  0.00  0.00    +0.000 NA
ATOM     29  C   UNL     1      -6.135   3.520 122.585  0.00  0.00    +0.000 A 
ATOM     30  C   UNL     1      -6.598   3.360 121.360  0.00  0.00    +0.000 A 
ATOM     31  C   UNL     1      -5.721   3.522 120.242  0.00  0.00    +0.000 A 
ATOM     32  C   UNL     1      -5.699   4.826 119.993  0.00  0.00    +0.000 A 
ATOM     33  C   UNL     1      -4.872   5.240 120.981  0.00  0.00    +0.000 A 
ATOM     34  C   UNL     1      -4.981   4.441 122.330  0.00  0.00    +0.000 A 
ATOM     35  C   UNL     1      -7.991   3.518 121.315  0.00  0.00    +0.000 A 
ATOM     36  C   UNL     1      -8.609   4.018 120.056  0.00  0.00    +0.000 C 
ATOM     37  N   UNL     1      -8.818   3.207 122.347  0.00  0.00    +0.000 NA
ENDBRANCH  26  27
ENDBRANCH   8  26
TORSDOF 5
ENDMDL
MODEL 3
REMARK VINA RESULT:      -9.4      4.473      7.120
REMARK  Name = Linagliptin
REMARK  8 active torsions:
REMARK  status: ('A' for Active; 'I' for Inactive)
REMARK    1  A    between atoms: C_1  and  C_2
REMARK    2  A    between atoms: C_3  and  C_4
REMARK    3  A    between atoms: C_4  and  N_5
REMARK    4  A    between atoms: N_12  and  C_13
REMARK    5  A    between atoms: C_13  and  C_14
REMARK    6  A    between atoms: C_22  and  C_23
REMARK    7  A    between atoms: N_27  and  C_28
REMARK    8  A    between atoms: C_33  and  N_34
REMARK                            x       y       z     vdW  Elec       q    Type
REMARK                         _______ _______ _______ _____ _____    ______ ____
ROOT
ATOM      1  N   UNL     1      -6.043   0.513 129.093  0.00  0.00    +0.000 N 
ATOM      2  C   UNL     1      -5.960  -0.935 129.432  0.00  0.00    +0.000 A 
ATOM      3  N   UNL     1      -6.728  -1.602 128.576  0.00  0.00    +0.000 NA
ATOM      4  C   UNL     1      -7.329  -0.727 127.718  0.00  0.00    +0.000 A 
ATOM      5  C   UNL     1      -6.962   0.582 127.939  0.00  0.00    +0.000 A 
ATOM      6  C   UNL     1      -7.530   1.619 127.030  0.00  0.00    +0.000 A 
ATOM      7  O   UNL     1      -7.269   2.817 127.151  0.00  0.00    +0.000 OA
ATOM      8  N   UNL     1      -8.413   1.151 125.977  0.00  0.00    +0.000 N 
ATOM      9  C   UNL     1      -8.684  -0.197 125.783  0.00  0.00    +0.000 A 
ATOM     10  O   UNL     1      -9.303  -0.622 124.815  0.00  0.00    +0.000 OA
ATOM     11  N   UNL     1      -8.196  -1.112 126.700  0.00  0.00    +0.000 N 
ATOM     12  C   UNL     1      -8.586  -2.499 126.466  0.00  0.00    +0.000 C 
ATOM     13  N   UNL     1      -5.187  -1.626 130.393  0.00  0.00    +0.000 N 
ATOM     14  C   UNL     1      -5.285  -1.473 131.855  0.00  0.00    +0.000 C 
ATOM     15  C   UNL     1      -5.590  -2.787 132.632  0.00  0.00    +0.000 C 
ATOM     16  C   UNL     1      -4.612  -3.910 132.305  0.00  0.00    +0.000 C 
ATOM     17  C   UNL     1      -4.645  -4.168 130.797  0.00  0.00    +0.000 C 
ATOM     18  C   UNL     1      -4.359  -2.834 130.003  0.00  0.00    +0.000 C 
ENDROOT
BRANCH  17  19
ATOM     19  N   UNL     1      -5.929  -4.770 130.413  0.00  0.00    +0.000 NA
ATOM     20  H   UNL     1      -6.655  -4.362 131.006  0.00  0.00    +0.000 HD
ATOM     21  H   UNL     1      -5.931  -5.775 130.580  0.00  0.00    +0.000 HD
ENDBRANCH  17  19
BRANCH   1  22
ATOM     22  C   UNL     1      -5.223   1.734 129.752  0.00  0.00    +0.000 C 
BRANCH  22  25
ATOM     23  C   UNL     1      -2.277   3.191 126.911  0.00  0.00    +0.000 C 
ATOM     24  C   UNL     1      -3.308   2.681 127.905  0.00  0.00    +0.000 C 
ATOM     25  C   UNL     1      -4.192   2.244 128.758  0.00  0.00    +0.000 C 
ENDBRANCH  22  25
ENDBRANCH   1  22
BRANCH   8  26
ATOM     26  C   UNL     1      -9.044   2.129 124.949  0.00  0.00    +0.000 C 
BRANCH  26  27
ATOM     27  C   UNL     1      -8.118   2.898 123.887  0.00  0.00    +0.000 A 
ATOM     28  N   UNL     1      -6.743   3.113 123.973  0.00  0.00    +0.000 NA
ATOM     29  C   UNL     1      -6.090   3.633 122.764  0.00  0.00    +0.000 A 
ATOM     30  C   UNL     1      -6.665   3.301 121.625  0.00  0.00    +0.000 A 
ATOM     31  C   UNL     1      -5.894   3.274 120.421  0.00  0.00    +0.000 A 
ATOM     32  C   UNL     1      -5.887   4.525 119.976  0.00  0.00    +0.000 A 
ATOM     33  C   UNL     1      -4.970   5.066 120.809  0.00  0.00    +0.000 A 
ATOM     34  C   UNL     1      -4.959   4.482 122.269  0.00  0.00    +0.000 A 
ATOM     35  C   UNL     1      -8.055   3.478 121.683  0.00  0.00    +0.000 A 
ATOM     36  C   UNL     1      -8.783   3.795 120.423  0.00  0.00    +0.000 C 
ATOM     37  N   UNL     1      -8.786   3.344 122.820  0.00  0.00    +0.000 NA
ENDBRANCH  26  27
ENDBRANCH   8  26
TORSDOF 5
ENDMDL
MODEL 4
REMARK VINA RESULT:      -9.0      1.778      3.881
REMARK  Name = Linagliptin
REMARK  8 active torsions:
REMARK  status: ('A' for Active; 'I' for Inactive)
REMARK    1  A    between atoms: C_1  and  C_2
REMARK    2  A    between atoms: C_3  and  C_4
REMARK    3  A    between atoms: C_4  and  N_5
REMARK    4  A    between atoms: N_12  and  C_13
REMARK    5  A    between atoms: C_13  and  C_14
REMARK    6  A    between atoms: C_22  and  C_23
REMARK    7  A    between atoms: N_27  and  C_28
REMARK    8  A    between atoms: C_33  and  N_34
REMARK                            x       y       z     vdW  Elec       q    Type
REMARK                         _______ _______ _______ _____ _____    ______ ____
ROOT
ATOM      1  N   UNL     1      -8.280   1.652 125.739  0.00  0.00    +0.000 N 
ATOM      2  C   UNL     1      -8.277   0.192 126.033  0.00  0.00    +0.000 A 
ATOM      3  N   UNL     1      -8.073   0.036 127.337  0.00  0.00    +0.000 NA
ATOM      4  C   UNL     1      -7.917   1.257 127.928  0.00  0.00    +0.000 A 
ATOM      5  C   UNL     1      -8.044   2.303 127.042  0.00  0.00    +0.000 A 
ATOM      6  C   UNL     1      -7.931   3.687 127.590  0.00  0.00    +0.000 A 
ATOM      7  O   UNL     1      -8.023   4.688 126.879  0.00  0.00    +0.000 OA
ATOM      8  N   UNL     1      -7.712   3.806 129.021  0.00  0.00    +0.000 N 
ATOM      9  C   UNL     1      -7.656   2.699 129.856  0.00  0.00    +0.000 A 
ATOM     10  O   UNL     1      -7.621   2.783 131.078  0.00  0.00    +0.000 OA
ATOM     11  N   UNL     1      -7.688   1.436 129.290  0.00  0.00    +0.000 N 
ATOM     12  C   UNL     1      -7.552   0.327 130.228  0.00  0.00    +0.000 C 
ATOM     13  N   UNL     1      -8.521  -0.928 125.206  0.00  0.00    +0.000 N 
ATOM     14  C   UNL     1      -7.707  -1.342 124.049  0.00  0.00    +0.000 C 
ATOM     15  C   UNL     1      -7.144  -2.791 124.129  0.00  0.00    +0.000 C 
ATOM     16  C   UNL     1      -8.226  -3.834 124.388  0.00  0.00    +0.000 C 
ATOM     17  C   UNL     1      -8.954  -3.478 125.685  0.00  0.00    +0.000 C 
ATOM     18  C   UNL     1      -9.508  -2.000 125.618  0.00  0.00    +0.000 C 
ENDROOT
BRANCH  17  19
ATOM     19  N   UNL     1      -8.065  -3.678 126.838  0.00  0.00    +0.000 NA
ATOM     20  H   UNL     1      -7.770  -4.657 126.837  0.00  0.00    +0.000 HD
ATOM     21  H   UNL     1      -8.555  -3.511 127.715  0.00  0.00    +0.000 HD
ENDBRANCH  17  19
BRANCH   1  22
ATOM     22  C   UNL     1      -8.591   2.379 124.335  0.00  0.00    +0.000 C 
BRANCH  22  25
ATOM     23  C   UNL     1      -5.020   4.430 122.951  0.00  0.00    +0.000 C 
ATOM     24  C   UNL     1      -6.270   3.713 123.435  0.00  0.00    +0.000 C 
ATOM     25  C   UNL     1      -7.341   3.097 123.851  0.00  0.00    +0.000 C 
ENDBRANCH  22  25
ENDBRANCH   1  22
BRANCH   8  26
ATOM     26  C   UNL     1      -7.606   5.191 129.715  0.00  0.00    +0.000 C 
BRANCH  26  27
ATOM     27  C   UNL     1      -8.892   6.145 129.820  0.00  0.00    +0.000 A 
ATOM     28  N   UNL     1      -9.514   6.834 128.780  0.00  0.00    +0.000 NA
ATOM     29  C   UNL     1     -10.812   7.448 129.091  0.00  0.00    +0.000 A 
ATOM     30  C   UNL     1     -11.511   6.843 130.031  0.00  0.00    +0.000 A 
ATOM     31  C   UNL     1     -12.933   6.988 130.063  0.00  0.00    +0.000 A 
ATOM     32  C   UNL     1     -13.160   8.121 130.717  0.00  0.00    +0.000 A 
ATOM     33  C   UNL     1     -12.872   9.015 129.745  0.00  0.00    +0.000 A 
ATOM     34  C   UNL     1     -11.718   8.595 128.763  0.00  0.00    +0.000 A 
ATOM     35  C   UNL     1     -10.713   6.526 131.140  0.00  0.00    +0.000 A 
ATOM     36  C   UNL     1     -11.355   6.463 132.482  0.00  0.00    +0.000 C 
ATOM     37  N   UNL     1      -9.388   6.239 131.057  0.00  0.00    +0.000 NA
ENDBRANCH  26  27
ENDBRANCH   8  26
TORSDOF 5
ENDMDL
MODEL 5
REMARK VINA RESULT:      -9.0      3.223      9.253
REMARK  Name = Linagliptin
REMARK  8 active torsions:
REMARK  status: ('A' for Active; 'I' for Inactive)
REMARK    1  A    between atoms: C_1  and  C_2
REMARK    2  A    between atoms: C_3  and  C_4
REMARK    3  A    between atoms: C_4  and  N_5
REMARK    4  A    between atoms: N_12  and  C_13
REMARK    5  A    between atoms: C_13  and  C_14
REMARK    6  A    between atoms: C_22  and  C_23
REMARK    7  A    between atoms: N_27  and  C_28
REMARK    8  A    between atoms: C_33  and  N_34
REMARK                            x       y       z     vdW  Elec       q    Type
REMARK                         _______ _______ _______ _____ _____    ______ ____
ROOT
ATOM      1  N   UNL     1      -6.595   5.067 130.310  0.00  0.00    +0.000 N 
ATOM      2  C   UNL     1      -5.200   5.528 130.554  0.00  0.00    +0.000 A 
ATOM      3  N   UNL     1      -4.472   5.212 129.487  0.00  0.00    +0.000 NA
ATOM      4  C   UNL     1      -5.251   4.563 128.572  0.00  0.00    +0.000 A 
ATOM      5  C   UNL     1      -6.562   4.443 128.973  0.00  0.00    +0.000 A 
ATOM      6  C   UNL     1      -7.512   3.784 128.029  0.00  0.00    +0.000 A 
ATOM      7  O   UNL     1      -8.703   3.621 128.297  0.00  0.00    +0.000 OA
ATOM      8  N   UNL     1      -6.967   3.341 126.758  0.00  0.00    +0.000 N 
ATOM      9  C   UNL     1      -5.641   3.557 126.405  0.00  0.00    +0.000 A 
ATOM     10  O   UNL     1      -5.200   3.327 125.286  0.00  0.00    +0.000 OA
ATOM     11  N   UNL     1      -4.783   4.101 127.345  0.00  0.00    +0.000 N 
ATOM     12  C   UNL     1      -3.392   4.229 126.922  0.00  0.00    +0.000 C 
ATOM     13  N   UNL     1      -4.630   6.256 131.623  0.00  0.00    +0.000 N 
ATOM     14  C   UNL     1      -4.534   5.803 133.022  0.00  0.00    +0.000 C 
ATOM     15  C   UNL     1      -3.090   5.770 133.602  0.00  0.00    +0.000 C 
ATOM     16  C   UNL     1      -2.358   7.099 133.447  0.00  0.00    +0.000 C 
ATOM     17  C   UNL     1      -2.324   7.472 131.964  0.00  0.00    +0.000 C 
ATOM     18  C   UNL     1      -3.784   7.485 131.364  0.00  0.00    +0.000 C 
ENDROOT
BRANCH  17  19
ATOM     19  N   UNL     1      -1.438   6.558 131.230  0.00  0.00    +0.000 NA
ATOM     20  H   UNL     1      -1.658   6.642 130.235  0.00  0.00    +0.000 HD
ATOM     21  H   UNL     1      -1.606   5.589 131.495  0.00  0.00    +0.000 HD
ENDBRANCH  17  19
BRANCH   1  22
ATOM     22  C   UNL     1      -7.892   5.298 131.239  0.00  0.00    +0.000 C 
BRANCH  22  25
ATOM     23  C   UNL     1     -10.647   7.986 129.224  0.00  0.00    +0.000 C 
ATOM     24  C   UNL     1      -9.683   7.045 129.929  0.00  0.00    +0.000 C 
ATOM     25  C   UNL     1      -8.856   6.238 130.534  0.00  0.00    +0.000 C 
ENDBRANCH  22  25
ENDBRANCH   1  22
BRANCH   8  26
ATOM     26  C   UNL     1      -7.859   2.669 125.679  0.00  0.00    +0.000 C 
BRANCH  26  27
ATOM     27  C   UNL     1      -7.926   1.069 125.566  0.00  0.00    +0.000 A 
ATOM     28  N   UNL     1      -8.776   0.213 126.265  0.00  0.00    +0.000 NA
ATOM     29  C   UNL     1      -8.808  -1.184 125.811  0.00  0.00    +0.000 A 
ATOM     30  C   UNL     1      -8.545  -1.368 124.532  0.00  0.00    +0.000 A 
ATOM     31  C   UNL     1      -9.039  -2.532 123.865  0.00  0.00    +0.000 A 
ATOM     32  C   UNL     1      -8.153  -3.489 124.116  0.00  0.00    +0.000 A 
ATOM     33  C   UNL     1      -8.499  -3.802 125.385  0.00  0.00    +0.000 A 
ATOM     34  C   UNL     1      -9.007  -2.599 126.262  0.00  0.00    +0.000 A 
ATOM     35  C   UNL     1      -7.424  -0.629 124.128  0.00  0.00    +0.000 A 
ATOM     36  C   UNL     1      -6.595  -1.151 123.007  0.00  0.00    +0.000 C 
ATOM     37  N   UNL     1      -7.065   0.559 124.681  0.00  0.00    +0.000 NA
ENDBRANCH  26  27
ENDBRANCH   8  26
TORSDOF 5
ENDMDL
MODEL 6
REMARK VINA RESULT:      -8.9      5.514      8.889
REMARK  Name = Linagliptin
REMARK  8 active torsions:
REMARK  status: ('A' for Active; 'I' for Inactive)
REMARK    1  A    between atoms: C_1  and  C_2
REMARK    2  A    between atoms: C_3  and  C_4
REMARK    3  A    between atoms: C_4  and  N_5
REMARK    4  A    between atoms: N_12  and  C_13
REMARK    5  A    between atoms: C_13  and  C_14
REMARK    6  A    between atoms: C_22  and  C_23
REMARK    7  A    between atoms: N_27  and  C_28
REMARK    8  A    between atoms: C_33  and  N_34
REMARK                            x       y       z     vdW  Elec       q    Type
REMARK                         _______ _______ _______ _____ _____    ______ ____
ROOT
ATOM      1  N   UNL     1      -3.576   6.936 131.405  0.00  0.00    +0.000 N 
ATOM      2  C   UNL     1      -2.923   7.046 132.740  0.00  0.00    +0.000 A 
ATOM      3  N   UNL     1      -3.750   6.532 133.645  0.00  0.00    +0.000 NA
ATOM      4  C   UNL     1      -4.898   6.114 133.035  0.00  0.00    +0.000 A 
ATOM      5  C   UNL     1      -4.881   6.300 131.671  0.00  0.00    +0.000 A 
ATOM      6  C   UNL     1      -6.072   5.840 130.898  0.00  0.00    +0.000 A 
ATOM      7  O   UNL     1      -6.156   5.969 129.676  0.00  0.00    +0.000 OA
ATOM      8  N   UNL     1      -7.143   5.220 131.658  0.00  0.00    +0.000 N 
ATOM      9  C   UNL     1      -7.055   5.014 133.028  0.00  0.00    +0.000 A 
ATOM     10  O   UNL     1      -7.877   4.362 133.661  0.00  0.00    +0.000 OA
ATOM     11  N   UNL     1      -5.965   5.528 133.710  0.00  0.00    +0.000 N 
ATOM     12  C   UNL     1      -5.983   5.332 135.156  0.00  0.00    +0.000 C 
ATOM     13  N   UNL     1      -1.639   7.502 133.117  0.00  0.00    +0.000 N 
ATOM     14  C   UNL     1      -1.126   8.874 132.953  0.00  0.00    +0.000 C 
ATOM     15  C   UNL     1      -0.650   9.557 134.267  0.00  0.00    +0.000 C 
ATOM     16  C   UNL     1       0.370   8.722 135.033  0.00  0.00    +0.000 C 
ATOM     17  C   UNL     1      -0.243   7.355 135.341  0.00  0.00    +0.000 C 
ATOM     18  C   UNL     1      -0.749   6.667 134.013  0.00  0.00    +0.000 C 
ENDROOT
BRANCH  17  19
ATOM     19  N   UNL     1      -1.319   7.492 136.331  0.00  0.00    +0.000 NA
ATOM     20  H   UNL     1      -1.391   8.481 136.579  0.00  0.00    +0.000 HD
ATOM     21  H   UNL     1      -1.102   6.981 137.185  0.00  0.00    +0.000 HD
ENDBRANCH  17  19
BRANCH   1  22
ATOM     22  C   UNL     1      -2.957   7.312 129.966  0.00  0.00    +0.000 C 
BRANCH  22  25
ATOM     23  C   UNL     1      -2.479   3.692 127.612  0.00  0.00    +0.000 C 
ATOM     24  C   UNL     1      -2.646   4.959 128.436  0.00  0.00    +0.000 C 
ATOM     25  C   UNL     1      -2.789   6.045 129.142  0.00  0.00    +0.000 C 
ENDBRANCH  22  25
ENDBRANCH   1  22
BRANCH   8  26
ATOM     26  C   UNL     1      -8.421   4.675 130.966  0.00  0.00    +0.000 C 
BRANCH  26  27
ATOM     27  C   UNL     1      -9.454   5.682 130.262  0.00  0.00    +0.000 A 
ATOM     28  N   UNL     1      -9.539   5.981 128.903  0.00  0.00    +0.000 NA
ATOM     29  C   UNL     1     -10.719   6.748 128.479  0.00  0.00    +0.000 A 
ATOM     30  C   UNL     1     -11.799   6.574 129.215  0.00  0.00    +0.000 A 
ATOM     31  C   UNL     1     -13.090   6.812 128.650  0.00  0.00    +0.000 A 
ATOM     32  C   UNL     1     -13.297   8.118 128.773  0.00  0.00    +0.000 A 
ATOM     33  C   UNL     1     -12.528   8.574 127.759  0.00  0.00    +0.000 A 
ATOM     34  C   UNL     1     -11.217   7.751 127.484  0.00  0.00    +0.000 A 
ATOM     35  C   UNL     1     -11.500   6.635 130.584  0.00  0.00    +0.000 A 
ATOM     36  C   UNL     1     -12.557   7.108 131.521  0.00  0.00    +0.000 C 
ATOM     37  N   UNL     1     -10.309   6.253 131.114  0.00  0.00    +0.000 NA
ENDBRANCH  26  27
ENDBRANCH   8  26
TORSDOF 5
ENDMDL
MODEL 7
REMARK VINA RESULT:      -8.8      2.542      4.553
REMARK  Name = Linagliptin
REMARK  8 active torsions:
REMARK  status: ('A' for Active; 'I' for Inactive)
REMARK    1  A    between atoms: C_1  and  C_2
REMARK    2  A    between atoms: C_3  and  C_4
REMARK    3  A    between atoms: C_4  and  N_5
REMARK    4  A    between atoms: N_12  and  C_13
REMARK    5  A    between atoms: C_13  and  C_14
REMARK    6  A    between atoms: C_22  and  C_23
REMARK    7  A    between atoms: N_27  and  C_28
REMARK    8  A    between atoms: C_33  and  N_34
REMARK                            x       y       z     vdW  Elec       q    Type
REMARK                         _______ _______ _______ _____ _____    ______ ____
ROOT
ATOM      1  N   UNL     1      -6.150   0.941 128.844  0.00  0.00    +0.000 N 
ATOM      2  C   UNL     1      -6.087  -0.211 129.785  0.00  0.00    +0.000 A 
ATOM      3  N   UNL     1      -6.497   0.210 130.978  0.00  0.00    +0.000 NA
ATOM      4  C   UNL     1      -6.803   1.539 130.918  0.00  0.00    +0.000 A 
ATOM      5  C   UNL     1      -6.642   2.071 129.658  0.00  0.00    +0.000 A 
ATOM      6  C   UNL     1      -6.988   3.510 129.469  0.00  0.00    +0.000 A 
ATOM      7  O   UNL     1      -6.871   4.080 128.384  0.00  0.00    +0.000 OA
ATOM      8  N   UNL     1      -7.481   4.221 130.635  0.00  0.00    +0.000 N 
ATOM      9  C   UNL     1      -7.672   3.593 131.859  0.00  0.00    +0.000 A 
ATOM     10  O   UNL     1      -8.224   4.134 132.809  0.00  0.00    +0.000 OA
ATOM     11  N   UNL     1      -7.264   2.279 132.003  0.00  0.00    +0.000 N 
ATOM     12  C   UNL     1      -7.433   1.715 133.338  0.00  0.00    +0.000 C 
ATOM     13  N   UNL     1      -5.761  -1.571 129.577  0.00  0.00    +0.000 N 
ATOM     14  C   UNL     1      -4.453  -2.089 129.137  0.00  0.00    +0.000 C 
ATOM     15  C   UNL     1      -3.802  -3.124 130.099  0.00  0.00    +0.000 C 
ATOM     16  C   UNL     1      -4.726  -4.292 130.427  0.00  0.00    +0.000 C 
ATOM     17  C   UNL     1      -6.017  -3.743 131.037  0.00  0.00    +0.000 C 
ATOM     18  C   UNL     1      -6.671  -2.674 130.076  0.00  0.00    +0.000 C 
ENDROOT
BRANCH  17  19
ATOM     19  N   UNL     1      -5.752  -3.189 132.373  0.00  0.00    +0.000 NA
ATOM     20  H   UNL     1      -5.560  -2.191 132.263  0.00  0.00    +0.000 HD
ATOM     21  H   UNL     1      -4.926  -3.612 132.791  0.00  0.00    +0.000 HD
ENDBRANCH  17  19
BRANCH   1  22
ATOM     22  C   UNL     1      -5.865   0.943 127.258  0.00  0.00    +0.000 C 
BRANCH  22  25
ATOM     23  C   UNL     1      -2.434   3.469 126.413  0.00  0.00    +0.000 C 
ATOM     24  C   UNL     1      -3.634   2.585 126.709  0.00  0.00    +0.000 C 
ATOM     25  C   UNL     1      -4.664   1.827 126.962  0.00  0.00    +0.000 C 
ENDBRANCH  22  25
ENDBRANCH   1  22
BRANCH   8  26
ATOM     26  C   UNL     1      -7.901   5.714 130.561  0.00  0.00    +0.000 C 
BRANCH  26  27
ATOM     27  C   UNL     1      -9.360   6.120 130.028  0.00  0.00    +0.000 A 
ATOM     28  N   UNL     1     -10.472   6.456 130.798  0.00  0.00    +0.000 NA
ATOM     29  C   UNL     1     -11.619   7.018 130.073  0.00  0.00    +0.000 A 
ATOM     30  C   UNL     1     -11.321   7.677 128.970  0.00  0.00    +0.000 A 
ATOM     31  C   UNL     1     -12.213   8.679 128.477  0.00  0.00    +0.000 A 
ATOM     32  C   UNL     1     -13.123   8.026 127.763  0.00  0.00    +0.000 A 
ATOM     33  C   UNL     1     -13.887   7.524 128.759  0.00  0.00    +0.000 A 
ATOM     34  C   UNL     1     -13.113   7.127 130.069  0.00  0.00    +0.000 A 
ATOM     35  C   UNL     1     -10.400   6.969 128.184  0.00  0.00    +0.000 A 
ATOM     36  C   UNL     1     -10.427   7.163 126.708  0.00  0.00    +0.000 C 
ATOM     37  N   UNL     1      -9.456   6.136 128.696  0.00  0.00    +0.000 NA
ENDBRANCH  26  27
ENDBRANCH   8  26
TORSDOF 5
ENDMDL
MODEL 8
REMARK VINA RESULT:      -8.7      2.994      9.520
REMARK  Name = Linagliptin
REMARK  8 active torsions:
REMARK  status: ('A' for Active; 'I' for Inactive)
REMARK    1  A    between atoms: C_1  and  C_2
REMARK    2  A    between atoms: C_3  and  C_4
REMARK    3  A    between atoms: C_4  and  N_5
REMARK    4  A    between atoms: N_12  and  C_13
REMARK    5  A    between atoms: C_13  and  C_14
REMARK    6  A    between atoms: C_22  and  C_23
REMARK    7  A    between atoms: N_27  and  C_28
REMARK    8  A    between atoms: C_33  and  N_34
REMARK                            x       y       z     vdW  Elec       q    Type
REMARK                         _______ _______ _______ _____ _____    ______ ____
ROOT
ATOM      1  N   UNL     1      -8.932   3.861 132.106  0.00  0.00    +0.000 N 
ATOM      2  C   UNL     1      -9.671   4.580 131.031  0.00  0.00    +0.000 A 
ATOM      3  N   UNL     1      -8.987   4.441 129.899  0.00  0.00    +0.000 NA
ATOM      4  C   UNL     1      -7.853   3.717 130.132  0.00  0.00    +0.000 A 
ATOM      5  C   UNL     1      -7.739   3.303 131.440  0.00  0.00    +0.000 A 
ATOM      6  C   UNL     1      -6.555   2.468 131.797  0.00  0.00    +0.000 A 
ATOM      7  O   UNL     1      -6.358   2.056 132.941  0.00  0.00    +0.000 OA
ATOM      8  N   UNL     1      -5.631   2.153 130.722  0.00  0.00    +0.000 N 
ATOM      9  C   UNL     1      -5.852   2.560 129.413  0.00  0.00    +0.000 A 
ATOM     10  O   UNL     1      -5.167   2.181 128.470  0.00  0.00    +0.000 OA
ATOM     11  N   UNL     1      -6.922   3.396 129.149  0.00  0.00    +0.000 N 
ATOM     12  C   UNL     1      -7.043   3.837 127.762  0.00  0.00    +0.000 C 
ATOM     13  N   UNL     1     -10.916   5.249 131.039  0.00  0.00    +0.000 N 
ATOM     14  C   UNL     1     -11.245   6.454 131.823  0.00  0.00    +0.000 C 
ATOM     15  C   UNL     1     -11.738   7.667 130.982  0.00  0.00    +0.000 C 
ATOM     16  C   UNL     1     -12.910   7.320 130.070  0.00  0.00    +0.000 C 
ATOM     17  C   UNL     1     -12.493   6.173 129.148  0.00  0.00    +0.000 C 
ATOM     18  C   UNL     1     -11.970   4.947 129.994  0.00  0.00    +0.000 C 
ENDROOT
BRANCH  17  19
ATOM     19  N   UNL     1     -11.490   6.638 128.180  0.00  0.00    +0.000 NA
ATOM     20  H   UNL     1     -10.602   6.186 128.409  0.00  0.00    +0.000 HD
ATOM     21  H   UNL     1     -11.345   7.643 128.252  0.00  0.00    +0.000 HD
ENDBRANCH  17  19
BRANCH   1  22
ATOM     22  C   UNL     1      -9.385   3.631 133.635  0.00  0.00    +0.000 C 
BRANCH  22  25
ATOM     23  C   UNL     1      -6.689   5.784 136.275  0.00  0.00    +0.000 C 
ATOM     24  C   UNL     1      -7.632   5.031 135.351  0.00  0.00    +0.000 C 
ATOM     25  C   UNL     1      -8.441   4.384 134.559  0.00  0.00    +0.000 C 
ENDBRANCH  22  25
ENDBRANCH   1  22
BRANCH   8  26
ATOM     26  C   UNL     1      -4.376   1.269 130.960  0.00  0.00    +0.000 C 
BRANCH  26  27
ATOM     27  C   UNL     1      -4.528  -0.316 131.163  0.00  0.00    +0.000 A 
ATOM     28  N   UNL     1      -5.055  -0.973 132.273  0.00  0.00    +0.000 NA
ATOM     29  C   UNL     1      -5.304  -2.413 132.119  0.00  0.00    +0.000 A 
ATOM     30  C   UNL     1      -5.576  -2.810 130.891  0.00  0.00    +0.000 A 
ATOM     31  C   UNL     1      -6.327  -4.008 130.680  0.00  0.00    +0.000 A 
ATOM     32  C   UNL     1      -5.441  -4.996 130.733  0.00  0.00    +0.000 A 
ATOM     33  C   UNL     1      -5.263  -5.082 132.071  0.00  0.00    +0.000 A 
ATOM     34  C   UNL     1      -5.348  -3.720 132.851  0.00  0.00    +0.000 A 
ATOM     35  C   UNL     1      -4.686  -2.249 129.963  0.00  0.00    +0.000 A 
ATOM     36  C   UNL     1      -4.385  -3.009 128.718  0.00  0.00    +0.000 C 
ATOM     37  N   UNL     1      -4.104  -1.031 130.117  0.00  0.00    +0.000 NA
ENDBRANCH  26  27
ENDBRANCH   8  26
TORSDOF 5
ENDMDL
MODEL 9
REMARK VINA RESULT:      -8.5      3.372      6.320
REMARK  Name = Linagliptin
REMARK  8 active torsions:
REMARK  status: ('A' for Active; 'I' for Inactive)
REMARK    1  A    between atoms: C_1  and  C_2
REMARK    2  A    between atoms: C_3  and  C_4
REMARK    3  A    between atoms: C_4  and  N_5
REMARK    4  A    between atoms: N_12  and  C_13
REMARK    5  A    between atoms: C_13  and  C_14
REMARK    6  A    between atoms: C_22  and  C_23
REMARK    7  A    between atoms: N_27  and  C_28
REMARK    8  A    between atoms: C_33  and  N_34
REMARK                            x       y       z     vdW  Elec       q    Type
REMARK                         _______ _______ _______ _____ _____    ______ ____
ROOT
ATOM      1  N   UNL     1      -8.177   2.233 125.730  0.00  0.00    +0.000 N 
ATOM      2  C   UNL     1      -8.025   0.752 125.785  0.00  0.00    +0.000 A 
ATOM      3  N   UNL     1      -7.654   0.424 127.019  0.00  0.00    +0.000 NA
ATOM      4  C   UNL     1      -7.524   1.552 127.777  0.00  0.00    +0.000 A 
ATOM      5  C   UNL     1      -7.838   2.702 127.088  0.00  0.00    +0.000 A 
ATOM      6  C   UNL     1      -7.769   3.992 127.834  0.00  0.00    +0.000 A 
ATOM      7  O   UNL     1      -8.023   5.075 127.306  0.00  0.00    +0.000 OA
ATOM      8  N   UNL     1      -7.389   3.916 129.234  0.00  0.00    +0.000 N 
ATOM      9  C   UNL     1      -7.148   2.707 129.871  0.00  0.00    +0.000 A 
ATOM     10  O   UNL     1      -6.973   2.611 131.080  0.00  0.00    +0.000 OA
ATOM     11  N   UNL     1      -7.149   1.546 129.117  0.00  0.00    +0.000 N 
ATOM     12  C   UNL     1      -6.815   0.327 129.847  0.00  0.00    +0.000 C 
ATOM     13  N   UNL     1      -8.278  -0.249 124.820  0.00  0.00    +0.000 N 
ATOM     14  C   UNL     1      -7.579  -0.406 123.532  0.00  0.00    +0.000 C 
ATOM     15  C   UNL     1      -6.899  -1.789 123.320  0.00  0.00    +0.000 C 
ATOM     16  C   UNL     1      -7.858  -2.958 123.522  0.00  0.00    +0.000 C 
ATOM     17  C   UNL     1      -8.450  -2.871 124.929  0.00  0.00    +0.000 C 
ATOM     18  C   UNL     1      -9.122  -1.461 125.159  0.00  0.00    +0.000 C 
ENDROOT
BRANCH  17  19
ATOM     19  N   UNL     1      -7.417  -3.156 125.935  0.00  0.00    +0.000 NA
ATOM     20  H   UNL     1      -6.618  -2.549 125.742  0.00  0.00    +0.000 HD
ATOM     21  H   UNL     1      -7.090  -4.118 125.865  0.00  0.00    +0.000 HD
ENDBRANCH  17  19
BRANCH   1  22
ATOM     22  C   UNL     1      -8.710   3.129 124.501  0.00  0.00    +0.000 C 
BRANCH  22  25
ATOM     23  C   UNL     1      -5.722   3.179 121.349  0.00  0.00    +0.000 C 
ATOM     24  C   UNL     1      -6.767   3.162 122.452  0.00  0.00    +0.000 C 
ATOM     25  C   UNL     1      -7.664   3.147 123.398  0.00  0.00    +0.000 C 
ENDBRANCH  22  25
ENDBRANCH   1  22
BRANCH   8  26
ATOM     26  C   UNL     1      -7.309   5.185 130.125  0.00  0.00    +0.000 C 
BRANCH  26  27
ATOM     27  C   UNL     1      -5.884   5.768 130.579  0.00  0.00    +0.000 A 
ATOM     28  N   UNL     1      -5.526   6.212 131.851  0.00  0.00    +0.000 NA
ATOM     29  C   UNL     1      -4.097   6.475 132.068  0.00  0.00    +0.000 A 
ATOM     30  C   UNL     1      -3.272   5.756 131.332  0.00  0.00    +0.000 A 
ATOM     31  C   UNL     1      -1.936   5.520 131.784  0.00  0.00    +0.000 A 
ATOM     32  C   UNL     1      -1.240   6.585 131.406  0.00  0.00    +0.000 A 
ATOM     33  C   UNL     1      -1.635   7.472 132.347  0.00  0.00    +0.000 A 
ATOM     34  C   UNL     1      -3.124   7.322 132.832  0.00  0.00    +0.000 A 
ATOM     35  C   UNL     1      -3.682   5.722 129.991  0.00  0.00    +0.000 A 
ATOM     36  C   UNL     1      -2.643   5.562 128.935  0.00  0.00    +0.000 C 
ATOM     37  N   UNL     1      -4.980   5.793 129.597  0.00  0.00    +0.000 NA
ENDBRANCH  26  27
ENDBRANCH   8  26
TORSDOF 5
ENDMDL
