MODEL 1
REMARK VINA RESULT:      -7.2      0.000      0.000
REMARK  Name = Lincomycin
REMARK  15 active torsions:
REMARK  status: ('A' for Active; 'I' for Inactive)
REMARK    1  A    between atoms: C_2  and  C_11
REMARK    2  A    between atoms: C_4  and  C_5
REMARK    3  A    between atoms: C_5  and  C_6
REMARK    4  A    between atoms: C_6  and  C_7
REMARK    5  A    between atoms: N_9  and  C_10
REMARK    6  A    between atoms: N_13  and  C_14
REMARK    7  A    between atoms: C_14  and  C_15
REMARK    8  A    between atoms: C_14  and  C_18
REMARK    9  A    between atoms: C_15  and  C_16
REMARK   10  A    between atoms: C_15  and  O_17
REMARK   11  A    between atoms: C_20  and  S_21
REMARK   12  A    between atoms: S_21  and  C_22
REMARK   13  A    between atoms: C_23  and  O_24
REMARK   14  A    between atoms: C_25  and  O_26
REMARK   15  A    between atoms: C_27  and  O_28
REMARK                            x       y       z     vdW  Elec       q    Type
REMARK                         _______ _______ _______ _____ _____    ______ ____
ROOT
ATOM      1  C   UNL     1      -7.100   2.126 123.099  0.00  0.00    +0.000 C 
ENDROOT
BRANCH   1   2
ATOM      2  C   UNL     1      -6.659   2.697 124.489  0.00  0.00    +0.000 C 
ATOM      3  O   UNL     1      -5.542   3.598 124.298  0.00  0.00    +0.000 OA
ATOM      4  C   UNL     1      -4.932   4.009 125.549  0.00  0.00    +0.000 C 
ATOM      5  C   UNL     1      -5.976   4.793 126.372  0.00  0.00    +0.000 C 
ATOM      6  C   UNL     1      -7.189   3.895 126.655  0.00  0.00    +0.000 C 
ATOM      7  C   UNL     1      -7.749   3.437 125.333  0.00  0.00    +0.000 C 
BRANCH   4   8
ATOM      8  S   UNL     1      -4.181   2.513 126.366  0.00  0.00    +0.000 S 
ATOM      9  C   UNL     1      -2.551   3.077 126.886  0.00  0.00    +0.000 C 
ENDBRANCH   4   8
BRANCH   5  10
ATOM     10  O   UNL     1      -5.446   5.333 127.572  0.00  0.00    +0.000 OA
ATOM     11  H   UNL     1      -5.083   4.571 128.058  0.00  0.00    +0.000 HD
ENDBRANCH   5  10
BRANCH   6  12
ATOM     12  O   UNL     1      -8.203   4.640 127.348  0.00  0.00    +0.000 OA
ATOM     13  H   UNL     1      -7.716   5.328 127.856  0.00  0.00    +0.000 HD
ENDBRANCH   6  12
BRANCH   7  14
ATOM     14  O   UNL     1      -8.252   4.683 124.790  0.00  0.00    +0.000 OA
ATOM     15  H   UNL     1      -9.126   4.512 124.377  0.00  0.00    +0.000 HD
ENDBRANCH   7  14
ENDBRANCH   1   2
BRANCH   1  18
ATOM     16  C   UNL     1      -8.698   0.069 123.470  0.00  0.00    +0.000 C 
ATOM     17  O   UNL     1      -9.797  -0.342 123.033  0.00  0.00    +0.000 OA
ATOM     18  N   UNL     1      -8.405   1.380 123.177  0.00  0.00    +0.000 N 
ATOM     19  H   UNL     1      -9.202   1.820 122.727  0.00  0.00    +0.000 HD
BRANCH  16  20
ATOM     20  C   UNL     1      -7.806  -0.898 124.301  0.00  0.00    +0.000 C 
ATOM     21  C   UNL     1      -7.517  -2.122 123.450  0.00  0.00    +0.000 C 
ATOM     22  C   UNL     1      -7.548  -3.322 124.395  0.00  0.00    +0.000 C 
ATOM     23  C   UNL     1      -7.703  -2.748 125.800  0.00  0.00    +0.000 C 
ATOM     24  N   UNL     1      -8.349  -1.460 125.556  0.00  0.00    +0.000 NA
ATOM     25  C   UNL     1      -8.293  -0.651 126.781  0.00  0.00    +0.000 C 
BRANCH  22  26
ATOM     26  C   UNL     1      -6.317  -4.197 124.364  0.00  0.00    +0.000 C 
BRANCH  26  27
ATOM     27  C   UNL     1      -5.147  -3.562 123.637  0.00  0.00    +0.000 C 
ATOM     28  C   UNL     1      -4.034  -4.579 123.537  0.00  0.00    +0.000 C 
ENDBRANCH  26  27
ENDBRANCH  22  26
ENDBRANCH  16  20
ENDBRANCH   1  18
BRANCH   1  29
ATOM     29  C   UNL     1      -7.130   3.320 122.146  0.00  0.00    +0.000 C 
ATOM     30  C   UNL     1      -8.487   3.443 121.454  0.00  0.00    +0.000 C 
BRANCH  29  31
ATOM     31  O   UNL     1      -5.923   3.416 121.424  0.00  0.00    +0.000 OA
ATOM     32  H   UNL     1      -5.643   4.321 121.601  0.00  0.00    +0.000 HD
ENDBRANCH  29  31
ENDBRANCH   1  29
TORSDOF 11
ENDMDL
MODEL 2
REMARK VINA RESULT:      -6.9      7.767     10.322
REMARK  Name = Lincomycin
REMARK  15 active torsions:
REMARK  status: ('A' for Active; 'I' for Inactive)
REMARK    1  A    between atoms: C_2  and  C_11
REMARK    2  A    between atoms: C_4  and  C_5
REMARK    3  A    between atoms: C_5  and  C_6
REMARK    4  A    between atoms: C_6  and  C_7
REMARK    5  A    between atoms: N_9  and  C_10
REMARK    6  A    between atoms: N_13  and  C_14
REMARK    7  A    between atoms: C_14  and  C_15
REMARK    8  A    between atoms: C_14  and  C_18
REMARK    9  A    between atoms: C_15  and  C_16
REMARK   10  A    between atoms: C_15  and  O_17
REMARK   11  A    between atoms: C_20  and  S_21
REMARK   12  A    between atoms: S_21  and  C_22
REMARK   13  A    between atoms: C_23  and  O_24
REMARK   14  A    between atoms: C_25  and  O_26
REMARK   15  A    between atoms: C_27  and  O_28
REMARK                            x       y       z     vdW  Elec       q    Type
REMARK                         _______ _______ _______ _____ _____    ______ ____
ROOT
ATOM      1  C   UNL     1      -8.901   4.909 132.636  0.00  0.00    +0.000 C 
ENDROOT
BRANCH   1   2
ATOM      2  C   UNL     1      -7.398   5.220 132.327  0.00  0.00    +0.000 C 
ATOM      3  O   UNL     1      -6.776   4.040 131.764  0.00  0.00    +0.000 OA
ATOM      4  C   UNL     1      -5.335   4.167 131.644  0.00  0.00    +0.000 C 
ATOM      5  C   UNL     1      -5.023   5.321 130.668  0.00  0.00    +0.000 C 
ATOM      6  C   UNL     1      -5.617   6.630 131.208  0.00  0.00    +0.000 C 
ATOM      7  C   UNL     1      -7.102   6.431 131.382  0.00  0.00    +0.000 C 
BRANCH   4   8
ATOM      8  S   UNL     1      -4.605   4.301 133.353  0.00  0.00    +0.000 S 
ATOM      9  C   UNL     1      -3.034   3.428 133.221  0.00  0.00    +0.000 C 
ENDBRANCH   4   8
BRANCH   5  10
ATOM     10  O   UNL     1      -3.636   5.460 130.399  0.00  0.00    +0.000 OA
ATOM     11  H   UNL     1      -3.358   4.603 130.032  0.00  0.00    +0.000 HD
ENDBRANCH   5  10
BRANCH   6  12
ATOM     12  O   UNL     1      -5.405   7.694 130.267  0.00  0.00    +0.000 OA
ATOM     13  H   UNL     1      -5.742   7.351 129.409  0.00  0.00    +0.000 HD
ENDBRANCH   6  12
BRANCH   7  14
ATOM     14  O   UNL     1      -7.533   6.298 130.005  0.00  0.00    +0.000 OA
ATOM     15  H   UNL     1      -7.045   6.953 129.461  0.00  0.00    +0.000 HD
ENDBRANCH   7  14
ENDBRANCH   1   2
BRANCH   1  18
ATOM     16  C   UNL     1     -10.552   4.701 130.598  0.00  0.00    +0.000 C 
ATOM     17  O   UNL     1     -11.233   3.808 130.042  0.00  0.00    +0.000 OA
ATOM     18  N   UNL     1      -9.596   4.248 131.476  0.00  0.00    +0.000 N 
ATOM     19  H   UNL     1      -9.548   3.234 131.441  0.00  0.00    +0.000 HD
BRANCH  16  20
ATOM     20  C   UNL     1     -10.822   6.190 130.235  0.00  0.00    +0.000 C 
ATOM     21  C   UNL     1     -11.982   6.679 131.085  0.00  0.00    +0.000 C 
ATOM     22  C   UNL     1     -12.813   7.601 130.191  0.00  0.00    +0.000 C 
ATOM     23  C   UNL     1     -12.028   7.745 128.891  0.00  0.00    +0.000 C 
ATOM     24  N   UNL     1     -11.230   6.520 128.853  0.00  0.00    +0.000 NA
ATOM     25  C   UNL     1     -10.197   6.647 127.817  0.00  0.00    +0.000 C 
BRANCH  22  26
ATOM     26  C   UNL     1     -13.072   8.977 130.753  0.00  0.00    +0.000 C 
BRANCH  26  27
ATOM     27  C   UNL     1     -13.202  10.048 129.687  0.00  0.00    +0.000 C 
ATOM     28  C   UNL     1     -13.544  11.358 130.360  0.00  0.00    +0.000 C 
ENDBRANCH  26  27
ENDBRANCH  22  26
ENDBRANCH  16  20
ENDBRANCH   1  18
BRANCH   1  29
ATOM     29  C   UNL     1      -8.902   4.070 133.912  0.00  0.00    +0.000 C 
ATOM     30  C   UNL     1      -8.047   4.716 135.001  0.00  0.00    +0.000 C 
BRANCH  29  31
ATOM     31  O   UNL     1      -8.798   2.697 133.611  0.00  0.00    +0.000 OA
ATOM     32  H   UNL     1      -9.674   2.488 133.270  0.00  0.00    +0.000 HD
ENDBRANCH  29  31
ENDBRANCH   1  29
TORSDOF 11
ENDMDL
MODEL 3
REMARK VINA RESULT:      -6.7      1.351      2.363
REMARK  Name = Lincomycin
REMARK  15 active torsions:
REMARK  status: ('A' for Active; 'I' for Inactive)
REMARK    1  A    between atoms: C_2  and  C_11
REMARK    2  A    between atoms: C_4  and  C_5
REMARK    3  A    between atoms: C_5  and  C_6
REMARK    4  A    between atoms: C_6  and  C_7
REMARK    5  A    between atoms: N_9  and  C_10
REMARK    6  A    between atoms: N_13  and  C_14
REMARK    7  A    between atoms: C_14  and  C_15
REMARK    8  A    between atoms: C_14  and  C_18
REMARK    9  A    between atoms: C_15  and  C_16
REMARK   10  A    between atoms: C_15  and  O_17
REMARK   11  A    between atoms: C_20  and  S_21
REMARK   12  A    between atoms: S_21  and  C_22
REMARK   13  A    between atoms: C_23  and  O_24
REMARK   14  A    between atoms: C_25  and  O_26
REMARK   15  A    between atoms: C_27  and  O_28
REMARK                            x       y       z     vdW  Elec       q    Type
REMARK                         _______ _______ _______ _____ _____    ______ ____
ROOT
ATOM      1  C   UNL     1      -7.407   1.926 123.132  0.00  0.00    +0.000 C 
ENDROOT
BRANCH   1   2
ATOM      2  C   UNL     1      -6.977   2.378 124.568  0.00  0.00    +0.000 C 
ATOM      3  O   UNL     1      -6.083   3.512 124.460  0.00  0.00    +0.000 OA
ATOM      4  C   UNL     1      -5.468   3.865 125.725  0.00  0.00    +0.000 C 
ATOM      5  C   UNL     1      -6.578   4.290 126.711  0.00  0.00    +0.000 C 
ATOM      6  C   UNL     1      -7.558   3.126 126.916  0.00  0.00    +0.000 C 
ATOM      7  C   UNL     1      -8.121   2.747 125.569  0.00  0.00    +0.000 C 
BRANCH   4   8
ATOM      8  S   UNL     1      -4.367   2.463 126.265  0.00  0.00    +0.000 S 
ATOM      9  C   UNL     1      -2.823   3.274 126.717  0.00  0.00    +0.000 C 
ENDBRANCH   4   8
BRANCH   5  10
ATOM     10  O   UNL     1      -6.070   4.757 127.951  0.00  0.00    +0.000 OA
ATOM     11  H   UNL     1      -5.149   5.016 127.771  0.00  0.00    +0.000 HD
ENDBRANCH   5  10
BRANCH   6  12
ATOM     12  O   UNL     1      -8.641   3.537 127.766  0.00  0.00    +0.000 OA
ATOM     13  H   UNL     1      -9.459   3.311 127.268  0.00  0.00    +0.000 HD
ENDBRANCH   6  12
BRANCH   7  14
ATOM     14  O   UNL     1      -8.907   3.922 125.250  0.00  0.00    +0.000 OA
ATOM     15  H   UNL     1      -9.438   3.733 124.447  0.00  0.00    +0.000 HD
ENDBRANCH   7  14
ENDBRANCH   1   2
BRANCH   1  18
ATOM     16  C   UNL     1      -9.417   0.230 123.197  0.00  0.00    +0.000 C 
ATOM     17  O   UNL     1     -10.555   0.120 122.684  0.00  0.00    +0.000 OA
ATOM     18  N   UNL     1      -8.841   1.473 123.081  0.00  0.00    +0.000 N 
ATOM     19  H   UNL     1      -9.504   2.125 122.673  0.00  0.00    +0.000 HD
BRANCH  16  20
ATOM     20  C   UNL     1      -8.792  -0.998 123.918  0.00  0.00    +0.000 C 
ATOM     21  C   UNL     1      -9.162  -0.920 125.390  0.00  0.00    +0.000 C 
ATOM     22  C   UNL     1      -7.938  -1.402 126.168  0.00  0.00    +0.000 C 
ATOM     23  C   UNL     1      -6.941  -1.894 125.123  0.00  0.00    +0.000 C 
ATOM     24  N   UNL     1      -7.321  -1.140 123.930  0.00  0.00    +0.000 NA
ATOM     25  C   UNL     1      -6.652  -1.721 122.758  0.00  0.00    +0.000 C 
BRANCH  22  26
ATOM     26  C   UNL     1      -8.200  -2.518 127.150  0.00  0.00    +0.000 C 
BRANCH  26  27
ATOM     27  C   UNL     1      -7.648  -2.244 128.536  0.00  0.00    +0.000 C 
ATOM     28  C   UNL     1      -7.543  -0.748 128.723  0.00  0.00    +0.000 C 
ENDBRANCH  26  27
ENDBRANCH  22  26
ENDBRANCH  16  20
ENDBRANCH   1  18
BRANCH   1  29
ATOM     29  C   UNL     1      -7.102   3.106 122.211  0.00  0.00    +0.000 C 
ATOM     30  C   UNL     1      -8.344   3.538 121.433  0.00  0.00    +0.000 C 
BRANCH  29  31
ATOM     31  O   UNL     1      -5.855   2.937 121.575  0.00  0.00    +0.000 OA
ATOM     32  H   UNL     1      -5.394   3.754 121.794  0.00  0.00    +0.000 HD
ENDBRANCH  29  31
ENDBRANCH   1  29
TORSDOF 11
ENDMDL
MODEL 4
REMARK VINA RESULT:      -6.7      3.579      5.537
REMARK  Name = Lincomycin
REMARK  15 active torsions:
REMARK  status: ('A' for Active; 'I' for Inactive)
REMARK    1  A    between atoms: C_2  and  C_11
REMARK    2  A    between atoms: C_4  and  C_5
REMARK    3  A    between atoms: C_5  and  C_6
REMARK    4  A    between atoms: C_6  and  C_7
REMARK    5  A    between atoms: N_9  and  C_10
REMARK    6  A    between atoms: N_13  and  C_14
REMARK    7  A    between atoms: C_14  and  C_15
REMARK    8  A    between atoms: C_14  and  C_18
REMARK    9  A    between atoms: C_15  and  C_16
REMARK   10  A    between atoms: C_15  and  O_17
REMARK   11  A    between atoms: C_20  and  S_21
REMARK   12  A    between atoms: S_21  and  C_22
REMARK   13  A    between atoms: C_23  and  O_24
REMARK   14  A    between atoms: C_25  and  O_26
REMARK   15  A    between atoms: C_27  and  O_28
REMARK                            x       y       z     vdW  Elec       q    Type
REMARK                         _______ _______ _______ _____ _____    ______ ____
ROOT
ATOM      1  C   UNL     1      -7.094  -1.423 125.566  0.00  0.00    +0.000 C 
ENDROOT
BRANCH   1   2
ATOM      2  C   UNL     1      -7.614  -0.043 125.040  0.00  0.00    +0.000 C 
ATOM      3  O   UNL     1      -6.932   0.281 123.804  0.00  0.00    +0.000 OA
ATOM      4  C   UNL     1      -7.193   1.636 123.356  0.00  0.00    +0.000 C 
ATOM      5  C   UNL     1      -8.701   1.774 123.059  0.00  0.00    +0.000 C 
ATOM      6  C   UNL     1      -9.507   1.483 124.334  0.00  0.00    +0.000 C 
ATOM      7  C   UNL     1      -9.154   0.094 124.801  0.00  0.00    +0.000 C 
BRANCH   4   8
ATOM      8  S   UNL     1      -6.477   2.824 124.601  0.00  0.00    +0.000 S 
ATOM      9  C   UNL     1      -5.730   4.113 123.588  0.00  0.00    +0.000 C 
ENDBRANCH   4   8
BRANCH   5  10
ATOM     10  O   UNL     1      -9.046   3.037 122.512  0.00  0.00    +0.000 OA
ATOM     11  H   UNL     1      -8.451   3.159 121.751  0.00  0.00    +0.000 HD
ENDBRANCH   5  10
BRANCH   6  12
ATOM     12  O   UNL     1     -10.914   1.527 124.049  0.00  0.00    +0.000 OA
ATOM     13  H   UNL     1     -11.186   0.586 123.948  0.00  0.00    +0.000 HD
ENDBRANCH   6  12
BRANCH   7  14
ATOM     14  O   UNL     1      -9.719  -0.715 123.740  0.00  0.00    +0.000 OA
ATOM     15  H   UNL     1     -10.694  -0.606 123.751  0.00  0.00    +0.000 HD
ENDBRANCH   7  14
ENDBRANCH   1   2
BRANCH   1  18
ATOM     16  C   UNL     1      -8.208  -2.806 127.507  0.00  0.00    +0.000 C 
ATOM     17  O   UNL     1      -9.046  -3.729 127.626  0.00  0.00    +0.000 OA
ATOM     18  N   UNL     1      -8.169  -2.206 126.271  0.00  0.00    +0.000 N 
ATOM     19  H   UNL     1      -8.918  -2.567 125.687  0.00  0.00    +0.000 HD
BRANCH  16  20
ATOM     20  C   UNL     1      -7.337  -2.415 128.735  0.00  0.00    +0.000 C 
ATOM     21  C   UNL     1      -7.398  -3.554 129.739  0.00  0.00    +0.000 C 
ATOM     22  C   UNL     1      -7.438  -2.908 131.123  0.00  0.00    +0.000 C 
ATOM     23  C   UNL     1      -7.243  -1.412 130.896  0.00  0.00    +0.000 C 
ATOM     24  N   UNL     1      -7.720  -1.226 129.526  0.00  0.00    +0.000 NA
ATOM     25  C   UNL     1      -7.318   0.105 129.051  0.00  0.00    +0.000 C 
BRANCH  22  26
ATOM     26  C   UNL     1      -6.381  -3.391 132.088  0.00  0.00    +0.000 C 
BRANCH  26  27
ATOM     27  C   UNL     1      -5.514  -4.501 131.524  0.00  0.00    +0.000 C 
ATOM     28  C   UNL     1      -4.954  -5.305 132.674  0.00  0.00    +0.000 C 
ENDBRANCH  26  27
ENDBRANCH  22  26
ENDBRANCH  16  20
ENDBRANCH   1  18
BRANCH   1  29
ATOM     29  C   UNL     1      -6.507  -2.140 124.352  0.00  0.00    +0.000 C 
ATOM     30  C   UNL     1      -7.232  -3.457 124.081  0.00  0.00    +0.000 C 
BRANCH  29  31
ATOM     31  O   UNL     1      -5.099  -2.061 124.355  0.00  0.00    +0.000 OA
ATOM     32  H   UNL     1      -4.845  -2.837 124.866  0.00  0.00    +0.000 HD
ENDBRANCH  29  31
ENDBRANCH   1  29
TORSDOF 11
ENDMDL
MODEL 5
REMARK VINA RESULT:      -6.6      2.640      3.754
REMARK  Name = Lincomycin
REMARK  15 active torsions:
REMARK  status: ('A' for Active; 'I' for Inactive)
REMARK    1  A    between atoms: C_2  and  C_11
REMARK    2  A    between atoms: C_4  and  C_5
REMARK    3  A    between atoms: C_5  and  C_6
REMARK    4  A    between atoms: C_6  and  C_7
REMARK    5  A    between atoms: N_9  and  C_10
REMARK    6  A    between atoms: N_13  and  C_14
REMARK    7  A    between atoms: C_14  and  C_15
REMARK    8  A    between atoms: C_14  and  C_18
REMARK    9  A    between atoms: C_15  and  C_16
REMARK   10  A    between atoms: C_15  and  O_17
REMARK   11  A    between atoms: C_20  and  S_21
REMARK   12  A    between atoms: S_21  and  C_22
REMARK   13  A    between atoms: C_23  and  O_24
REMARK   14  A    between atoms: C_25  and  O_26
REMARK   15  A    between atoms: C_27  and  O_28
REMARK                            x       y       z     vdW  Elec       q    Type
REMARK                         _______ _______ _______ _____ _____    ______ ____
ROOT
ATOM      1  C   UNL     1      -7.564   2.394 125.642  0.00  0.00    +0.000 C 
ENDROOT
BRANCH   1   2
ATOM      2  C   UNL     1      -7.443   2.420 127.203  0.00  0.00    +0.000 C 
ATOM      3  O   UNL     1      -8.694   2.881 127.768  0.00  0.00    +0.000 OA
ATOM      4  C   UNL     1      -8.606   3.139 129.193  0.00  0.00    +0.000 C 
ATOM      5  C   UNL     1      -8.276   1.814 129.913  0.00  0.00    +0.000 C 
ATOM      6  C   UNL     1      -6.935   1.268 129.400  0.00  0.00    +0.000 C 
ATOM      7  C   UNL     1      -7.050   1.080 127.908  0.00  0.00    +0.000 C 
BRANCH   4   8
ATOM      8  S   UNL     1      -7.427   4.555 129.471  0.00  0.00    +0.000 S 
ATOM      9  C   UNL     1      -8.198   5.507 130.791  0.00  0.00    +0.000 C 
ENDBRANCH   4   8
BRANCH   5  10
ATOM     10  O   UNL     1      -8.271   1.937 131.327  0.00  0.00    +0.000 OA
ATOM     11  H   UNL     1      -8.304   2.894 131.502  0.00  0.00    +0.000 HD
ENDBRANCH   5  10
BRANCH   6  12
ATOM     12  O   UNL     1      -6.659  -0.006 130.002  0.00  0.00    +0.000 OA
ATOM     13  H   UNL     1      -6.160   0.200 130.825  0.00  0.00    +0.000 HD
ENDBRANCH   6  12
BRANCH   7  14
ATOM     14  O   UNL     1      -8.013   0.001 127.831  0.00  0.00    +0.000 OA
ATOM     15  H   UNL     1      -8.724   0.262 127.207  0.00  0.00    +0.000 HD
ENDBRANCH   7  14
ENDBRANCH   1   2
BRANCH   1  18
ATOM     16  C   UNL     1      -9.045   0.502 124.570  0.00  0.00    +0.000 C 
ATOM     17  O   UNL     1     -10.116   0.415 123.926  0.00  0.00    +0.000 OA
ATOM     18  N   UNL     1      -8.824   1.715 125.179  0.00  0.00    +0.000 N 
ATOM     19  H   UNL     1      -9.643   2.308 125.074  0.00  0.00    +0.000 HD
BRANCH  16  20
ATOM     20  C   UNL     1      -8.105  -0.736 124.643  0.00  0.00    +0.000 C 
ATOM     21  C   UNL     1      -7.142  -0.667 123.470  0.00  0.00    +0.000 C 
ATOM     22  C   UNL     1      -6.954  -2.103 122.981  0.00  0.00    +0.000 C 
ATOM     23  C   UNL     1      -7.693  -2.988 123.980  0.00  0.00    +0.000 C 
ATOM     24  N   UNL     1      -8.701  -2.084 124.533  0.00  0.00    +0.000 NA
ATOM     25  C   UNL     1      -9.298  -2.698 125.726  0.00  0.00    +0.000 C 
BRANCH  22  26
ATOM     26  C   UNL     1      -5.521  -2.568 122.892  0.00  0.00    +0.000 C 
BRANCH  26  27
ATOM     27  C   UNL     1      -5.100  -3.448 124.054  0.00  0.00    +0.000 C 
ATOM     28  C   UNL     1      -4.272  -4.591 123.517  0.00  0.00    +0.000 C 
ENDBRANCH  26  27
ENDBRANCH  22  26
ENDBRANCH  16  20
ENDBRANCH   1  18
BRANCH   1  29
ATOM     29  C   UNL     1      -7.447   3.848 125.189  0.00  0.00    +0.000 C 
ATOM     30  C   UNL     1      -6.177   4.499 125.735  0.00  0.00    +0.000 C 
BRANCH  29  31
ATOM     31  O   UNL     1      -8.696   4.498 125.257  0.00  0.00    +0.000 OA
ATOM     32  H   UNL     1      -8.493   5.292 125.764  0.00  0.00    +0.000 HD
ENDBRANCH  29  31
ENDBRANCH   1  29
TORSDOF 11
ENDMDL
MODEL 6
REMARK VINA RESULT:      -6.4      4.095      8.211
REMARK  Name = Lincomycin
REMARK  15 active torsions:
REMARK  status: ('A' for Active; 'I' for Inactive)
REMARK    1  A    between atoms: C_2  and  C_11
REMARK    2  A    between atoms: C_4  and  C_5
REMARK    3  A    between atoms: C_5  and  C_6
REMARK    4  A    between atoms: C_6  and  C_7
REMARK    5  A    between atoms: N_9  and  C_10
REMARK    6  A    between atoms: N_13  and  C_14
REMARK    7  A    between atoms: C_14  and  C_15
REMARK    8  A    between atoms: C_14  and  C_18
REMARK    9  A    between atoms: C_15  and  C_16
REMARK   10  A    between atoms: C_15  and  O_17
REMARK   11  A    between atoms: C_20  and  S_21
REMARK   12  A    between atoms: S_21  and  C_22
REMARK   13  A    between atoms: C_23  and  O_24
REMARK   14  A    between atoms: C_25  and  O_26
REMARK   15  A    between atoms: C_27  and  O_28
REMARK                            x       y       z     vdW  Elec       q    Type
REMARK                         _______ _______ _______ _____ _____    ______ ____
ROOT
ATOM      1  C   UNL     1      -7.431   3.788 128.086  0.00  0.00    +0.000 C 
ENDROOT
BRANCH   1   2
ATOM      2  C   UNL     1      -7.700   2.977 126.774  0.00  0.00    +0.000 C 
ATOM      3  O   UNL     1      -8.866   2.141 126.963  0.00  0.00    +0.000 OA
ATOM      4  C   UNL     1      -9.066   1.199 125.878  0.00  0.00    +0.000 C 
ATOM      5  C   UNL     1      -9.317   1.993 124.578  0.00  0.00    +0.000 C 
ATOM      6  C   UNL     1      -8.104   2.886 124.276  0.00  0.00    +0.000 C 
ATOM      7  C   UNL     1      -7.893   3.799 125.457  0.00  0.00    +0.000 C 
BRANCH   4   8
ATOM      8  S   UNL     1      -7.640   0.000 125.860  0.00  0.00    +0.000 S 
ATOM      9  C   UNL     1      -8.409  -1.581 125.467  0.00  0.00    +0.000 C 
ENDBRANCH   4   8
BRANCH   5  10
ATOM     10  O   UNL     1      -9.629   1.161 123.471  0.00  0.00    +0.000 OA
ATOM     11  H   UNL     1     -10.456   1.520 123.105  0.00  0.00    +0.000 HD
ENDBRANCH   5  10
BRANCH   6  12
ATOM     12  O   UNL     1      -8.361   3.690 123.114  0.00  0.00    +0.000 OA
ATOM     13  H   UNL     1      -8.883   3.114 122.511  0.00  0.00    +0.000 HD
ENDBRANCH   6  12
BRANCH   7  14
ATOM     14  O   UNL     1      -9.073   4.636 125.383  0.00  0.00    +0.000 OA
ATOM     15  H   UNL     1      -9.662   4.283 124.682  0.00  0.00    +0.000 HD
ENDBRANCH   7  14
ENDBRANCH   1   2
BRANCH   1  18
ATOM     16  C   UNL     1      -8.397   3.568 130.524  0.00  0.00    +0.000 C 
ATOM     17  O   UNL     1      -8.370   2.738 131.461  0.00  0.00    +0.000 OA
ATOM     18  N   UNL     1      -7.971   3.092 129.306  0.00  0.00    +0.000 N 
ATOM     19  H   UNL     1      -7.798   2.093 129.368  0.00  0.00    +0.000 HD
BRANCH  16  20
ATOM     20  C   UNL     1      -8.918   5.007 130.805  0.00  0.00    +0.000 C 
ATOM     21  C   UNL     1     -10.112   5.262 129.901  0.00  0.00    +0.000 C 
ATOM     22  C   UNL     1     -10.010   6.720 129.453  0.00  0.00    +0.000 C 
ATOM     23  C   UNL     1      -8.844   7.320 130.232  0.00  0.00    +0.000 C 
ATOM     24  N   UNL     1      -8.020   6.151 130.536  0.00  0.00    +0.000 NA
ATOM     25  C   UNL     1      -7.014   6.518 131.542  0.00  0.00    +0.000 C 
BRANCH  22  26
ATOM     26  C   UNL     1     -11.241   7.556 129.707  0.00  0.00    +0.000 C 
BRANCH  26  27
ATOM     27  C   UNL     1     -11.491   8.601 128.636  0.00  0.00    +0.000 C 
ATOM     28  C   UNL     1     -10.962   8.077 127.321  0.00  0.00    +0.000 C 
ENDBRANCH  26  27
ENDBRANCH  22  26
ENDBRANCH  16  20
ENDBRANCH   1  18
BRANCH   1  29
ATOM     29  C   UNL     1      -5.923   4.026 128.131  0.00  0.00    +0.000 C 
ATOM     30  C   UNL     1      -5.178   2.776 128.595  0.00  0.00    +0.000 C 
BRANCH  29  31
ATOM     31  O   UNL     1      -5.632   5.299 128.664  0.00  0.00    +0.000 OA
ATOM     32  H   UNL     1      -5.188   5.738 127.930  0.00  0.00    +0.000 HD
ENDBRANCH  29  31
ENDBRANCH   1  29
TORSDOF 11
ENDMDL
MODEL 7
REMARK VINA RESULT:      -6.4      2.211      3.135
REMARK  Name = Lincomycin
REMARK  15 active torsions:
REMARK  status: ('A' for Active; 'I' for Inactive)
REMARK    1  A    between atoms: C_2  and  C_11
REMARK    2  A    between atoms: C_4  and  C_5
REMARK    3  A    between atoms: C_5  and  C_6
REMARK    4  A    between atoms: C_6  and  C_7
REMARK    5  A    between atoms: N_9  and  C_10
REMARK    6  A    between atoms: N_13  and  C_14
REMARK    7  A    between atoms: C_14  and  C_15
REMARK    8  A    between atoms: C_14  and  C_18
REMARK    9  A    between atoms: C_15  and  C_16
REMARK   10  A    between atoms: C_15  and  O_17
REMARK   11  A    between atoms: C_20  and  S_21
REMARK   12  A    between atoms: S_21  and  C_22
REMARK   13  A    between atoms: C_23  and  O_24
REMARK   14  A    between atoms: C_25  and  O_26
REMARK   15  A    between atoms: C_27  and  O_28
REMARK                            x       y       z     vdW  Elec       q    Type
REMARK                         _______ _______ _______ _____ _____    ______ ____
ROOT
ATOM      1  C   UNL     1      -6.966   2.475 124.767  0.00  0.00    +0.000 C 
ENDROOT
BRANCH   1   2
ATOM      2  C   UNL     1      -6.327   2.744 126.171  0.00  0.00    +0.000 C 
ATOM      3  O   UNL     1      -7.071   2.017 127.178  0.00  0.00    +0.000 OA
ATOM      4  C   UNL     1      -6.684   2.372 128.530  0.00  0.00    +0.000 C 
ATOM      5  C   UNL     1      -5.203   1.989 128.734  0.00  0.00    +0.000 C 
ATOM      6  C   UNL     1      -4.329   2.749 127.726  0.00  0.00    +0.000 C 
ATOM      7  C   UNL     1      -4.810   2.404 126.339  0.00  0.00    +0.000 C 
BRANCH   4   8
ATOM      8  S   UNL     1      -7.132   4.156 128.828  0.00  0.00    +0.000 S 
ATOM      9  C   UNL     1      -7.720   4.175 130.531  0.00  0.00    +0.000 C 
ENDBRANCH   4   8
BRANCH   5  10
ATOM     10  O   UNL     1      -4.753   2.200 130.064  0.00  0.00    +0.000 OA
ATOM     11  H   UNL     1      -5.550   2.436 130.570  0.00  0.00    +0.000 HD
ENDBRANCH   5  10
BRANCH   6  12
ATOM     12  O   UNL     1      -2.959   2.338 127.851  0.00  0.00    +0.000 OA
ATOM     13  H   UNL     1      -2.548   2.540 126.981  0.00  0.00    +0.000 HD
ENDBRANCH   6  12
BRANCH   7  14
ATOM     14  O   UNL     1      -4.447   1.003 126.254  0.00  0.00    +0.000 OA
ATOM     15  H   UNL     1      -4.446   0.739 125.309  0.00  0.00    +0.000 HD
ENDBRANCH   7  14
ENDBRANCH   1   2
BRANCH   1  18
ATOM     16  C   UNL     1      -8.761   0.555 124.654  0.00  0.00    +0.000 C 
ATOM     17  O   UNL     1      -9.981   0.439 124.399  0.00  0.00    +0.000 OA
ATOM     18  N   UNL     1      -8.327   1.841 124.872  0.00  0.00    +0.000 N 
ATOM     19  H   UNL     1      -9.120   2.476 124.882  0.00  0.00    +0.000 HD
BRANCH  16  20
ATOM     20  C   UNL     1      -7.881  -0.726 124.728  0.00  0.00    +0.000 C 
ATOM     21  C   UNL     1      -6.917  -0.704 123.554  0.00  0.00    +0.000 C 
ATOM     22  C   UNL     1      -6.797  -2.148 123.067  0.00  0.00    +0.000 C 
ATOM     23  C   UNL     1      -7.576  -2.996 124.068  0.00  0.00    +0.000 C 
ATOM     24  N   UNL     1      -8.540  -2.046 124.621  0.00  0.00    +0.000 NA
ATOM     25  C   UNL     1      -9.164  -2.629 125.816  0.00  0.00    +0.000 C 
BRANCH  22  26
ATOM     26  C   UNL     1      -5.387  -2.681 122.978  0.00  0.00    +0.000 C 
BRANCH  26  27
ATOM     27  C   UNL     1      -5.046  -3.668 124.077  0.00  0.00    +0.000 C 
ATOM     28  C   UNL     1      -4.197  -4.770 123.488  0.00  0.00    +0.000 C 
ENDBRANCH  26  27
ENDBRANCH  22  26
ENDBRANCH  16  20
ENDBRANCH   1  18
BRANCH   1  29
ATOM     29  C   UNL     1      -6.969   3.820 124.043  0.00  0.00    +0.000 C 
ATOM     30  C   UNL     1      -5.900   3.865 122.952  0.00  0.00    +0.000 C 
BRANCH  29  31
ATOM     31  O   UNL     1      -7.136   4.882 124.956  0.00  0.00    +0.000 OA
ATOM     32  H   UNL     1      -6.280   5.322 124.925  0.00  0.00    +0.000 HD
ENDBRANCH  29  31
ENDBRANCH   1  29
TORSDOF 11
ENDMDL
MODEL 8
REMARK VINA RESULT:      -6.4      3.554      4.955
REMARK  Name = Lincomycin
REMARK  15 active torsions:
REMARK  status: ('A' for Active; 'I' for Inactive)
REMARK    1  A    between atoms: C_2  and  C_11
REMARK    2  A    between atoms: C_4  and  C_5
REMARK    3  A    between atoms: C_5  and  C_6
REMARK    4  A    between atoms: C_6  and  C_7
REMARK    5  A    between atoms: N_9  and  C_10
REMARK    6  A    between atoms: N_13  and  C_14
REMARK    7  A    between atoms: C_14  and  C_15
REMARK    8  A    between atoms: C_14  and  C_18
REMARK    9  A    between atoms: C_15  and  C_16
REMARK   10  A    between atoms: C_15  and  O_17
REMARK   11  A    between atoms: C_20  and  S_21
REMARK   12  A    between atoms: S_21  and  C_22
REMARK   13  A    between atoms: C_23  and  O_24
REMARK   14  A    between atoms: C_25  and  O_26
REMARK   15  A    between atoms: C_27  and  O_28
REMARK                            x       y       z     vdW  Elec       q    Type
REMARK                         _______ _______ _______ _____ _____    ______ ____
ROOT
ATOM      1  C   UNL     1      -7.580   1.451 127.752  0.00  0.00    +0.000 C 
ENDROOT
BRANCH   1   2
ATOM      2  C   UNL     1      -7.964   2.033 129.154  0.00  0.00    +0.000 C 
ATOM      3  O   UNL     1      -9.355   2.436 129.136  0.00  0.00    +0.000 OA
ATOM      4  C   UNL     1      -9.740   3.180 130.320  0.00  0.00    +0.000 C 
ATOM      5  C   UNL     1      -9.578   2.264 131.552  0.00  0.00    +0.000 C 
ATOM      6  C   UNL     1      -8.114   1.816 131.672  0.00  0.00    +0.000 C 
ATOM      7  C   UNL     1      -7.736   1.109 130.396  0.00  0.00    +0.000 C 
BRANCH   4   8
ATOM      8  S   UNL     1      -8.797   4.787 130.347  0.00  0.00    +0.000 S 
ATOM      9  C   UNL     1     -10.066   6.028 130.658  0.00  0.00    +0.000 C 
ENDBRANCH   4   8
BRANCH   5  10
ATOM     10  O   UNL     1     -10.031   2.866 132.754  0.00  0.00    +0.000 OA
ATOM     11  H   UNL     1     -10.947   2.556 132.868  0.00  0.00    +0.000 HD
ENDBRANCH   5  10
BRANCH   6  12
ATOM     12  O   UNL     1      -7.968   0.897 132.766  0.00  0.00    +0.000 OA
ATOM     13  H   UNL     1      -8.349   1.361 133.546  0.00  0.00    +0.000 HD
ENDBRANCH   6  12
BRANCH   7  14
ATOM     14  O   UNL     1      -8.559  -0.081 130.476  0.00  0.00    +0.000 OA
ATOM     15  H   UNL     1      -9.502   0.190 130.448  0.00  0.00    +0.000 HD
ENDBRANCH   7  14
ENDBRANCH   1   2
BRANCH   1  18
ATOM     16  C   UNL     1      -8.935   0.071 125.968  0.00  0.00    +0.000 C 
ATOM     17  O   UNL     1      -9.944   0.230 125.243  0.00  0.00    +0.000 OA
ATOM     18  N   UNL     1      -8.786   0.994 126.975  0.00  0.00    +0.000 N 
ATOM     19  H   UNL     1      -9.600   1.601 127.012  0.00  0.00    +0.000 HD
BRANCH  16  20
ATOM     20  C   UNL     1      -7.988  -1.131 125.689  0.00  0.00    +0.000 C 
ATOM     21  C   UNL     1      -7.218  -0.840 124.412  0.00  0.00    +0.000 C 
ATOM     22  C   UNL     1      -7.099  -2.169 123.667  0.00  0.00    +0.000 C 
ATOM     23  C   UNL     1      -7.669  -3.230 124.604  0.00  0.00    +0.000 C 
ATOM     24  N   UNL     1      -8.585  -2.462 125.447  0.00  0.00    +0.000 NA
ATOM     25  C   UNL     1      -8.986  -3.283 126.597  0.00  0.00    +0.000 C 
BRANCH  22  26
ATOM     26  C   UNL     1      -5.693  -2.567 123.286  0.00  0.00    +0.000 C 
BRANCH  26  27
ATOM     27  C   UNL     1      -5.039  -3.500 124.288  0.00  0.00    +0.000 C 
ATOM     28  C   UNL     1      -4.356  -4.615 123.531  0.00  0.00    +0.000 C 
ENDBRANCH  26  27
ENDBRANCH  22  26
ENDBRANCH  16  20
ENDBRANCH   1  18
BRANCH   1  29
ATOM     29  C   UNL     1      -6.774   2.542 127.051  0.00  0.00    +0.000 C 
ATOM     30  C   UNL     1      -5.592   1.950 126.284  0.00  0.00    +0.000 C 
BRANCH  29  31
ATOM     31  O   UNL     1      -6.621   3.668 127.885  0.00  0.00    +0.000 OA
ATOM     32  H   UNL     1      -5.681   3.650 128.094  0.00  0.00    +0.000 HD
ENDBRANCH  29  31
ENDBRANCH   1  29
TORSDOF 11
ENDMDL
MODEL 9
REMARK VINA RESULT:      -6.3      5.740      8.891
REMARK  Name = Lincomycin
REMARK  15 active torsions:
REMARK  status: ('A' for Active; 'I' for Inactive)
REMARK    1  A    between atoms: C_2  and  C_11
REMARK    2  A    between atoms: C_4  and  C_5
REMARK    3  A    between atoms: C_5  and  C_6
REMARK    4  A    between atoms: C_6  and  C_7
REMARK    5  A    between atoms: N_9  and  C_10
REMARK    6  A    between atoms: N_13  and  C_14
REMARK    7  A    between atoms: C_14  and  C_15
REMARK    8  A    between atoms: C_14  and  C_18
REMARK    9  A    between atoms: C_15  and  C_16
REMARK   10  A    between atoms: C_15  and  O_17
REMARK   11  A    between atoms: C_20  and  S_21
REMARK   12  A    between atoms: S_21  and  C_22
REMARK   13  A    between atoms: C_23  and  O_24
REMARK   14  A    between atoms: C_25  and  O_26
REMARK   15  A    between atoms: C_27  and  O_28
REMARK                            x       y       z     vdW  Elec       q    Type
REMARK                         _______ _______ _______ _____ _____    ______ ____
ROOT
ATOM      1  C   UNL     1      -5.840   5.777 130.213  0.00  0.00    +0.000 C 
ENDROOT
BRANCH   1   2
ATOM      2  C   UNL     1      -4.982   4.674 129.506  0.00  0.00    +0.000 C 
ATOM      3  O   UNL     1      -5.856   3.824 128.724  0.00  0.00    +0.000 OA
ATOM      4  C   UNL     1      -5.180   2.650 128.205  0.00  0.00    +0.000 C 
ATOM      5  C   UNL     1      -4.061   3.109 127.246  0.00  0.00    +0.000 C 
ATOM      6  C   UNL     1      -3.060   3.992 128.006  0.00  0.00    +0.000 C 
ATOM      7  C   UNL     1      -3.816   5.161 128.585  0.00  0.00    +0.000 C 
BRANCH   4   8
ATOM      8  S   UNL     1      -4.661   1.579 129.639  0.00  0.00    +0.000 S 
ATOM      9  C   UNL     1      -6.199   0.824 130.194  0.00  0.00    +0.000 C 
ENDBRANCH   4   8
BRANCH   5  10
ATOM     10  O   UNL     1      -3.405   2.029 126.601  0.00  0.00    +0.000 OA
ATOM     11  H   UNL     1      -3.318   1.338 127.281  0.00  0.00    +0.000 HD
ENDBRANCH   5  10
BRANCH   6  12
ATOM     12  O   UNL     1      -2.061   4.493 127.105  0.00  0.00    +0.000 OA
ATOM     13  H   UNL     1      -2.526   4.613 126.245  0.00  0.00    +0.000 HD
ENDBRANCH   6  12
BRANCH   7  14
ATOM     14  O   UNL     1      -4.196   5.876 127.383  0.00  0.00    +0.000 OA
ATOM     15  H   UNL     1      -5.057   5.525 127.071  0.00  0.00    +0.000 HD
ENDBRANCH   7  14
ENDBRANCH   1   2
BRANCH   1  18
ATOM     16  C   UNL     1      -7.963   5.287 131.687  0.00  0.00    +0.000 C 
ATOM     17  O   UNL     1      -8.235   5.131 132.900  0.00  0.00    +0.000 OA
ATOM     18  N   UNL     1      -6.626   5.231 131.375  0.00  0.00    +0.000 N 
ATOM     19  H   UNL     1      -6.090   4.968 132.197  0.00  0.00    +0.000 HD
BRANCH  16  20
ATOM     20  C   UNL     1      -9.126   5.495 130.674  0.00  0.00    +0.000 C 
ATOM     21  C   UNL     1      -9.490   6.970 130.670  0.00  0.00    +0.000 C 
ATOM     22  C   UNL     1     -11.011   7.038 130.535  0.00  0.00    +0.000 C 
ATOM     23  C   UNL     1     -11.479   5.604 130.309  0.00  0.00    +0.000 C 
ATOM     24  N   UNL     1     -10.414   4.813 130.924  0.00  0.00    +0.000 NA
ATOM     25  C   UNL     1     -10.564   3.407 130.525  0.00  0.00    +0.000 C 
BRANCH  22  26
ATOM     26  C   UNL     1     -11.517   7.895 129.400  0.00  0.00    +0.000 C 
BRANCH  26  27
ATOM     27  C   UNL     1     -10.435   8.279 128.408  0.00  0.00    +0.000 C 
ATOM     28  C   UNL     1     -10.927   7.963 127.015  0.00  0.00    +0.000 C 
ENDBRANCH  26  27
ENDBRANCH  22  26
ENDBRANCH  16  20
ENDBRANCH   1  18
BRANCH   1  29
ATOM     29  C   UNL     1      -4.862   6.885 130.599  0.00  0.00    +0.000 C 
ATOM     30  C   UNL     1      -4.491   6.807 132.079  0.00  0.00    +0.000 C 
BRANCH  29  31
ATOM     31  O   UNL     1      -5.223   8.106 129.993  0.00  0.00    +0.000 OA
ATOM     32  H   UNL     1      -5.690   8.563 130.700  0.00  0.00    +0.000 HD
ENDBRANCH  29  31
ENDBRANCH   1  29
TORSDOF 11
ENDMDL
