MODEL 1
REMARK VINA RESULT:      -5.1      0.000      0.000
REMARK  Name = Lindane
REMARK  0 active torsions:
REMARK  status: ('A' for Active; 'I' for Inactive)
REMARK                            x       y       z     vdW  Elec       q    Type
REMARK                         _______ _______ _______ _____ _____    ______ ____
ROOT
ATOM      1 CL   UNL     1      -9.898  -0.333 122.483  0.00  0.00    +0.000 Cl
ATOM      2  C   UNL     1      -8.565  -0.949 123.527  0.00  0.00    +0.000 C 
ATOM      3  C   UNL     1      -8.799  -0.632 125.021  0.00  0.00    +0.000 C 
ATOM      4 CL   UNL     1      -8.917   1.161 125.237  0.00  0.00    +0.000 Cl
ATOM      5  C   UNL     1      -7.638  -1.172 125.884  0.00  0.00    +0.000 C 
ATOM      6 CL   UNL     1      -7.871  -0.821 127.637  0.00  0.00    +0.000 Cl
ATOM      7  C   UNL     1      -7.360  -2.673 125.660  0.00  0.00    +0.000 C 
ATOM      8 CL   UNL     1      -8.623  -3.719 126.403  0.00  0.00    +0.000 Cl
ATOM      9  C   UNL     1      -7.189  -3.000 124.163  0.00  0.00    +0.000 C 
ATOM     10 CL   UNL     1      -5.607  -2.309 123.606  0.00  0.00    +0.000 Cl
ATOM     11  C   UNL     1      -8.306  -2.446 123.258  0.00  0.00    +0.000 C 
ATOM     12 CL   UNL     1      -9.802  -3.436 123.409  0.00  0.00    +0.000 Cl
ENDROOT
TORSDOF 0
ENDMDL
MODEL 2
REMARK VINA RESULT:      -5.1      1.745      4.071
REMARK  Name = Lindane
REMARK  0 active torsions:
REMARK  status: ('A' for Active; 'I' for Inactive)
REMARK                            x       y       z     vdW  Elec       q    Type
REMARK                         _______ _______ _______ _____ _____    ______ ____
ROOT
ATOM      1 CL   UNL     1      -6.561  -1.757 128.080  0.00  0.00    +0.000 Cl
ATOM      2  C   UNL     1      -6.556  -2.456 126.419  0.00  0.00    +0.000 C 
ATOM      3  C   UNL     1      -7.981  -2.602 125.841  0.00  0.00    +0.000 C 
ATOM      4 CL   UNL     1      -8.952  -3.685 126.917  0.00  0.00    +0.000 Cl
ATOM      5  C   UNL     1      -7.937  -3.204 124.419  0.00  0.00    +0.000 C 
ATOM      6 CL   UNL     1      -9.583  -3.392 123.708  0.00  0.00    +0.000 Cl
ATOM      7  C   UNL     1      -7.011  -2.430 123.458  0.00  0.00    +0.000 C 
ATOM      8 CL   UNL     1      -7.718  -0.855 122.951  0.00  0.00    +0.000 Cl
ATOM      9  C   UNL     1      -5.607  -2.231 124.062  0.00  0.00    +0.000 C 
ATOM     10 CL   UNL     1      -4.760  -3.835 124.078  0.00  0.00    +0.000 Cl
ATOM     11  C   UNL     1      -5.604  -1.667 125.496  0.00  0.00    +0.000 C 
ATOM     12 CL   UNL     1      -5.964   0.096 125.491  0.00  0.00    +0.000 Cl
ENDROOT
TORSDOF 0
ENDMDL
MODEL 3
REMARK VINA RESULT:      -5.0      1.081      2.602
REMARK  Name = Lindane
REMARK  0 active torsions:
REMARK  status: ('A' for Active; 'I' for Inactive)
REMARK                            x       y       z     vdW  Elec       q    Type
REMARK                         _______ _______ _______ _____ _____    ______ ____
ROOT
ATOM      1 CL   UNL     1      -9.968  -3.593 123.380  0.00  0.00    +0.000 Cl
ATOM      2  C   UNL     1      -8.409  -2.696 123.488  0.00  0.00    +0.000 C 
ATOM      3  C   UNL     1      -8.618  -1.189 123.751  0.00  0.00    +0.000 C 
ATOM      4 CL   UNL     1      -9.597  -0.480 122.404  0.00  0.00    +0.000 Cl
ATOM      5  C   UNL     1      -7.263  -0.454 123.836  0.00  0.00    +0.000 C 
ATOM      6 CL   UNL     1      -7.463   1.312 124.141  0.00  0.00    +0.000 Cl
ATOM      7  C   UNL     1      -6.294  -1.079 124.861  0.00  0.00    +0.000 C 
ATOM      8 CL   UNL     1      -6.780  -0.732 126.559  0.00  0.00    +0.000 Cl
ATOM      9  C   UNL     1      -6.133  -2.596 124.636  0.00  0.00    +0.000 C 
ATOM     10 CL   UNL     1      -5.177  -2.849 123.116  0.00  0.00    +0.000 Cl
ATOM     11  C   UNL     1      -7.462  -3.365 124.507  0.00  0.00    +0.000 C 
ATOM     12 CL   UNL     1      -8.236  -3.581 126.117  0.00  0.00    +0.000 Cl
ENDROOT
TORSDOF 0
ENDMDL
MODEL 4
REMARK VINA RESULT:      -4.9      0.731      2.269
REMARK  Name = Lindane
REMARK  0 active torsions:
REMARK  status: ('A' for Active; 'I' for Inactive)
REMARK                            x       y       z     vdW  Elec       q    Type
REMARK                         _______ _______ _______ _____ _____    ______ ____
ROOT
ATOM      1 CL   UNL     1      -8.137   1.474 124.882  0.00  0.00    +0.000 Cl
ATOM      2  C   UNL     1      -7.621  -0.248 124.757  0.00  0.00    +0.000 C 
ATOM      3  C   UNL     1      -8.339  -1.150 125.786  0.00  0.00    +0.000 C 
ATOM      4 CL   UNL     1      -7.969  -0.558 127.456  0.00  0.00    +0.000 Cl
ATOM      5  C   UNL     1      -7.871  -2.615 125.650  0.00  0.00    +0.000 C 
ATOM      6 CL   UNL     1      -8.685  -3.702 126.836  0.00  0.00    +0.000 Cl
ATOM      7  C   UNL     1      -8.010  -3.169 124.217  0.00  0.00    +0.000 C 
ATOM      8 CL   UNL     1      -9.724  -3.497 123.775  0.00  0.00    +0.000 Cl
ATOM      9  C   UNL     1      -7.348  -2.236 123.182  0.00  0.00    +0.000 C 
ATOM     10 CL   UNL     1      -5.549  -2.350 123.382  0.00  0.00    +0.000 Cl
ATOM     11  C   UNL     1      -7.757  -0.755 123.306  0.00  0.00    +0.000 C 
ATOM     12 CL   UNL     1      -9.408  -0.490 122.641  0.00  0.00    +0.000 Cl
ENDROOT
TORSDOF 0
ENDMDL
MODEL 5
REMARK VINA RESULT:      -4.7      1.499      3.287
REMARK  Name = Lindane
REMARK  0 active torsions:
REMARK  status: ('A' for Active; 'I' for Inactive)
REMARK                            x       y       z     vdW  Elec       q    Type
REMARK                         _______ _______ _______ _____ _____    ______ ____
ROOT
ATOM      1 CL   UNL     1      -9.449  -3.335 123.629  0.00  0.00    +0.000 Cl
ATOM      2  C   UNL     1      -8.931  -1.983 124.703  0.00  0.00    +0.000 C 
ATOM      3  C   UNL     1      -8.116  -2.480 125.917  0.00  0.00    +0.000 C 
ATOM      4 CL   UNL     1      -9.128  -3.628 126.884  0.00  0.00    +0.000 Cl
ATOM      5  C   UNL     1      -7.692  -1.296 126.814  0.00  0.00    +0.000 C 
ATOM      6 CL   UNL     1      -6.738  -1.834 128.245  0.00  0.00    +0.000 Cl
ATOM      7  C   UNL     1      -6.945  -0.187 126.045  0.00  0.00    +0.000 C 
ATOM      8 CL   UNL     1      -5.269  -0.672 125.603  0.00  0.00    +0.000 Cl
ATOM      9  C   UNL     1      -7.731   0.265 124.797  0.00  0.00    +0.000 C 
ATOM     10 CL   UNL     1      -9.185   1.199 125.347  0.00  0.00    +0.000 Cl
ATOM     11  C   UNL     1      -8.208  -0.887 123.892  0.00  0.00    +0.000 C 
ATOM     12 CL   UNL     1      -6.843  -1.545 122.921  0.00  0.00    +0.000 Cl
ENDROOT
TORSDOF 0
ENDMDL
MODEL 6
REMARK VINA RESULT:      -4.6      1.644      3.612
REMARK  Name = Lindane
REMARK  0 active torsions:
REMARK  status: ('A' for Active; 'I' for Inactive)
REMARK                            x       y       z     vdW  Elec       q    Type
REMARK                         _______ _______ _______ _____ _____    ______ ____
ROOT
ATOM      1 CL   UNL     1      -6.903  -1.498 122.812  0.00  0.00    +0.000 Cl
ATOM      2  C   UNL     1      -7.683  -1.248 124.417  0.00  0.00    +0.000 C 
ATOM      3  C   UNL     1      -8.034  -2.584 125.111  0.00  0.00    +0.000 C 
ATOM      4 CL   UNL     1      -9.170  -3.520 124.059  0.00  0.00    +0.000 Cl
ATOM      5  C   UNL     1      -8.700  -2.331 126.481  0.00  0.00    +0.000 C 
ATOM      6 CL   UNL     1      -9.128  -3.866 127.324  0.00  0.00    +0.000 Cl
ATOM      7  C   UNL     1      -7.870  -1.414 127.403  0.00  0.00    +0.000 C 
ATOM      8 CL   UNL     1      -6.423  -2.249 128.072  0.00  0.00    +0.000 Cl
ATOM      9  C   UNL     1      -7.467  -0.108 126.689  0.00  0.00    +0.000 C 
ATOM     10 CL   UNL     1      -8.952   0.916 126.494  0.00  0.00    +0.000 Cl
ATOM     11  C   UNL     1      -6.832  -0.311 125.299  0.00  0.00    +0.000 C 
ATOM     12 CL   UNL     1      -5.130  -0.875 125.450  0.00  0.00    +0.000 Cl
ENDROOT
TORSDOF 0
ENDMDL
MODEL 7
REMARK VINA RESULT:      -4.5      1.502      3.585
REMARK  Name = Lindane
REMARK  0 active torsions:
REMARK  status: ('A' for Active; 'I' for Inactive)
REMARK                            x       y       z     vdW  Elec       q    Type
REMARK                         _______ _______ _______ _____ _____    ______ ____
ROOT
ATOM      1 CL   UNL     1      -5.218   0.122 126.039  0.00  0.00    +0.000 Cl
ATOM      2  C   UNL     1      -6.823  -0.590 125.636  0.00  0.00    +0.000 C 
ATOM      3  C   UNL     1      -7.546   0.194 124.518  0.00  0.00    +0.000 C 
ATOM      4 CL   UNL     1      -7.795   1.904 125.056  0.00  0.00    +0.000 Cl
ATOM      5  C   UNL     1      -8.916  -0.444 124.200  0.00  0.00    +0.000 C 
ATOM      6 CL   UNL     1      -9.795   0.443 122.900  0.00  0.00    +0.000 Cl
ATOM      7  C   UNL     1      -8.826  -1.948 123.870  0.00  0.00    +0.000 C 
ATOM      8 CL   UNL     1      -8.119  -2.249 122.243  0.00  0.00    +0.000 Cl
ATOM      9  C   UNL     1      -8.050  -2.721 124.956  0.00  0.00    +0.000 C 
ATOM     10 CL   UNL     1      -9.078  -2.794 126.448  0.00  0.00    +0.000 Cl
ATOM     11  C   UNL     1      -6.691  -2.098 125.333  0.00  0.00    +0.000 C 
ATOM     12 CL   UNL     1      -5.459  -2.434 124.066  0.00  0.00    +0.000 Cl
ENDROOT
TORSDOF 0
ENDMDL
MODEL 8
REMARK VINA RESULT:      -4.3      1.356      3.694
REMARK  Name = Lindane
REMARK  0 active torsions:
REMARK  status: ('A' for Active; 'I' for Inactive)
REMARK                            x       y       z     vdW  Elec       q    Type
REMARK                         _______ _______ _______ _____ _____    ______ ____
ROOT
ATOM      1 CL   UNL     1      -8.247   1.402 126.643  0.00  0.00    +0.000 Cl
ATOM      2  C   UNL     1      -8.377  -0.315 126.113  0.00  0.00    +0.000 C 
ATOM      3  C   UNL     1      -8.267  -0.463 124.579  0.00  0.00    +0.000 C 
ATOM      4 CL   UNL     1      -9.594   0.484 123.792  0.00  0.00    +0.000 Cl
ATOM      5  C   UNL     1      -8.384  -1.946 124.162  0.00  0.00    +0.000 C 
ATOM      6 CL   UNL     1      -8.262  -2.162 122.376  0.00  0.00    +0.000 Cl
ATOM      7  C   UNL     1      -7.385  -2.866 124.893  0.00  0.00    +0.000 C 
ATOM      8 CL   UNL     1      -5.700  -2.655 124.296  0.00  0.00    +0.000 Cl
ATOM      9  C   UNL     1      -7.452  -2.672 126.422  0.00  0.00    +0.000 C 
ATOM     10 CL   UNL     1      -9.012  -3.378 127.018  0.00  0.00    +0.000 Cl
ATOM     11  C   UNL     1      -7.377  -1.203 126.882  0.00  0.00    +0.000 C 
ATOM     12 CL   UNL     1      -5.691  -0.583 126.774  0.00  0.00    +0.000 Cl
ENDROOT
TORSDOF 0
ENDMDL
MODEL 9
REMARK VINA RESULT:      -4.3      9.082     11.109
REMARK  Name = Lindane
REMARK  0 active torsions:
REMARK  status: ('A' for Active; 'I' for Inactive)
REMARK                            x       y       z     vdW  Elec       q    Type
REMARK                         _______ _______ _______ _____ _____    ______ ____
ROOT
ATOM      1 CL   UNL     1      -6.564   7.013 131.120  0.00  0.00    +0.000 Cl
ATOM      2  C   UNL     1      -4.913   6.307 130.971  0.00  0.00    +0.000 C 
ATOM      3  C   UNL     1      -4.771   5.411 129.721  0.00  0.00    +0.000 C 
ATOM      4 CL   UNL     1      -5.968   4.057 129.820  0.00  0.00    +0.000 Cl
ATOM      5  C   UNL     1      -3.346   4.823 129.627  0.00  0.00    +0.000 C 
ATOM      6 CL   UNL     1      -3.138   3.768 128.181  0.00  0.00    +0.000 Cl
ATOM      7  C   UNL     1      -2.239   5.896 129.684  0.00  0.00    +0.000 C 
ATOM      8 CL   UNL     1      -2.130   6.845 128.159  0.00  0.00    +0.000 Cl
ATOM      9  C   UNL     1      -2.417   6.830 130.899  0.00  0.00    +0.000 C 
ATOM     10 CL   UNL     1      -2.016   5.895 132.400  0.00  0.00    +0.000 Cl
ATOM     11  C   UNL     1      -3.837   7.410 131.054  0.00  0.00    +0.000 C 
ATOM     12 CL   UNL     1      -4.121   8.731 129.866  0.00  0.00    +0.000 Cl
ENDROOT
TORSDOF 0
ENDMDL
