MODEL 1
REMARK VINA RESULT:      -7.0      0.000      0.000
REMARK  Name = Linezolid
REMARK  5 active torsions:
REMARK  status: ('A' for Active; 'I' for Inactive)
REMARK    1  A    between atoms: C_1  and  C_2
REMARK    2  A    between atoms: N_4  and  C_5
REMARK    3  A    between atoms: C_5  and  C_6
REMARK    4  A    between atoms: N_8  and  C_12
REMARK    5  A    between atoms: C_16  and  N_19
REMARK                            x       y       z     vdW  Elec       q    Type
REMARK                         _______ _______ _______ _____ _____    ______ ____
ROOT
ATOM      1  C   UNL     1      -8.074   5.863 130.969  0.00  0.00    +0.000 A 
ATOM      2  C   UNL     1      -7.450   4.621 131.104  0.00  0.00    +0.000 A 
ATOM      3  C   UNL     1      -6.054   4.540 131.189  0.00  0.00    +0.000 A 
ATOM      4  F   UNL     1      -5.499   3.321 131.293  0.00  0.00    +0.000 F 
ATOM      5  C   UNL     1      -5.240   5.683 131.221  0.00  0.00    +0.000 A 
ATOM      6  C   UNL     1      -5.899   6.921 131.137  0.00  0.00    +0.000 A 
ATOM      7  C   UNL     1      -7.292   7.015 130.973  0.00  0.00    +0.000 A 
ENDROOT
BRANCH   1  10
ATOM      8  C   UNL     1     -11.599   5.609 130.033  0.00  0.00    +0.000 C 
ATOM      9  C   UNL     1     -10.158   5.786 129.585  0.00  0.00    +0.000 C 
ATOM     10  N   UNL     1      -9.469   5.935 130.827  0.00  0.00    +0.000 N 
ATOM     11  C   UNL     1     -10.354   6.179 131.854  0.00  0.00    +0.000 C 
ATOM     12  O   UNL     1     -10.090   6.496 133.006  0.00  0.00    +0.000 OA
ATOM     13  O   UNL     1     -11.638   6.087 131.389  0.00  0.00    +0.000 OA
BRANCH   8  14
ATOM     14  C   UNL     1     -12.610   6.368 129.174  0.00  0.00    +0.000 C 
BRANCH  14  18
ATOM     15  C   UNL     1     -13.084  10.087 129.805  0.00  0.00    +0.000 C 
ATOM     16  C   UNL     1     -12.516   8.823 129.211  0.00  0.00    +0.000 C 
ATOM     17  O   UNL     1     -11.647   8.843 128.344  0.00  0.00    +0.000 OA
ATOM     18  N   UNL     1     -13.023   7.651 129.731  0.00  0.00    +0.000 N 
ATOM     19  H   UNL     1     -13.854   7.687 130.312  0.00  0.00    +0.000 HD
ENDBRANCH  14  18
ENDBRANCH   8  14
ENDBRANCH   1  10
BRANCH   5  20
ATOM     20  N   UNL     1      -3.872   5.634 131.373  0.00  0.00    +0.000 N 
ATOM     21  C   UNL     1      -3.167   5.921 132.629  0.00  0.00    +0.000 C 
ATOM     22  C   UNL     1      -2.038   6.940 132.387  0.00  0.00    +0.000 C 
ATOM     23  O   UNL     1      -1.166   6.524 131.318  0.00  0.00    +0.000 OA
ATOM     24  C   UNL     1      -1.921   6.374 130.101  0.00  0.00    +0.000 C 
ATOM     25  C   UNL     1      -3.001   5.288 130.248  0.00  0.00    +0.000 C 
ENDBRANCH   5  20
TORSDOF 4
ENDMDL
MODEL 2
REMARK VINA RESULT:      -6.7      4.176      5.455
REMARK  Name = Linezolid
REMARK  5 active torsions:
REMARK  status: ('A' for Active; 'I' for Inactive)
REMARK    1  A    between atoms: C_1  and  C_2
REMARK    2  A    between atoms: N_4  and  C_5
REMARK    3  A    between atoms: C_5  and  C_6
REMARK    4  A    between atoms: N_8  and  C_12
REMARK    5  A    between atoms: C_16  and  N_19
REMARK                            x       y       z     vdW  Elec       q    Type
REMARK                         _______ _______ _______ _____ _____    ______ ____
ROOT
ATOM      1  C   UNL     1      -9.477   3.584 130.967  0.00  0.00    +0.000 A 
ATOM      2  C   UNL     1      -9.956   2.450 131.627  0.00  0.00    +0.000 A 
ATOM      3  C   UNL     1      -9.335   1.210 131.435  0.00  0.00    +0.000 A 
ATOM      4  F   UNL     1      -9.848   0.143 132.072  0.00  0.00    +0.000 F 
ATOM      5  C   UNL     1      -8.179   1.066 130.652  0.00  0.00    +0.000 A 
ATOM      6  C   UNL     1      -7.688   2.233 130.043  0.00  0.00    +0.000 A 
ATOM      7  C   UNL     1      -8.346   3.469 130.163  0.00  0.00    +0.000 A 
ENDROOT
BRANCH   1  10
ATOM      8  C   UNL     1     -11.737   6.458 130.997  0.00  0.00    +0.000 C 
ATOM      9  C   UNL     1     -11.127   5.309 130.212  0.00  0.00    +0.000 C 
ATOM     10  N   UNL     1     -10.138   4.814 131.117  0.00  0.00    +0.000 N 
ATOM     11  C   UNL     1      -9.909   5.712 132.135  0.00  0.00    +0.000 C 
ATOM     12  O   UNL     1      -9.031   5.666 132.986  0.00  0.00    +0.000 OA
ATOM     13  O   UNL     1     -10.787   6.758 132.034  0.00  0.00    +0.000 OA
BRANCH   8  14
ATOM     14  C   UNL     1     -12.012   7.702 130.154  0.00  0.00    +0.000 C 
BRANCH  14  18
ATOM     15  C   UNL     1     -11.027   7.550 126.485  0.00  0.00    +0.000 C 
ATOM     16  C   UNL     1     -10.971   7.938 127.941  0.00  0.00    +0.000 C 
ATOM     17  O   UNL     1     -10.077   8.647 128.392  0.00  0.00    +0.000 OA
ATOM     18  N   UNL     1     -12.008   7.462 128.715  0.00  0.00    +0.000 N 
ATOM     19  H   UNL     1     -12.617   6.743 128.337  0.00  0.00    +0.000 HD
ENDBRANCH  14  18
ENDBRANCH   8  14
ENDBRANCH   1  10
BRANCH   5  20
ATOM     20  N   UNL     1      -7.508  -0.129 130.503  0.00  0.00    +0.000 N 
ATOM     21  C   UNL     1      -7.587  -0.980 129.309  0.00  0.00    +0.000 C 
ATOM     22  C   UNL     1      -7.910  -2.431 129.709  0.00  0.00    +0.000 C 
ATOM     23  O   UNL     1      -6.996  -2.924 130.709  0.00  0.00    +0.000 OA
ATOM     24  C   UNL     1      -7.064  -2.095 131.885  0.00  0.00    +0.000 C 
ATOM     25  C   UNL     1      -6.648  -0.647 131.569  0.00  0.00    +0.000 C 
ENDBRANCH   5  20
TORSDOF 4
ENDMDL
MODEL 3
REMARK VINA RESULT:      -6.7      2.410      8.406
REMARK  Name = Linezolid
REMARK  5 active torsions:
REMARK  status: ('A' for Active; 'I' for Inactive)
REMARK    1  A    between atoms: C_1  and  C_2
REMARK    2  A    between atoms: N_4  and  C_5
REMARK    3  A    between atoms: C_5  and  C_6
REMARK    4  A    between atoms: N_8  and  C_12
REMARK    5  A    between atoms: C_16  and  N_19
REMARK                            x       y       z     vdW  Elec       q    Type
REMARK                         _______ _______ _______ _____ _____    ______ ____
ROOT
ATOM      1  C   UNL     1      -8.734   6.172 132.065  0.00  0.00    +0.000 A 
ATOM      2  C   UNL     1      -8.623   6.885 130.870  0.00  0.00    +0.000 A 
ATOM      3  C   UNL     1      -9.772   7.223 130.143  0.00  0.00    +0.000 A 
ATOM      4  F   UNL     1      -9.612   7.888 128.986  0.00  0.00    +0.000 F 
ATOM      5  C   UNL     1     -11.064   6.936 130.611  0.00  0.00    +0.000 A 
ATOM      6  C   UNL     1     -11.146   6.264 131.842  0.00  0.00    +0.000 A 
ATOM      7  C   UNL     1     -10.001   5.850 132.544  0.00  0.00    +0.000 A 
ENDROOT
BRANCH   1  10
ATOM      8  C   UNL     1      -5.430   5.762 133.577  0.00  0.00    +0.000 C 
ATOM      9  C   UNL     1      -6.247   6.093 132.339  0.00  0.00    +0.000 C 
ATOM     10  N   UNL     1      -7.577   5.786 132.761  0.00  0.00    +0.000 N 
ATOM     11  C   UNL     1      -7.566   5.047 133.922  0.00  0.00    +0.000 C 
ATOM     12  O   UNL     1      -8.515   4.500 134.466  0.00  0.00    +0.000 OA
ATOM     13  O   UNL     1      -6.283   4.931 134.384  0.00  0.00    +0.000 OA
BRANCH   8  14
ATOM     14  C   UNL     1      -4.118   5.039 133.274  0.00  0.00    +0.000 C 
BRANCH  14  18
ATOM     15  C   UNL     1      -0.728   6.410 132.233  0.00  0.00    +0.000 C 
ATOM     16  C   UNL     1      -1.770   5.401 132.645  0.00  0.00    +0.000 C 
ATOM     17  O   UNL     1      -1.521   4.202 132.727  0.00  0.00    +0.000 OA
ATOM     18  N   UNL     1      -3.009   5.928 132.946  0.00  0.00    +0.000 N 
ATOM     19  H   UNL     1      -3.210   6.891 132.695  0.00  0.00    +0.000 HD
ENDBRANCH  14  18
ENDBRANCH   8  14
ENDBRANCH   1  10
BRANCH   5  20
ATOM     20  N   UNL     1     -12.211   7.317 129.950  0.00  0.00    +0.000 N 
ATOM     21  C   UNL     1     -12.941   6.468 128.999  0.00  0.00    +0.000 C 
ATOM     22  C   UNL     1     -13.203   7.236 127.691  0.00  0.00    +0.000 C 
ATOM     23  O   UNL     1     -13.839   8.506 127.937  0.00  0.00    +0.000 OA
ATOM     24  C   UNL     1     -13.005   9.314 128.787  0.00  0.00    +0.000 C 
ATOM     25  C   UNL     1     -12.793   8.645 130.157  0.00  0.00    +0.000 C 
ENDBRANCH   5  20
TORSDOF 4
ENDMDL
MODEL 4
REMARK VINA RESULT:      -6.7      4.517      8.200
REMARK  Name = Linezolid
REMARK  5 active torsions:
REMARK  status: ('A' for Active; 'I' for Inactive)
REMARK    1  A    between atoms: C_1  and  C_2
REMARK    2  A    between atoms: N_4  and  C_5
REMARK    3  A    between atoms: C_5  and  C_6
REMARK    4  A    between atoms: N_8  and  C_12
REMARK    5  A    between atoms: C_16  and  N_19
REMARK                            x       y       z     vdW  Elec       q    Type
REMARK                         _______ _______ _______ _____ _____    ______ ____
ROOT
ATOM      1  C   UNL     1      -9.227   3.611 131.204  0.00  0.00    +0.000 A 
ATOM      2  C   UNL     1      -8.552   4.825 131.347  0.00  0.00    +0.000 A 
ATOM      3  C   UNL     1      -9.113   6.005 130.844  0.00  0.00    +0.000 A 
ATOM      4  F   UNL     1      -8.414   7.144 130.984  0.00  0.00    +0.000 F 
ATOM      5  C   UNL     1     -10.388   6.036 130.257  0.00  0.00    +0.000 A 
ATOM      6  C   UNL     1     -11.066   4.809 130.175  0.00  0.00    +0.000 A 
ATOM      7  C   UNL     1     -10.483   3.604 130.604  0.00  0.00    +0.000 A 
ENDROOT
BRANCH   1  10
ATOM      8  C   UNL     1      -7.421   0.472 131.710  0.00  0.00    +0.000 C 
ATOM      9  C   UNL     1      -8.324   1.308 130.819  0.00  0.00    +0.000 C 
ATOM     10  N   UNL     1      -8.634   2.421 131.658  0.00  0.00    +0.000 N 
ATOM     11  C   UNL     1      -8.295   2.160 132.967  0.00  0.00    +0.000 C 
ATOM     12  O   UNL     1      -8.558   2.834 133.953  0.00  0.00    +0.000 OA
ATOM     13  O   UNL     1      -7.653   0.954 133.046  0.00  0.00    +0.000 OA
BRANCH   8  14
ATOM     14  C   UNL     1      -7.697  -1.029 131.633  0.00  0.00    +0.000 C 
BRANCH  14  18
ATOM     15  C   UNL     1      -8.329  -3.175 128.558  0.00  0.00    +0.000 C 
ATOM     16  C   UNL     1      -7.784  -2.775 129.906  0.00  0.00    +0.000 C 
ATOM     17  O   UNL     1      -7.091  -3.532 130.579  0.00  0.00    +0.000 OA
ATOM     18  N   UNL     1      -8.099  -1.495 130.310  0.00  0.00    +0.000 N 
ATOM     19  H   UNL     1      -8.812  -0.979 129.804  0.00  0.00    +0.000 HD
ENDBRANCH  14  18
ENDBRANCH   8  14
ENDBRANCH   1  10
BRANCH   5  20
ATOM     20  N   UNL     1     -10.992   7.194 129.818  0.00  0.00    +0.000 N 
ATOM     21  C   UNL     1     -12.298   7.675 130.285  0.00  0.00    +0.000 C 
ATOM     22  C   UNL     1     -13.205   8.006 129.085  0.00  0.00    +0.000 C 
ATOM     23  O   UNL     1     -12.557   8.902 128.159  0.00  0.00    +0.000 OA
ATOM     24  C   UNL     1     -11.343   8.303 127.669  0.00  0.00    +0.000 C 
ATOM     25  C   UNL     1     -10.348   8.045 128.815  0.00  0.00    +0.000 C 
ENDBRANCH   5  20
TORSDOF 4
ENDMDL
MODEL 5
REMARK VINA RESULT:      -6.6      9.310     12.127
REMARK  Name = Linezolid
REMARK  5 active torsions:
REMARK  status: ('A' for Active; 'I' for Inactive)
REMARK    1  A    between atoms: C_1  and  C_2
REMARK    2  A    between atoms: N_4  and  C_5
REMARK    3  A    between atoms: C_5  and  C_6
REMARK    4  A    between atoms: N_8  and  C_12
REMARK    5  A    between atoms: C_16  and  N_19
REMARK                            x       y       z     vdW  Elec       q    Type
REMARK                         _______ _______ _______ _____ _____    ______ ____
ROOT
ATOM      1  C   UNL     1      -5.949  -2.913 129.338  0.00  0.00    +0.000 A 
ATOM      2  C   UNL     1      -7.203  -3.526 129.358  0.00  0.00    +0.000 A 
ATOM      3  C   UNL     1      -8.119  -3.287 128.325  0.00  0.00    +0.000 A 
ATOM      4  F   UNL     1      -9.323  -3.880 128.402  0.00  0.00    +0.000 F 
ATOM      5  C   UNL     1      -7.797  -2.502 127.208  0.00  0.00    +0.000 A 
ATOM      6  C   UNL     1      -6.509  -1.941 127.189  0.00  0.00    +0.000 A 
ATOM      7  C   UNL     1      -5.608  -2.107 128.255  0.00  0.00    +0.000 A 
ENDROOT
BRANCH   1  10
ATOM      8  C   UNL     1      -4.225  -3.569 132.495  0.00  0.00    +0.000 C 
ATOM      9  C   UNL     1      -5.390  -2.907 131.779  0.00  0.00    +0.000 C 
ATOM     10  N   UNL     1      -5.056  -3.109 130.404  0.00  0.00    +0.000 N 
ATOM     11  C   UNL     1      -3.743  -3.499 130.269  0.00  0.00    +0.000 C 
ATOM     12  O   UNL     1      -3.101  -3.612 129.234  0.00  0.00    +0.000 OA
ATOM     13  O   UNL     1      -3.187  -3.688 131.506  0.00  0.00    +0.000 OA
BRANCH   8  14
ATOM     14  C   UNL     1      -3.718  -2.783 133.704  0.00  0.00    +0.000 C 
BRANCH  14  18
ATOM     15  C   UNL     1      -0.168  -1.483 134.108  0.00  0.00    +0.000 C 
ATOM     16  C   UNL     1      -1.667  -1.452 133.944  0.00  0.00    +0.000 C 
ATOM     17  O   UNL     1      -2.300  -0.401 133.932  0.00  0.00    +0.000 OA
ATOM     18  N   UNL     1      -2.265  -2.684 133.785  0.00  0.00    +0.000 N 
ATOM     19  H   UNL     1      -1.727  -3.523 133.977  0.00  0.00    +0.000 HD
ENDBRANCH  14  18
ENDBRANCH   8  14
ENDBRANCH   1  10
BRANCH   5  20
ATOM     20  N   UNL     1      -8.654  -2.307 126.146  0.00  0.00    +0.000 N 
ATOM     21  C   UNL     1      -9.153  -3.381 125.277  0.00  0.00    +0.000 C 
ATOM     22  C   UNL     1      -8.938  -3.013 123.798  0.00  0.00    +0.000 C 
ATOM     23  O   UNL     1      -9.487  -1.717 123.486  0.00  0.00    +0.000 OA
ATOM     24  C   UNL     1      -8.863  -0.712 124.307  0.00  0.00    +0.000 C 
ATOM     25  C   UNL     1      -9.133  -0.967 125.800  0.00  0.00    +0.000 C 
ENDBRANCH   5  20
TORSDOF 4
ENDMDL
MODEL 6
REMARK VINA RESULT:      -6.6      3.559      7.832
REMARK  Name = Linezolid
REMARK  5 active torsions:
REMARK  status: ('A' for Active; 'I' for Inactive)
REMARK    1  A    between atoms: C_1  and  C_2
REMARK    2  A    between atoms: N_4  and  C_5
REMARK    3  A    between atoms: C_5  and  C_6
REMARK    4  A    between atoms: N_8  and  C_12
REMARK    5  A    between atoms: C_16  and  N_19
REMARK                            x       y       z     vdW  Elec       q    Type
REMARK                         _______ _______ _______ _____ _____    ______ ____
ROOT
ATOM      1  C   UNL     1      -8.448   4.729 131.686  0.00  0.00    +0.000 A 
ATOM      2  C   UNL     1      -9.660   4.316 131.128  0.00  0.00    +0.000 A 
ATOM      3  C   UNL     1     -10.503   5.247 130.509  0.00  0.00    +0.000 A 
ATOM      4  F   UNL     1     -11.670   4.806 130.009  0.00  0.00    +0.000 F 
ATOM      5  C   UNL     1     -10.143   6.595 130.355  0.00  0.00    +0.000 A 
ATOM      6  C   UNL     1      -8.895   6.971 130.879  0.00  0.00    +0.000 A 
ATOM      7  C   UNL     1      -8.073   6.065 131.571  0.00  0.00    +0.000 A 
ENDROOT
BRANCH   1  10
ATOM      8  C   UNL     1      -5.829   2.503 132.931  0.00  0.00    +0.000 C 
ATOM      9  C   UNL     1      -6.575   3.068 131.735  0.00  0.00    +0.000 C 
ATOM     10  N   UNL     1      -7.632   3.802 132.355  0.00  0.00    +0.000 N 
ATOM     11  C   UNL     1      -7.754   3.462 133.683  0.00  0.00    +0.000 C 
ATOM     12  O   UNL     1      -8.641   3.790 134.459  0.00  0.00    +0.000 OA
ATOM     13  O   UNL     1      -6.745   2.607 134.035  0.00  0.00    +0.000 OA
BRANCH   8  14
ATOM     14  C   UNL     1      -5.381   1.053 132.748  0.00  0.00    +0.000 C 
BRANCH  14  18
ATOM     15  C   UNL     1      -7.970  -1.063 130.939  0.00  0.00    +0.000 C 
ATOM     16  C   UNL     1      -7.227  -0.427 132.087  0.00  0.00    +0.000 C 
ATOM     17  O   UNL     1      -7.569  -0.589 133.254  0.00  0.00    +0.000 OA
ATOM     18  N   UNL     1      -6.126   0.322 131.729  0.00  0.00    +0.000 N 
ATOM     19  H   UNL     1      -5.991   0.567 130.754  0.00  0.00    +0.000 HD
ENDBRANCH  14  18
ENDBRANCH   8  14
ENDBRANCH   1  10
BRANCH   5  20
ATOM     20  N   UNL     1     -10.923   7.516 129.690  0.00  0.00    +0.000 N 
ATOM     21  C   UNL     1     -12.298   7.865 130.069  0.00  0.00    +0.000 C 
ATOM     22  C   UNL     1     -13.227   7.778 128.845  0.00  0.00    +0.000 C 
ATOM     23  O   UNL     1     -12.722   8.548 127.737  0.00  0.00    +0.000 OA
ATOM     24  C   UNL     1     -11.418   8.067 127.361  0.00  0.00    +0.000 C 
ATOM     25  C   UNL     1     -10.412   8.227 128.516  0.00  0.00    +0.000 C 
ENDBRANCH   5  20
TORSDOF 4
ENDMDL
MODEL 7
REMARK VINA RESULT:      -6.3      5.189      8.406
REMARK  Name = Linezolid
REMARK  5 active torsions:
REMARK  status: ('A' for Active; 'I' for Inactive)
REMARK    1  A    between atoms: C_1  and  C_2
REMARK    2  A    between atoms: N_4  and  C_5
REMARK    3  A    between atoms: C_5  and  C_6
REMARK    4  A    between atoms: N_8  and  C_12
REMARK    5  A    between atoms: C_16  and  N_19
REMARK                            x       y       z     vdW  Elec       q    Type
REMARK                         _______ _______ _______ _____ _____    ______ ____
ROOT
ATOM      1  C   UNL     1      -7.937   2.483 130.909  0.00  0.00    +0.000 A 
ATOM      2  C   UNL     1      -9.271   2.501 130.497  0.00  0.00    +0.000 A 
ATOM      3  C   UNL     1     -10.016   3.685 130.574  0.00  0.00    +0.000 A 
ATOM      4  F   UNL     1     -11.303   3.646 130.189  0.00  0.00    +0.000 F 
ATOM      5  C   UNL     1      -9.447   4.899 130.987  0.00  0.00    +0.000 A 
ATOM      6  C   UNL     1      -8.089   4.862 131.346  0.00  0.00    +0.000 A 
ATOM      7  C   UNL     1      -7.350   3.667 131.347  0.00  0.00    +0.000 A 
ENDROOT
BRANCH   1  10
ATOM      8  C   UNL     1      -5.613  -0.290 130.382  0.00  0.00    +0.000 C 
ATOM      9  C   UNL     1      -6.424   0.843 129.775  0.00  0.00    +0.000 C 
ATOM     10  N   UNL     1      -7.212   1.280 130.883  0.00  0.00    +0.000 N 
ATOM     11  C   UNL     1      -7.179   0.358 131.905  0.00  0.00    +0.000 C 
ATOM     12  O   UNL     1      -7.853   0.353 132.926  0.00  0.00    +0.000 OA
ATOM     13  O   UNL     1      -6.304  -0.647 131.592  0.00  0.00    +0.000 OA
BRANCH   8  14
ATOM     14  C   UNL     1      -5.478  -1.509 129.469  0.00  0.00    +0.000 C 
BRANCH  14  18
ATOM     15  C   UNL     1      -8.614  -3.496 128.649  0.00  0.00    +0.000 C 
ATOM     16  C   UNL     1      -7.267  -3.179 129.247  0.00  0.00    +0.000 C 
ATOM     17  O   UNL     1      -6.680  -3.965 129.985  0.00  0.00    +0.000 OA
ATOM     18  N   UNL     1      -6.737  -1.959 128.885  0.00  0.00    +0.000 N 
ATOM     19  H   UNL     1      -7.332  -1.279 128.422  0.00  0.00    +0.000 HD
ENDBRANCH  14  18
ENDBRANCH   8  14
ENDBRANCH   1  10
BRANCH   5  20
ATOM     20  N   UNL     1     -10.138   6.092 131.007  0.00  0.00    +0.000 N 
ATOM     21  C   UNL     1     -11.239   6.395 131.930  0.00  0.00    +0.000 C 
ATOM     22  C   UNL     1     -12.457   6.926 131.151  0.00  0.00    +0.000 C 
ATOM     23  O   UNL     1     -12.101   8.029 130.294  0.00  0.00    +0.000 OA
ATOM     24  C   UNL     1     -11.096   7.611 129.351  0.00  0.00    +0.000 C 
ATOM     25  C   UNL     1      -9.809   7.168 130.070  0.00  0.00    +0.000 C 
ENDBRANCH   5  20
TORSDOF 4
ENDMDL
MODEL 8
REMARK VINA RESULT:      -6.3      2.008      2.381
REMARK  Name = Linezolid
REMARK  5 active torsions:
REMARK  status: ('A' for Active; 'I' for Inactive)
REMARK    1  A    between atoms: C_1  and  C_2
REMARK    2  A    between atoms: N_4  and  C_5
REMARK    3  A    between atoms: C_5  and  C_6
REMARK    4  A    between atoms: N_8  and  C_12
REMARK    5  A    between atoms: C_16  and  N_19
REMARK                            x       y       z     vdW  Elec       q    Type
REMARK                         _______ _______ _______ _____ _____    ______ ____
ROOT
ATOM      1  C   UNL     1      -7.220   6.097 131.376  0.00  0.00    +0.000 A 
ATOM      2  C   UNL     1      -6.135   6.747 130.784  0.00  0.00    +0.000 A 
ATOM      3  C   UNL     1      -4.933   6.896 131.487  0.00  0.00    +0.000 A 
ATOM      4  F   UNL     1      -3.927   7.551 130.884  0.00  0.00    +0.000 F 
ATOM      5  C   UNL     1      -4.741   6.341 132.762  0.00  0.00    +0.000 A 
ATOM      6  C   UNL     1      -5.831   5.647 133.312  0.00  0.00    +0.000 A 
ATOM      7  C   UNL     1      -7.068   5.557 132.651  0.00  0.00    +0.000 A 
ENDROOT
BRANCH   1  10
ATOM      8  C   UNL     1     -10.361   6.573 129.567  0.00  0.00    +0.000 C 
ATOM      9  C   UNL     1      -9.450   7.013 130.700  0.00  0.00    +0.000 C 
ATOM     10  N   UNL     1      -8.441   6.001 130.689  0.00  0.00    +0.000 N 
ATOM     11  C   UNL     1      -8.837   4.920 129.936  0.00  0.00    +0.000 C 
ATOM     12  O   UNL     1      -8.281   3.835 129.839  0.00  0.00    +0.000 OA
ATOM     13  O   UNL     1     -10.033   5.193 129.328  0.00  0.00    +0.000 OA
BRANCH   8  14
ATOM     14  C   UNL     1     -11.850   6.717 129.883  0.00  0.00    +0.000 C 
BRANCH  14  18
ATOM     15  C   UNL     1     -13.203  10.270 129.848  0.00  0.00    +0.000 C 
ATOM     16  C   UNL     1     -12.735   8.939 129.318  0.00  0.00    +0.000 C 
ATOM     17  O   UNL     1     -12.764   8.667 128.121  0.00  0.00    +0.000 OA
ATOM     18  N   UNL     1     -12.250   8.066 130.269  0.00  0.00    +0.000 N 
ATOM     19  H   UNL     1     -12.410   8.267 131.251  0.00  0.00    +0.000 HD
ENDBRANCH  14  18
ENDBRANCH   8  14
ENDBRANCH   1  10
BRANCH   5  20
ATOM     20  N   UNL     1      -3.547   6.413 133.447  0.00  0.00    +0.000 N 
ATOM     21  C   UNL     1      -3.046   7.621 134.115  0.00  0.00    +0.000 C 
ATOM     22  C   UNL     1      -1.596   7.906 133.686  0.00  0.00    +0.000 C 
ATOM     23  O   UNL     1      -0.750   6.753 133.869  0.00  0.00    +0.000 OA
ATOM     24  C   UNL     1      -1.253   5.650 133.092  0.00  0.00    +0.000 C 
ATOM     25  C   UNL     1      -2.666   5.247 133.549  0.00  0.00    +0.000 C 
ENDBRANCH   5  20
TORSDOF 4
ENDMDL
MODEL 9
REMARK VINA RESULT:      -6.3      6.934      8.238
REMARK  Name = Linezolid
REMARK  5 active torsions:
REMARK  status: ('A' for Active; 'I' for Inactive)
REMARK    1  A    between atoms: C_1  and  C_2
REMARK    2  A    between atoms: N_4  and  C_5
REMARK    3  A    between atoms: C_5  and  C_6
REMARK    4  A    between atoms: N_8  and  C_12
REMARK    5  A    between atoms: C_16  and  N_19
REMARK                            x       y       z     vdW  Elec       q    Type
REMARK                         _______ _______ _______ _____ _____    ______ ____
ROOT
ATOM      1  C   UNL     1      -6.686   2.669 126.014  0.00  0.00    +0.000 A 
ATOM      2  C   UNL     1      -5.339   2.891 125.719  0.00  0.00    +0.000 A 
ATOM      3  C   UNL     1      -4.594   3.803 126.477  0.00  0.00    +0.000 A 
ATOM      4  F   UNL     1      -3.308   4.001 126.139  0.00  0.00    +0.000 F 
ATOM      5  C   UNL     1      -5.132   4.463 127.593  0.00  0.00    +0.000 A 
ATOM      6  C   UNL     1      -6.474   4.180 127.898  0.00  0.00    +0.000 A 
ATOM      7  C   UNL     1      -7.256   3.328 127.100  0.00  0.00    +0.000 A 
ENDROOT
BRANCH   1  10
ATOM      8  C   UNL     1      -8.569  -0.067 124.486  0.00  0.00    +0.000 C 
ATOM      9  C   UNL     1      -7.336   0.373 125.257  0.00  0.00    +0.000 C 
ATOM     10  N   UNL     1      -7.444   1.797 125.215  0.00  0.00    +0.000 N 
ATOM     11  C   UNL     1      -8.369   2.193 124.277  0.00  0.00    +0.000 C 
ATOM     12  O   UNL     1      -8.596   3.331 123.888  0.00  0.00    +0.000 OA
ATOM     13  O   UNL     1      -8.992   1.094 123.750  0.00  0.00    +0.000 OA
BRANCH   8  14
ATOM     14  C   UNL     1      -8.315  -1.235 123.534  0.00  0.00    +0.000 C 
BRANCH  14  18
ATOM     15  C   UNL     1      -5.160  -3.334 123.849  0.00  0.00    +0.000 C 
ATOM     16  C   UNL     1      -6.183  -2.418 123.226  0.00  0.00    +0.000 C 
ATOM     17  O   UNL     1      -6.036  -1.945 122.103  0.00  0.00    +0.000 OA
ATOM     18  N   UNL     1      -7.300  -2.174 123.998  0.00  0.00    +0.000 N 
ATOM     19  H   UNL     1      -7.292  -2.442 124.977  0.00  0.00    +0.000 HD
ENDBRANCH  14  18
ENDBRANCH   8  14
ENDBRANCH   1  10
BRANCH   5  20
ATOM     20  N   UNL     1      -4.402   5.312 128.397  0.00  0.00    +0.000 N 
ATOM     21  C   UNL     1      -3.730   6.529 127.922  0.00  0.00    +0.000 C 
ATOM     22  C   UNL     1      -2.263   6.544 128.386  0.00  0.00    +0.000 C 
ATOM     23  O   UNL     1      -2.153   6.342 129.809  0.00  0.00    +0.000 OA
ATOM     24  C   UNL     1      -2.738   5.077 130.170  0.00  0.00    +0.000 C 
ATOM     25  C   UNL     1      -4.237   5.040 129.826  0.00  0.00    +0.000 C 
ENDBRANCH   5  20
TORSDOF 4
ENDMDL
