MODEL 1
REMARK VINA RESULT:      -6.4      0.000      0.000
REMARK  Name = Liothyronine
REMARK  8 active torsions:
REMARK  status: ('A' for Active; 'I' for Inactive)
REMARK    1  A    between atoms: N_1  and  CA_2
REMARK    2  A    between atoms: CA_2  and  C_3
REMARK    3  A    between atoms: CA_2  and  C_21
REMARK    4  A    between atoms: C_3  and  C_4
REMARK    5  A    between atoms: C_8  and  O_9
REMARK    6  A    between atoms: O_9  and  C_10
REMARK    7  A    between atoms: C_14  and  O_15
REMARK    8  A    between atoms: C_21  and  O_22
REMARK                            x       y       z     vdW  Elec       q    Type
REMARK                         _______ _______ _______ _____ _____    ______ ____
ROOT
ATOM      1  C   UNL     1      -8.993   0.895 125.184  0.00  0.00    +0.000 A 
ATOM      2  C   UNL     1      -8.759   1.094 126.540  0.00  0.00    +0.000 A 
ATOM      3  C   UNL     1      -8.367   0.067 127.399  0.00  0.00    +0.000 A 
ATOM      4  I   UNL     1      -7.634   0.967 129.192  0.00  0.00    +0.000 I 
ATOM      5  C   UNL     1      -8.333  -1.262 126.941  0.00  0.00    +0.000 A 
ATOM      6  C   UNL     1      -8.576  -1.463 125.552  0.00  0.00    +0.000 A 
ATOM      7  I   UNL     1      -8.372  -3.356 124.626  0.00  0.00    +0.000 I 
ATOM      8  C   UNL     1      -8.884  -0.396 124.679  0.00  0.00    +0.000 A 
ENDROOT
BRANCH   1   9
ATOM      9  C   UNL     1      -9.232   2.118 124.334  0.00  0.00    +0.000 C 
BRANCH   9  10
ATOM     10  CA  UNL     1      -7.985   3.021 124.229  0.00  0.00    +0.000 C 
BRANCH  10  11
ATOM     11  N   UNL     1      -8.241   4.365 124.833  0.00  0.00    +0.000 NA
ATOM     12  H1  UNL     1      -8.777   4.190 125.695  0.00  0.00    +0.000 HD
ATOM     13  H2  UNL     1      -8.921   4.861 124.252  0.00  0.00    +0.000 HD
ENDBRANCH  10  11
BRANCH  10  14
ATOM     14  C   UNL     1      -7.566   3.144 122.769  0.00  0.00    +0.000 C 
ATOM     15  OXT UNL     1      -6.484   2.754 122.336  0.00  0.00    +0.000 OA
BRANCH  14  16
ATOM     16  O   UNL     1      -8.502   3.726 121.986  0.00  0.00    +0.000 OA
ATOM     17  H   UNL     1      -9.383   3.363 122.239  0.00  0.00    +0.000 HD
ENDBRANCH  14  16
ENDBRANCH  10  14
ENDBRANCH   9  10
ENDBRANCH   1   9
BRANCH   5  18
ATOM     18  O   UNL     1      -8.035  -2.403 127.666  0.00  0.00    +0.000 OA
BRANCH  18  19
ATOM     19  C   UNL     1      -6.806  -2.538 128.264  0.00  0.00    +0.000 A 
ATOM     20  C   UNL     1      -6.781  -3.060 129.562  0.00  0.00    +0.000 A 
ATOM     21  C   UNL     1      -5.556  -3.400 130.144  0.00  0.00    +0.000 A 
ATOM     22  I   UNL     1      -5.555  -4.320 132.016  0.00  0.00    +0.000 I 
ATOM     23  C   UNL     1      -4.367  -3.192 129.437  0.00  0.00    +0.000 A 
ATOM     24  C   UNL     1      -4.394  -2.611 128.170  0.00  0.00    +0.000 A 
ATOM     25  C   UNL     1      -5.615  -2.241 127.595  0.00  0.00    +0.000 A 
BRANCH  23  26
ATOM     26  O   UNL     1      -3.142  -3.570 129.912  0.00  0.00    +0.000 OA
ATOM     27  H   UNL     1      -2.510  -2.858 129.707  0.00  0.00    +0.000 HD
ENDBRANCH  23  26
ENDBRANCH  18  19
ENDBRANCH   5  18
TORSDOF 8
ENDMDL
MODEL 2
REMARK VINA RESULT:      -6.3      9.798     10.963
REMARK  Name = Liothyronine
REMARK  8 active torsions:
REMARK  status: ('A' for Active; 'I' for Inactive)
REMARK    1  A    between atoms: N_1  and  CA_2
REMARK    2  A    between atoms: CA_2  and  C_3
REMARK    3  A    between atoms: CA_2  and  C_21
REMARK    4  A    between atoms: C_3  and  C_4
REMARK    5  A    between atoms: C_8  and  O_9
REMARK    6  A    between atoms: O_9  and  C_10
REMARK    7  A    between atoms: C_14  and  O_15
REMARK    8  A    between atoms: C_21  and  O_22
REMARK                            x       y       z     vdW  Elec       q    Type
REMARK                         _______ _______ _______ _____ _____    ______ ____
ROOT
ATOM      1  C   UNL     1      -7.180   6.687 131.420  0.00  0.00    +0.000 A 
ATOM      2  C   UNL     1      -6.072   7.057 130.668  0.00  0.00    +0.000 A 
ATOM      3  C   UNL     1      -4.763   6.769 131.055  0.00  0.00    +0.000 A 
ATOM      4  I   UNL     1      -3.505   7.056 129.354  0.00  0.00    +0.000 I 
ATOM      5  C   UNL     1      -4.509   6.206 132.319  0.00  0.00    +0.000 A 
ATOM      6  C   UNL     1      -5.647   5.830 133.088  0.00  0.00    +0.000 A 
ATOM      7  I   UNL     1      -5.482   4.785 134.922  0.00  0.00    +0.000 I 
ATOM      8  C   UNL     1      -6.967   6.050 132.638  0.00  0.00    +0.000 A 
ENDROOT
BRANCH   1   9
ATOM      9  C   UNL     1      -8.541   6.896 130.801  0.00  0.00    +0.000 C 
BRANCH   9  10
ATOM     10  CA  UNL     1      -9.475   5.684 130.999  0.00  0.00    +0.000 C 
BRANCH  10  11
ATOM     11  N   UNL     1      -9.883   5.098 129.686  0.00  0.00    +0.000 NA
ATOM     12  H1  UNL     1      -9.799   5.860 128.997  0.00  0.00    +0.000 HD
ATOM     13  H2  UNL     1     -10.891   4.930 129.701  0.00  0.00    +0.000 HD
ENDBRANCH  10  11
BRANCH  10  14
ATOM     14  C   UNL     1     -10.692   6.106 131.815  0.00  0.00    +0.000 C 
ATOM     15  OXT UNL     1     -11.830   6.173 131.356  0.00  0.00    +0.000 OA
BRANCH  14  16
ATOM     16  O   UNL     1     -10.401   6.401 133.102  0.00  0.00    +0.000 OA
ATOM     17  H   UNL     1      -9.610   5.877 133.367  0.00  0.00    +0.000 HD
ENDBRANCH  14  16
ENDBRANCH  10  14
ENDBRANCH   9  10
ENDBRANCH   1   9
BRANCH   5  18
ATOM     18  O   UNL     1      -3.281   5.918 132.890  0.00  0.00    +0.000 OA
BRANCH  18  19
ATOM     19  C   UNL     1      -2.308   6.885 132.954  0.00  0.00    +0.000 A 
ATOM     20  C   UNL     1      -2.691   8.147 133.421  0.00  0.00    +0.000 A 
ATOM     21  C   UNL     1      -1.711   9.107 133.691  0.00  0.00    +0.000 A 
ATOM     22  I   UNL     1      -2.293  10.926 134.531  0.00  0.00    +0.000 I 
ATOM     23  C   UNL     1      -0.363   8.810 133.469  0.00  0.00    +0.000 A 
ATOM     24  C   UNL     1       0.007   7.573 132.942  0.00  0.00    +0.000 A 
ATOM     25  C   UNL     1      -0.971   6.618 132.641  0.00  0.00    +0.000 A 
BRANCH  23  26
ATOM     26  O   UNL     1       0.652   9.671 133.781  0.00  0.00    +0.000 OA
ATOM     27  H   UNL     1       0.327  10.579 133.646  0.00  0.00    +0.000 HD
ENDBRANCH  23  26
ENDBRANCH  18  19
ENDBRANCH   5  18
TORSDOF 8
ENDMDL
MODEL 3
REMARK VINA RESULT:      -6.2      8.598      9.763
REMARK  Name = Liothyronine
REMARK  8 active torsions:
REMARK  status: ('A' for Active; 'I' for Inactive)
REMARK    1  A    between atoms: N_1  and  CA_2
REMARK    2  A    between atoms: CA_2  and  C_3
REMARK    3  A    between atoms: CA_2  and  C_21
REMARK    4  A    between atoms: C_3  and  C_4
REMARK    5  A    between atoms: C_8  and  O_9
REMARK    6  A    between atoms: O_9  and  C_10
REMARK    7  A    between atoms: C_14  and  O_15
REMARK    8  A    between atoms: C_21  and  O_22
REMARK                            x       y       z     vdW  Elec       q    Type
REMARK                         _______ _______ _______ _____ _____    ______ ____
ROOT
ATOM      1  C   UNL     1      -8.555   6.287 131.404  0.00  0.00    +0.000 A 
ATOM      2  C   UNL     1      -7.521   5.890 130.565  0.00  0.00    +0.000 A 
ATOM      3  C   UNL     1      -6.354   5.287 131.034  0.00  0.00    +0.000 A 
ATOM      4  I   UNL     1      -5.360   4.407 129.361  0.00  0.00    +0.000 I 
ATOM      5  C   UNL     1      -6.118   5.188 132.417  0.00  0.00    +0.000 A 
ATOM      6  C   UNL     1      -7.179   5.597 133.275  0.00  0.00    +0.000 A 
ATOM      7  I   UNL     1      -7.105   5.339 135.375  0.00  0.00    +0.000 I 
ATOM      8  C   UNL     1      -8.391   6.123 132.775  0.00  0.00    +0.000 A 
ENDROOT
BRANCH   1   9
ATOM      9  C   UNL     1      -9.835   6.756 130.756  0.00  0.00    +0.000 C 
BRANCH   9  10
ATOM     10  CA  UNL     1     -11.086   6.081 131.354  0.00  0.00    +0.000 C 
BRANCH  10  11
ATOM     11  N   UNL     1     -11.157   4.638 130.968  0.00  0.00    +0.000 NA
ATOM     12  H1  UNL     1     -10.194   4.279 131.037  0.00  0.00    +0.000 HD
ATOM     13  H2  UNL     1     -11.340   4.577 129.964  0.00  0.00    +0.000 HD
ENDBRANCH  10  11
BRANCH  10  14
ATOM     14  C   UNL     1     -12.335   6.833 130.908  0.00  0.00    +0.000 C 
ATOM     15  OXT UNL     1     -13.204   7.230 131.681  0.00  0.00    +0.000 OA
BRANCH  14  16
ATOM     16  O   UNL     1     -12.397   7.027 129.571  0.00  0.00    +0.000 OA
ATOM     17  H   UNL     1     -12.243   7.984 129.391  0.00  0.00    +0.000 HD
ENDBRANCH  14  16
ENDBRANCH  10  14
ENDBRANCH   9  10
ENDBRANCH   1   9
BRANCH   5  18
ATOM     18  O   UNL     1      -4.996   4.685 133.054  0.00  0.00    +0.000 OA
BRANCH  18  19
ATOM     19  C   UNL     1      -3.758   5.213 132.785  0.00  0.00    +0.000 A 
ATOM     20  C   UNL     1      -3.598   6.592 132.962  0.00  0.00    +0.000 A 
ATOM     21  C   UNL     1      -2.319   7.152 132.893  0.00  0.00    +0.000 A 
ATOM     22  I   UNL     1      -2.088   9.183 133.312  0.00  0.00    +0.000 I 
ATOM     23  C   UNL     1      -1.215   6.337 132.623  0.00  0.00    +0.000 A 
ATOM     24  C   UNL     1      -1.388   4.974 132.383  0.00  0.00    +0.000 A 
ATOM     25  C   UNL     1      -2.669   4.413 132.421  0.00  0.00    +0.000 A 
BRANCH  23  26
ATOM     26  O   UNL     1       0.071   6.802 132.615  0.00  0.00    +0.000 OA
ATOM     27  H   UNL     1       0.145   7.487 133.303  0.00  0.00    +0.000 HD
ENDBRANCH  23  26
ENDBRANCH  18  19
ENDBRANCH   5  18
TORSDOF 8
ENDMDL
MODEL 4
REMARK VINA RESULT:      -6.2      2.134      2.482
REMARK  Name = Liothyronine
REMARK  8 active torsions:
REMARK  status: ('A' for Active; 'I' for Inactive)
REMARK    1  A    between atoms: N_1  and  CA_2
REMARK    2  A    between atoms: CA_2  and  C_3
REMARK    3  A    between atoms: CA_2  and  C_21
REMARK    4  A    between atoms: C_3  and  C_4
REMARK    5  A    between atoms: C_8  and  O_9
REMARK    6  A    between atoms: O_9  and  C_10
REMARK    7  A    between atoms: C_14  and  O_15
REMARK    8  A    between atoms: C_21  and  O_22
REMARK                            x       y       z     vdW  Elec       q    Type
REMARK                         _______ _______ _______ _____ _____    ______ ____
ROOT
ATOM      1  C   UNL     1      -7.107   1.534 124.355  0.00  0.00    +0.000 A 
ATOM      2  C   UNL     1      -6.672   1.772 125.653  0.00  0.00    +0.000 A 
ATOM      3  C   UNL     1      -5.992   0.819 126.410  0.00  0.00    +0.000 A 
ATOM      4  I   UNL     1      -5.097   1.824 128.068  0.00  0.00    +0.000 I 
ATOM      5  C   UNL     1      -5.846  -0.494 125.926  0.00  0.00    +0.000 A 
ATOM      6  C   UNL     1      -6.295  -0.735 124.596  0.00  0.00    +0.000 A 
ATOM      7  I   UNL     1      -5.983  -2.582 123.610  0.00  0.00    +0.000 I 
ATOM      8  C   UNL     1      -6.902   0.271 123.812  0.00  0.00    +0.000 A 
ENDROOT
BRANCH   1   9
ATOM      9  C   UNL     1      -7.664   2.706 123.583  0.00  0.00    +0.000 C 
BRANCH   9  10
ATOM     10  CA  UNL     1      -6.650   3.292 122.579  0.00  0.00    +0.000 C 
BRANCH  10  11
ATOM     11  N   UNL     1      -5.931   4.466 123.161  0.00  0.00    +0.000 NA
ATOM     12  H1  UNL     1      -6.657   5.055 123.595  0.00  0.00    +0.000 HD
ATOM     13  H2  UNL     1      -5.599   5.058 122.397  0.00  0.00    +0.000 HD
ENDBRANCH  10  11
BRANCH  10  14
ATOM     14  C   UNL     1      -7.371   3.671 121.289  0.00  0.00    +0.000 C 
ATOM     15  OXT UNL     1      -6.807   3.787 120.204  0.00  0.00    +0.000 OA
BRANCH  14  16
ATOM     16  O   UNL     1      -8.698   3.867 121.452  0.00  0.00    +0.000 OA
ATOM     17  H   UNL     1      -9.075   3.071 121.894  0.00  0.00    +0.000 HD
ENDBRANCH  14  16
ENDBRANCH  10  14
ENDBRANCH   9  10
ENDBRANCH   1   9
BRANCH   5  18
ATOM     18  O   UNL     1      -5.265  -1.575 126.565  0.00  0.00    +0.000 OA
BRANCH  18  19
ATOM     19  C   UNL     1      -5.838  -2.094 127.700  0.00  0.00    +0.000 A 
ATOM     20  C   UNL     1      -5.006  -2.273 128.811  0.00  0.00    +0.000 A 
ATOM     21  C   UNL     1      -5.569  -2.611 130.045  0.00  0.00    +0.000 A 
ATOM     22  I   UNL     1      -4.328  -2.722 131.719  0.00  0.00    +0.000 I 
ATOM     23  C   UNL     1      -6.952  -2.793 130.155  0.00  0.00    +0.000 A 
ATOM     24  C   UNL     1      -7.768  -2.676 129.030  0.00  0.00    +0.000 A 
ATOM     25  C   UNL     1      -7.207  -2.367 127.786  0.00  0.00    +0.000 A 
BRANCH  23  26
ATOM     26  O   UNL     1      -7.579  -3.049 131.342  0.00  0.00    +0.000 OA
ATOM     27  H   UNL     1      -8.538  -2.964 131.198  0.00  0.00    +0.000 HD
ENDBRANCH  23  26
ENDBRANCH  18  19
ENDBRANCH   5  18
TORSDOF 8
ENDMDL
MODEL 5
REMARK VINA RESULT:      -6.1      3.878      5.989
REMARK  Name = Liothyronine
REMARK  8 active torsions:
REMARK  status: ('A' for Active; 'I' for Inactive)
REMARK    1  A    between atoms: N_1  and  CA_2
REMARK    2  A    between atoms: CA_2  and  C_3
REMARK    3  A    between atoms: CA_2  and  C_21
REMARK    4  A    between atoms: C_3  and  C_4
REMARK    5  A    between atoms: C_8  and  O_9
REMARK    6  A    between atoms: O_9  and  C_10
REMARK    7  A    between atoms: C_14  and  O_15
REMARK    8  A    between atoms: C_21  and  O_22
REMARK                            x       y       z     vdW  Elec       q    Type
REMARK                         _______ _______ _______ _____ _____    ______ ____
ROOT
ATOM      1  C   UNL     1      -8.505  -2.489 126.938  0.00  0.00    +0.000 A 
ATOM      2  C   UNL     1      -8.398  -1.121 126.717  0.00  0.00    +0.000 A 
ATOM      3  C   UNL     1      -7.788  -0.254 127.623  0.00  0.00    +0.000 A 
ATOM      4  I   UNL     1      -7.409   1.585 126.606  0.00  0.00    +0.000 I 
ATOM      5  C   UNL     1      -7.380  -0.724 128.884  0.00  0.00    +0.000 A 
ATOM      6  C   UNL     1      -7.493  -2.126 129.108  0.00  0.00    +0.000 A 
ATOM      7  I   UNL     1      -6.747  -3.060 130.856  0.00  0.00    +0.000 I 
ATOM      8  C   UNL     1      -8.032  -3.002 128.141  0.00  0.00    +0.000 A 
ENDROOT
BRANCH   1   9
ATOM      9  C   UNL     1      -9.019  -3.338 125.801  0.00  0.00    +0.000 C 
BRANCH   9  10
ATOM     10  CA  UNL     1      -8.858  -2.653 124.428  0.00  0.00    +0.000 C 
BRANCH  10  11
ATOM     11  N   UNL     1      -9.921  -3.099 123.476  0.00  0.00    +0.000 NA
ATOM     12  H1  UNL     1     -10.050  -2.321 122.812  0.00  0.00    +0.000 HD
ATOM     13  H2  UNL     1     -10.817  -3.113 123.969  0.00  0.00    +0.000 HD
ENDBRANCH  10  11
BRANCH  10  14
ATOM     14  C   UNL     1      -7.467  -2.939 123.875  0.00  0.00    +0.000 C 
ATOM     15  OXT UNL     1      -6.783  -3.902 124.217  0.00  0.00    +0.000 OA
BRANCH  14  16
ATOM     16  O   UNL     1      -7.052  -2.030 122.965  0.00  0.00    +0.000 OA
ATOM     17  H   UNL     1      -7.523  -2.205 122.117  0.00  0.00    +0.000 HD
ENDBRANCH  14  16
ENDBRANCH  10  14
ENDBRANCH   9  10
ENDBRANCH   1   9
BRANCH   5  18
ATOM     18  O   UNL     1      -6.824   0.004 129.923  0.00  0.00    +0.000 OA
BRANCH  18  19
ATOM     19  C   UNL     1      -7.593   0.898 130.626  0.00  0.00    +0.000 A 
ATOM     20  C   UNL     1      -7.220   2.246 130.569  0.00  0.00    +0.000 A 
ATOM     21  C   UNL     1      -8.072   3.218 131.101  0.00  0.00    +0.000 A 
ATOM     22  I   UNL     1      -7.568   5.229 130.866  0.00  0.00    +0.000 I 
ATOM     23  C   UNL     1      -9.273   2.838 131.707  0.00  0.00    +0.000 A 
ATOM     24  C   UNL     1      -9.609   1.489 131.819  0.00  0.00    +0.000 A 
ATOM     25  C   UNL     1      -8.746   0.508 131.316  0.00  0.00    +0.000 A 
BRANCH  23  26
ATOM     26  O   UNL     1     -10.188   3.737 132.180  0.00  0.00    +0.000 OA
ATOM     27  H   UNL     1     -10.140   3.728 133.153  0.00  0.00    +0.000 HD
ENDBRANCH  23  26
ENDBRANCH  18  19
ENDBRANCH   5  18
TORSDOF 8
ENDMDL
MODEL 6
REMARK VINA RESULT:      -6.1      6.620      8.033
REMARK  Name = Liothyronine
REMARK  8 active torsions:
REMARK  status: ('A' for Active; 'I' for Inactive)
REMARK    1  A    between atoms: N_1  and  CA_2
REMARK    2  A    between atoms: CA_2  and  C_3
REMARK    3  A    between atoms: CA_2  and  C_21
REMARK    4  A    between atoms: C_3  and  C_4
REMARK    5  A    between atoms: C_8  and  O_9
REMARK    6  A    between atoms: O_9  and  C_10
REMARK    7  A    between atoms: C_14  and  O_15
REMARK    8  A    between atoms: C_21  and  O_22
REMARK                            x       y       z     vdW  Elec       q    Type
REMARK                         _______ _______ _______ _____ _____    ______ ____
ROOT
ATOM      1  C   UNL     1      -9.580   4.400 130.694  0.00  0.00    +0.000 A 
ATOM      2  C   UNL     1      -8.933   3.903 129.569  0.00  0.00    +0.000 A 
ATOM      3  C   UNL     1      -7.624   3.421 129.600  0.00  0.00    +0.000 A 
ATOM      4  I   UNL     1      -7.300   2.309 127.806  0.00  0.00    +0.000 I 
ATOM      5  C   UNL     1      -6.850   3.557 130.766  0.00  0.00    +0.000 A 
ATOM      6  C   UNL     1      -7.515   4.069 131.916  0.00  0.00    +0.000 A 
ATOM      7  I   UNL     1      -6.588   4.162 133.817  0.00  0.00    +0.000 I 
ATOM      8  C   UNL     1      -8.870   4.469 131.887  0.00  0.00    +0.000 A 
ENDROOT
BRANCH   1   9
ATOM      9  C   UNL     1     -11.050   4.717 130.566  0.00  0.00    +0.000 C 
BRANCH   9  10
ATOM     10  CA  UNL     1     -11.356   6.213 130.786  0.00  0.00    +0.000 C 
BRANCH  10  11
ATOM     11  N   UNL     1     -12.283   6.409 131.942  0.00  0.00    +0.000 NA
ATOM     12  H1  UNL     1     -12.646   7.370 131.854  0.00  0.00    +0.000 HD
ATOM     13  H2  UNL     1     -11.729   6.465 132.800  0.00  0.00    +0.000 HD
ENDBRANCH  10  11
BRANCH  10  14
ATOM     14  C   UNL     1     -11.936   6.809 129.508  0.00  0.00    +0.000 C 
ATOM     15  OXT UNL     1     -12.029   6.191 128.450  0.00  0.00    +0.000 OA
BRANCH  14  16
ATOM     16  O   UNL     1     -12.343   8.090 129.648  0.00  0.00    +0.000 OA
ATOM     17  H   UNL     1     -12.038   8.417 130.526  0.00  0.00    +0.000 HD
ENDBRANCH  14  16
ENDBRANCH  10  14
ENDBRANCH   9  10
ENDBRANCH   1   9
BRANCH   5  18
ATOM     18  O   UNL     1      -5.525   3.200 130.952  0.00  0.00    +0.000 OA
BRANCH  18  19
ATOM     19  C   UNL     1      -4.525   3.926 130.353  0.00  0.00    +0.000 A 
ATOM     20  C   UNL     1      -3.883   3.344 129.255  0.00  0.00    +0.000 A 
ATOM     21  C   UNL     1      -2.998   4.109 128.489  0.00  0.00    +0.000 A 
ATOM     22  I   UNL     1      -2.171   3.266 126.769  0.00  0.00    +0.000 I 
ATOM     23  C   UNL     1      -2.742   5.438 128.840  0.00  0.00    +0.000 A 
ATOM     24  C   UNL     1      -3.336   5.994 129.973  0.00  0.00    +0.000 A 
ATOM     25  C   UNL     1      -4.199   5.224 130.761  0.00  0.00    +0.000 A 
BRANCH  23  26
ATOM     26  O   UNL     1      -1.949   6.267 128.096  0.00  0.00    +0.000 OA
ATOM     27  H   UNL     1      -2.497   7.015 127.797  0.00  0.00    +0.000 HD
ENDBRANCH  23  26
ENDBRANCH  18  19
ENDBRANCH   5  18
TORSDOF 8
ENDMDL
MODEL 7
REMARK VINA RESULT:      -6.1      2.247      2.632
REMARK  Name = Liothyronine
REMARK  8 active torsions:
REMARK  status: ('A' for Active; 'I' for Inactive)
REMARK    1  A    between atoms: N_1  and  CA_2
REMARK    2  A    between atoms: CA_2  and  C_3
REMARK    3  A    between atoms: CA_2  and  C_21
REMARK    4  A    between atoms: C_3  and  C_4
REMARK    5  A    between atoms: C_8  and  O_9
REMARK    6  A    between atoms: O_9  and  C_10
REMARK    7  A    between atoms: C_14  and  O_15
REMARK    8  A    between atoms: C_21  and  O_22
REMARK                            x       y       z     vdW  Elec       q    Type
REMARK                         _______ _______ _______ _____ _____    ______ ____
ROOT
ATOM      1  C   UNL     1      -6.734   1.212 124.930  0.00  0.00    +0.000 A 
ATOM      2  C   UNL     1      -6.429   1.381 126.275  0.00  0.00    +0.000 A 
ATOM      3  C   UNL     1      -5.873   0.370 127.059  0.00  0.00    +0.000 A 
ATOM      4  I   UNL     1      -5.117   1.271 128.841  0.00  0.00    +0.000 I 
ATOM      5  C   UNL     1      -5.731  -0.928 126.537  0.00  0.00    +0.000 A 
ATOM      6  C   UNL     1      -6.047  -1.099 125.159  0.00  0.00    +0.000 A 
ATOM      7  I   UNL     1      -5.708  -2.921 124.134  0.00  0.00    +0.000 I 
ATOM      8  C   UNL     1      -6.525  -0.038 124.359  0.00  0.00    +0.000 A 
ENDROOT
BRANCH   1   9
ATOM      9  C   UNL     1      -7.158   2.436 124.155  0.00  0.00    +0.000 C 
BRANCH   9  10
ATOM     10  CA  UNL     1      -7.310   3.683 125.050  0.00  0.00    +0.000 C 
BRANCH  10  11
ATOM     11  N   UNL     1      -8.704   4.220 124.994  0.00  0.00    +0.000 NA
ATOM     12  H1  UNL     1      -8.775   4.729 124.101  0.00  0.00    +0.000 HD
ATOM     13  H2  UNL     1      -8.792   4.973 125.681  0.00  0.00    +0.000 HD
ENDBRANCH  10  11
BRANCH  10  14
ATOM     14  C   UNL     1      -6.295   4.740 124.629  0.00  0.00    +0.000 C 
ATOM     15  OXT UNL     1      -5.701   4.723 123.553  0.00  0.00    +0.000 OA
BRANCH  14  16
ATOM     16  O   UNL     1      -6.108   5.706 125.556  0.00  0.00    +0.000 OA
ATOM     17  H   UNL     1      -5.764   5.283 126.377  0.00  0.00    +0.000 HD
ENDBRANCH  14  16
ENDBRANCH  10  14
ENDBRANCH   9  10
ENDBRANCH   1   9
BRANCH   5  18
ATOM     18  O   UNL     1      -5.266  -2.058 127.188  0.00  0.00    +0.000 OA
BRANCH  18  19
ATOM     19  C   UNL     1      -5.868  -2.484 128.346  0.00  0.00    +0.000 A 
ATOM     20  C   UNL     1      -5.031  -2.797 129.424  0.00  0.00    +0.000 A 
ATOM     21  C   UNL     1      -5.591  -3.046 130.680  0.00  0.00    +0.000 A 
ATOM     22  I   UNL     1      -4.317  -3.358 132.302  0.00  0.00    +0.000 I 
ATOM     23  C   UNL     1      -6.979  -3.006 130.846  0.00  0.00    +0.000 A 
ATOM     24  C   UNL     1      -7.811  -2.756 129.754  0.00  0.00    +0.000 A 
ATOM     25  C   UNL     1      -7.258  -2.536 128.488  0.00  0.00    +0.000 A 
BRANCH  23  26
ATOM     26  O   UNL     1      -7.591  -3.163 132.058  0.00  0.00    +0.000 OA
ATOM     27  H   UNL     1      -6.981  -3.650 132.640  0.00  0.00    +0.000 HD
ENDBRANCH  23  26
ENDBRANCH  18  19
ENDBRANCH   5  18
TORSDOF 8
ENDMDL
MODEL 8
REMARK VINA RESULT:      -6.1      7.768      8.737
REMARK  Name = Liothyronine
REMARK  8 active torsions:
REMARK  status: ('A' for Active; 'I' for Inactive)
REMARK    1  A    between atoms: N_1  and  CA_2
REMARK    2  A    between atoms: CA_2  and  C_3
REMARK    3  A    between atoms: CA_2  and  C_21
REMARK    4  A    between atoms: C_3  and  C_4
REMARK    5  A    between atoms: C_8  and  O_9
REMARK    6  A    between atoms: O_9  and  C_10
REMARK    7  A    between atoms: C_14  and  O_15
REMARK    8  A    between atoms: C_21  and  O_22
REMARK                            x       y       z     vdW  Elec       q    Type
REMARK                         _______ _______ _______ _____ _____    ______ ____
ROOT
ATOM      1  C   UNL     1      -7.844   6.620 131.301  0.00  0.00    +0.000 A 
ATOM      2  C   UNL     1      -7.926   5.992 132.538  0.00  0.00    +0.000 A 
ATOM      3  C   UNL     1      -6.814   5.773 133.351  0.00  0.00    +0.000 A 
ATOM      4  I   UNL     1      -7.524   5.288 135.305  0.00  0.00    +0.000 I 
ATOM      5  C   UNL     1      -5.523   6.060 132.872  0.00  0.00    +0.000 A 
ATOM      6  C   UNL     1      -5.443   6.701 131.603  0.00  0.00    +0.000 A 
ATOM      7  I   UNL     1      -3.613   7.398 130.797  0.00  0.00    +0.000 I 
ATOM      8  C   UNL     1      -6.590   6.994 130.834  0.00  0.00    +0.000 A 
ENDROOT
BRANCH   1   9
ATOM      9  C   UNL     1      -9.141   6.958 130.607  0.00  0.00    +0.000 C 
BRANCH   9  10
ATOM     10  CA  UNL     1      -9.756   5.748 129.873  0.00  0.00    +0.000 C 
BRANCH  10  11
ATOM     11  N   UNL     1      -9.480   5.810 128.406  0.00  0.00    +0.000 NA
ATOM     12  H1  UNL     1      -9.141   4.873 128.142  0.00  0.00    +0.000 HD
ATOM     13  H2  UNL     1      -8.652   6.391 128.253  0.00  0.00    +0.000 HD
ENDBRANCH  10  11
BRANCH  10  14
ATOM     14  C   UNL     1     -11.254   5.691 130.151  0.00  0.00    +0.000 C 
ATOM     15  OXT UNL     1     -12.112   5.763 129.273  0.00  0.00    +0.000 OA
BRANCH  14  16
ATOM     16  O   UNL     1     -11.554   5.549 131.461  0.00  0.00    +0.000 OA
ATOM     17  H   UNL     1     -12.428   5.975 131.625  0.00  0.00    +0.000 HD
ENDBRANCH  14  16
ENDBRANCH  10  14
ENDBRANCH   9  10
ENDBRANCH   1   9
BRANCH   5  18
ATOM     18  O   UNL     1      -4.313   5.845 133.510  0.00  0.00    +0.000 OA
BRANCH  18  19
ATOM     19  C   UNL     1      -3.864   4.565 133.723  0.00  0.00    +0.000 A 
ATOM     20  C   UNL     1      -4.052   4.025 135.000  0.00  0.00    +0.000 A 
ATOM     21  C   UNL     1      -3.794   2.669 135.219  0.00  0.00    +0.000 A 
ATOM     22  I   UNL     1      -4.228   1.854 137.090  0.00  0.00    +0.000 I 
ATOM     23  C   UNL     1      -3.327   1.870 134.171  0.00  0.00    +0.000 A 
ATOM     24  C   UNL     1      -3.080   2.427 132.917  0.00  0.00    +0.000 A 
ATOM     25  C   UNL     1      -3.308   3.791 132.699  0.00  0.00    +0.000 A 
BRANCH  23  26
ATOM     26  O   UNL     1      -3.125   0.523 134.292  0.00  0.00    +0.000 OA
ATOM     27  H   UNL     1      -3.384   0.262 135.194  0.00  0.00    +0.000 HD
ENDBRANCH  23  26
ENDBRANCH  18  19
ENDBRANCH   5  18
TORSDOF 8
ENDMDL
MODEL 9
REMARK VINA RESULT:      -6.0      4.236      5.979
REMARK  Name = Liothyronine
REMARK  8 active torsions:
REMARK  status: ('A' for Active; 'I' for Inactive)
REMARK    1  A    between atoms: N_1  and  CA_2
REMARK    2  A    between atoms: CA_2  and  C_3
REMARK    3  A    between atoms: CA_2  and  C_21
REMARK    4  A    between atoms: C_3  and  C_4
REMARK    5  A    between atoms: C_8  and  O_9
REMARK    6  A    between atoms: O_9  and  C_10
REMARK    7  A    between atoms: C_14  and  O_15
REMARK    8  A    between atoms: C_21  and  O_22
REMARK                            x       y       z     vdW  Elec       q    Type
REMARK                         _______ _______ _______ _____ _____    ______ ____
ROOT
ATOM      1  C   UNL     1      -8.568  -0.905 125.999  0.00  0.00    +0.000 A 
ATOM      2  C   UNL     1      -7.988  -0.874 127.262  0.00  0.00    +0.000 A 
ATOM      3  C   UNL     1      -7.499   0.297 127.842  0.00  0.00    +0.000 A 
ATOM      4  I   UNL     1      -7.221  -0.078 129.926  0.00  0.00    +0.000 I 
ATOM      5  C   UNL     1      -7.445   1.486 127.093  0.00  0.00    +0.000 A 
ATOM      6  C   UNL     1      -8.038   1.450 125.798  0.00  0.00    +0.000 A 
ATOM      7  I   UNL     1      -8.243   3.180 124.595  0.00  0.00    +0.000 I 
ATOM      8  C   UNL     1      -8.609   0.274 125.264  0.00  0.00    +0.000 A 
ENDROOT
BRANCH   1   9
ATOM      9  C   UNL     1      -9.221  -2.195 125.567  0.00  0.00    +0.000 C 
BRANCH   9  10
ATOM     10  CA  UNL     1      -9.005  -2.497 124.069  0.00  0.00    +0.000 C 
BRANCH  10  11
ATOM     11  N   UNL     1     -10.015  -3.478 123.566  0.00  0.00    +0.000 NA
ATOM     12  H1  UNL     1     -10.795  -2.916 123.197  0.00  0.00    +0.000 HD
ATOM     13  H2  UNL     1     -10.444  -3.945 124.368  0.00  0.00    +0.000 HD
ENDBRANCH  10  11
BRANCH  10  14
ATOM     14  C   UNL     1      -7.585  -3.006 123.851  0.00  0.00    +0.000 C 
ATOM     15  OXT UNL     1      -7.157  -4.055 124.328  0.00  0.00    +0.000 OA
BRANCH  14  16
ATOM     16  O   UNL     1      -6.834  -2.192 123.076  0.00  0.00    +0.000 OA
ATOM     17  H   UNL     1      -5.905  -2.520 123.094  0.00  0.00    +0.000 HD
ENDBRANCH  14  16
ENDBRANCH  10  14
ENDBRANCH   9  10
ENDBRANCH   1   9
BRANCH   5  18
ATOM     18  O   UNL     1      -6.934   2.712 127.481  0.00  0.00    +0.000 OA
BRANCH  18  19
ATOM     19  C   UNL     1      -5.636   3.045 127.180  0.00  0.00    +0.000 A 
ATOM     20  C   UNL     1      -5.174   4.287 127.628  0.00  0.00    +0.000 A 
ATOM     21  C   UNL     1      -3.815   4.595 127.521  0.00  0.00    +0.000 A 
ATOM     22  I   UNL     1      -3.124   6.388 128.334  0.00  0.00    +0.000 I 
ATOM     23  C   UNL     1      -2.934   3.673 126.946  0.00  0.00    +0.000 A 
ATOM     24  C   UNL     1      -3.411   2.463 126.443  0.00  0.00    +0.000 A 
ATOM     25  C   UNL     1      -4.775   2.162 126.519  0.00  0.00    +0.000 A 
BRANCH  23  26
ATOM     26  O   UNL     1      -1.583   3.874 126.878  0.00  0.00    +0.000 OA
ATOM     27  H   UNL     1      -1.149   3.003 126.919  0.00  0.00    +0.000 HD
ENDBRANCH  23  26
ENDBRANCH  18  19
ENDBRANCH   5  18
TORSDOF 8
ENDMDL
