MODEL 1
REMARK VINA RESULT:      -5.0      0.000      0.000
REMARK  Name = Lipoic acid
REMARK  6 active torsions:
REMARK  status: ('A' for Active; 'I' for Inactive)
REMARK    1  A    between atoms: O_1  and  C_2
REMARK    2  A    between atoms: C_2  and  C_4
REMARK    3  A    between atoms: C_4  and  C_5
REMARK    4  A    between atoms: C_5  and  C_6
REMARK    5  A    between atoms: C_6  and  C_7
REMARK    6  A    between atoms: C_7  and  C_8
REMARK                            x       y       z     vdW  Elec       q    Type
REMARK                         _______ _______ _______ _____ _____    ______ ____
ROOT
ATOM      1  C   UNL     1     -11.706   7.909 129.782  0.00  0.00    +0.000 C 
ENDROOT
BRANCH   1   2
ATOM      2  C   UNL     1     -12.087   8.277 128.368  0.00  0.00    +0.000 C 
BRANCH   2   3
ATOM      3  C   UNL     1     -10.845   8.318 127.472  0.00  0.00    +0.000 C 
BRANCH   3   4
ATOM      4  C   UNL     1     -10.811   7.079 126.616  0.00  0.00    +0.000 C 
ATOM      5  O   UNL     1      -9.793   6.444 126.362  0.00  0.00    +0.000 OA
BRANCH   4   6
ATOM      6  O   UNL     1     -12.016   6.704 126.143  0.00  0.00    +0.000 OA
ATOM      7  H   UNL     1     -12.268   5.781 126.329  0.00  0.00    +0.000 HD
ENDBRANCH   4   6
ENDBRANCH   3   4
ENDBRANCH   2   3
ENDBRANCH   1   2
BRANCH   1   8
ATOM      8  C   UNL     1     -12.180   6.506 130.178  0.00  0.00    +0.000 C 
BRANCH   8   9
ATOM      9  C   UNL     1     -11.090   5.688 130.886  0.00  0.00    +0.000 C 
ATOM     10  C   UNL     1     -10.794   6.201 132.307  0.00  0.00    +0.000 C 
ATOM     11  C   UNL     1      -9.412   5.798 132.782  0.00  0.00    +0.000 C 
ATOM     12  S   UNL     1      -8.305   6.318 131.454  0.00  0.00    +0.000 S 
ATOM     13  S   UNL     1      -9.529   5.718 129.932  0.00  0.00    +0.000 S 
ENDBRANCH   8   9
ENDBRANCH   1   8
TORSDOF 6
ENDMDL
MODEL 2
REMARK VINA RESULT:      -4.9      7.694      9.144
REMARK  Name = Lipoic acid
REMARK  6 active torsions:
REMARK  status: ('A' for Active; 'I' for Inactive)
REMARK    1  A    between atoms: O_1  and  C_2
REMARK    2  A    between atoms: C_2  and  C_4
REMARK    3  A    between atoms: C_4  and  C_5
REMARK    4  A    between atoms: C_5  and  C_6
REMARK    5  A    between atoms: C_6  and  C_7
REMARK    6  A    between atoms: C_7  and  C_8
REMARK                            x       y       z     vdW  Elec       q    Type
REMARK                         _______ _______ _______ _____ _____    ______ ____
ROOT
ATOM      1  C   UNL     1      -6.177   3.516 122.311  0.00  0.00    +0.000 C 
ENDROOT
BRANCH   1   2
ATOM      2  C   UNL     1      -5.495   3.488 120.964  0.00  0.00    +0.000 C 
BRANCH   2   3
ATOM      3  C   UNL     1      -6.298   4.299 119.941  0.00  0.00    +0.000 C 
BRANCH   3   4
ATOM      4  C   UNL     1      -5.494   5.502 119.522  0.00  0.00    +0.000 C 
ATOM      5  O   UNL     1      -4.747   6.126 120.266  0.00  0.00    +0.000 OA
BRANCH   4   6
ATOM      6  O   UNL     1      -5.656   5.847 118.228  0.00  0.00    +0.000 OA
ATOM      7  H   UNL     1      -4.948   6.402 117.854  0.00  0.00    +0.000 HD
ENDBRANCH   4   6
ENDBRANCH   3   4
ENDBRANCH   2   3
ENDBRANCH   1   2
BRANCH   1   8
ATOM      8  C   UNL     1      -7.659   3.131 122.233  0.00  0.00    +0.000 C 
BRANCH   8   9
ATOM      9  C   UNL     1      -8.314   3.006 123.617  0.00  0.00    +0.000 C 
ATOM     10  C   UNL     1      -7.297   2.670 124.724  0.00  0.00    +0.000 C 
ATOM     11  C   UNL     1      -7.957   2.019 125.924  0.00  0.00    +0.000 C 
ATOM     12  S   UNL     1      -8.923   0.660 125.231  0.00  0.00    +0.000 S 
ATOM     13  S   UNL     1      -9.604   1.710 123.614  0.00  0.00    +0.000 S 
ENDBRANCH   8   9
ENDBRANCH   1   8
TORSDOF 6
ENDMDL
MODEL 3
REMARK VINA RESULT:      -4.8      1.491      1.925
REMARK  Name = Lipoic acid
REMARK  6 active torsions:
REMARK  status: ('A' for Active; 'I' for Inactive)
REMARK    1  A    between atoms: O_1  and  C_2
REMARK    2  A    between atoms: C_2  and  C_4
REMARK    3  A    between atoms: C_4  and  C_5
REMARK    4  A    between atoms: C_5  and  C_6
REMARK    5  A    between atoms: C_6  and  C_7
REMARK    6  A    between atoms: C_7  and  C_8
REMARK                            x       y       z     vdW  Elec       q    Type
REMARK                         _______ _______ _______ _____ _____    ______ ____
ROOT
ATOM      1  C   UNL     1     -12.970   7.250 130.434  0.00  0.00    +0.000 C 
ENDROOT
BRANCH   1   2
ATOM      2  C   UNL     1     -12.344   8.241 129.482  0.00  0.00    +0.000 C 
BRANCH   2   3
ATOM      3  C   UNL     1     -12.594   7.818 128.030  0.00  0.00    +0.000 C 
BRANCH   3   4
ATOM      4  C   UNL     1     -11.289   7.403 127.403  0.00  0.00    +0.000 C 
ATOM      5  O   UNL     1     -10.186   7.689 127.854  0.00  0.00    +0.000 OA
BRANCH   4   6
ATOM      6  O   UNL     1     -11.428   6.668 126.281  0.00  0.00    +0.000 OA
ATOM      7  H   UNL     1     -12.165   6.030 126.290  0.00  0.00    +0.000 HD
ENDBRANCH   4   6
ENDBRANCH   3   4
ENDBRANCH   2   3
ENDBRANCH   1   2
BRANCH   1   8
ATOM      8  C   UNL     1     -12.016   6.823 131.556  0.00  0.00    +0.000 C 
BRANCH   8   9
ATOM      9  C   UNL     1     -10.766   6.103 131.031  0.00  0.00    +0.000 C 
ATOM     10  C   UNL     1     -11.093   4.742 130.387  0.00  0.00    +0.000 C 
ATOM     11  C   UNL     1      -9.894   3.815 130.377  0.00  0.00    +0.000 C 
ATOM     12  S   UNL     1      -9.303   3.815 132.082  0.00  0.00    +0.000 S 
ATOM     13  S   UNL     1      -9.560   5.821 132.378  0.00  0.00    +0.000 S 
ENDBRANCH   8   9
ENDBRANCH   1   8
TORSDOF 6
ENDMDL
MODEL 4
REMARK VINA RESULT:      -4.4      2.033      2.542
REMARK  Name = Lipoic acid
REMARK  6 active torsions:
REMARK  status: ('A' for Active; 'I' for Inactive)
REMARK    1  A    between atoms: O_1  and  C_2
REMARK    2  A    between atoms: C_2  and  C_4
REMARK    3  A    between atoms: C_4  and  C_5
REMARK    4  A    between atoms: C_5  and  C_6
REMARK    5  A    between atoms: C_6  and  C_7
REMARK    6  A    between atoms: C_7  and  C_8
REMARK                            x       y       z     vdW  Elec       q    Type
REMARK                         _______ _______ _______ _____ _____    ______ ____
ROOT
ATOM      1  C   UNL     1     -11.820   6.690 131.455  0.00  0.00    +0.000 C 
ENDROOT
BRANCH   1   2
ATOM      2  C   UNL     1     -12.850   7.648 130.906  0.00  0.00    +0.000 C 
BRANCH   2   3
ATOM      3  C   UNL     1     -12.889   7.572 129.376  0.00  0.00    +0.000 C 
BRANCH   3   4
ATOM      4  C   UNL     1     -12.162   8.760 128.802  0.00  0.00    +0.000 C 
ATOM      5  O   UNL     1     -11.057   8.704 128.275  0.00  0.00    +0.000 OA
BRANCH   4   6
ATOM      6  O   UNL     1     -12.839   9.921 128.907  0.00  0.00    +0.000 OA
ATOM      7  H   UNL     1     -12.431  10.590 129.488  0.00  0.00    +0.000 HD
ENDBRANCH   4   6
ENDBRANCH   3   4
ENDBRANCH   2   3
ENDBRANCH   1   2
BRANCH   1   8
ATOM      8  C   UNL     1     -11.507   5.540 130.491  0.00  0.00    +0.000 C 
BRANCH   8   9
ATOM      9  C   UNL     1      -9.999   5.311 130.309  0.00  0.00    +0.000 C 
ATOM     10  C   UNL     1      -9.459   4.183 131.208  0.00  0.00    +0.000 C 
ATOM     11  C   UNL     1      -7.968   4.315 131.452  0.00  0.00    +0.000 C 
ATOM     12  S   UNL     1      -7.747   6.015 132.016  0.00  0.00    +0.000 S 
ATOM     13  S   UNL     1      -9.059   6.836 130.680  0.00  0.00    +0.000 S 
ENDBRANCH   8   9
ENDBRANCH   1   8
TORSDOF 6
ENDMDL
MODEL 5
REMARK VINA RESULT:      -4.3     10.254     10.831
REMARK  Name = Lipoic acid
REMARK  6 active torsions:
REMARK  status: ('A' for Active; 'I' for Inactive)
REMARK    1  A    between atoms: O_1  and  C_2
REMARK    2  A    between atoms: C_2  and  C_4
REMARK    3  A    between atoms: C_4  and  C_5
REMARK    4  A    between atoms: C_5  and  C_6
REMARK    5  A    between atoms: C_6  and  C_7
REMARK    6  A    between atoms: C_7  and  C_8
REMARK                            x       y       z     vdW  Elec       q    Type
REMARK                         _______ _______ _______ _____ _____    ______ ____
ROOT
ATOM      1  C   UNL     1      -7.987  -2.937 127.865  0.00  0.00    +0.000 C 
ENDROOT
BRANCH   1   2
ATOM      2  C   UNL     1      -9.014  -3.600 126.977  0.00  0.00    +0.000 C 
BRANCH   2   3
ATOM      3  C   UNL     1      -9.406  -2.668 125.826  0.00  0.00    +0.000 C 
BRANCH   3   4
ATOM      4  C   UNL     1      -9.034  -3.314 124.517  0.00  0.00    +0.000 C 
ATOM      5  O   UNL     1      -7.916  -3.740 124.251  0.00  0.00    +0.000 OA
BRANCH   4   6
ATOM      6  O   UNL     1     -10.053  -3.399 123.637  0.00  0.00    +0.000 OA
ATOM      7  H   UNL     1     -10.940  -3.251 124.013  0.00  0.00    +0.000 HD
ENDBRANCH   4   6
ENDBRANCH   3   4
ENDBRANCH   2   3
ENDBRANCH   1   2
BRANCH   1   8
ATOM      8  C   UNL     1      -8.138  -3.328 129.340  0.00  0.00    +0.000 C 
BRANCH   8   9
ATOM      9  C   UNL     1      -6.854  -3.096 130.150  0.00  0.00    +0.000 C 
ATOM     10  C   UNL     1      -6.020  -4.380 130.318  0.00  0.00    +0.000 C 
ATOM     11  C   UNL     1      -5.100  -4.307 131.521  0.00  0.00    +0.000 C 
ATOM     12  S   UNL     1      -6.174  -3.819 132.887  0.00  0.00    +0.000 S 
ATOM     13  S   UNL     1      -7.243  -2.446 131.815  0.00  0.00    +0.000 S 
ENDBRANCH   8   9
ENDBRANCH   1   8
TORSDOF 6
ENDMDL
MODEL 6
REMARK VINA RESULT:      -4.3      2.060      2.605
REMARK  Name = Lipoic acid
REMARK  6 active torsions:
REMARK  status: ('A' for Active; 'I' for Inactive)
REMARK    1  A    between atoms: O_1  and  C_2
REMARK    2  A    between atoms: C_2  and  C_4
REMARK    3  A    between atoms: C_4  and  C_5
REMARK    4  A    between atoms: C_5  and  C_6
REMARK    5  A    between atoms: C_6  and  C_7
REMARK    6  A    between atoms: C_7  and  C_8
REMARK                            x       y       z     vdW  Elec       q    Type
REMARK                         _______ _______ _______ _____ _____    ______ ____
ROOT
ATOM      1  C   UNL     1      -9.452   7.318 130.034  0.00  0.00    +0.000 C 
ENDROOT
BRANCH   1   2
ATOM      2  C   UNL     1     -10.764   7.695 129.388  0.00  0.00    +0.000 C 
BRANCH   2   3
ATOM      3  C   UNL     1     -10.528   8.228 127.971  0.00  0.00    +0.000 C 
BRANCH   3   4
ATOM      4  C   UNL     1     -10.887   7.158 126.973  0.00  0.00    +0.000 C 
ATOM      5  O   UNL     1     -12.030   6.915 126.603  0.00  0.00    +0.000 OA
BRANCH   4   6
ATOM      6  O   UNL     1      -9.828   6.472 126.499  0.00  0.00    +0.000 OA
ATOM      7  H   UNL     1      -9.996   5.533 126.296  0.00  0.00    +0.000 HD
ENDBRANCH   4   6
ENDBRANCH   3   4
ENDBRANCH   2   3
ENDBRANCH   1   2
BRANCH   1   8
ATOM      8  C   UNL     1      -9.636   6.465 131.294  0.00  0.00    +0.000 C 
BRANCH   8   9
ATOM      9  C   UNL     1      -8.928   5.105 131.199  0.00  0.00    +0.000 C 
ATOM     10  C   UNL     1      -9.820   4.016 130.574  0.00  0.00    +0.000 C 
ATOM     11  C   UNL     1      -9.377   2.621 130.968  0.00  0.00    +0.000 C 
ATOM     12  S   UNL     1      -9.256   2.674 132.769  0.00  0.00    +0.000 S 
ATOM     13  S   UNL     1      -8.398   4.528 132.852  0.00  0.00    +0.000 S 
ENDBRANCH   8   9
ENDBRANCH   1   8
TORSDOF 6
ENDMDL
MODEL 7
REMARK VINA RESULT:      -4.3      2.930      4.854
REMARK  Name = Lipoic acid
REMARK  6 active torsions:
REMARK  status: ('A' for Active; 'I' for Inactive)
REMARK    1  A    between atoms: O_1  and  C_2
REMARK    2  A    between atoms: C_2  and  C_4
REMARK    3  A    between atoms: C_4  and  C_5
REMARK    4  A    between atoms: C_5  and  C_6
REMARK    5  A    between atoms: C_6  and  C_7
REMARK    6  A    between atoms: C_7  and  C_8
REMARK                            x       y       z     vdW  Elec       q    Type
REMARK                         _______ _______ _______ _____ _____    ______ ____
ROOT
ATOM      1  C   UNL     1     -11.400   5.498 130.494  0.00  0.00    +0.000 C 
ENDROOT
BRANCH   1   2
ATOM      2  C   UNL     1     -10.075   5.130 131.118  0.00  0.00    +0.000 C 
BRANCH   2   3
ATOM      3  C   UNL     1      -9.513   6.312 131.915  0.00  0.00    +0.000 C 
BRANCH   3   4
ATOM      4  C   UNL     1      -8.126   6.629 131.420  0.00  0.00    +0.000 C 
ATOM      5  O   UNL     1      -7.886   7.296 130.420  0.00  0.00    +0.000 OA
BRANCH   4   6
ATOM      6  O   UNL     1      -7.139   6.116 132.182  0.00  0.00    +0.000 OA
ATOM      7  H   UNL     1      -7.258   6.224 133.144  0.00  0.00    +0.000 HD
ENDBRANCH   4   6
ENDBRANCH   3   4
ENDBRANCH   2   3
ENDBRANCH   1   2
BRANCH   1   8
ATOM      8  C   UNL     1     -11.761   6.974 130.697  0.00  0.00    +0.000 C 
BRANCH   8   9
ATOM      9  C   UNL     1     -12.185   7.667 129.393  0.00  0.00    +0.000 C 
ATOM     10  C   UNL     1     -12.936   6.721 128.438  0.00  0.00    +0.000 C 
ATOM     11  C   UNL     1     -12.866   7.192 126.999  0.00  0.00    +0.000 C 
ATOM     12  S   UNL     1     -11.108   7.468 126.695  0.00  0.00    +0.000 S 
ATOM     13  S   UNL     1     -10.730   8.335 128.508  0.00  0.00    +0.000 S 
ENDBRANCH   8   9
ENDBRANCH   1   8
TORSDOF 6
ENDMDL
MODEL 8
REMARK VINA RESULT:      -4.3      3.879      5.542
REMARK  Name = Lipoic acid
REMARK  6 active torsions:
REMARK  status: ('A' for Active; 'I' for Inactive)
REMARK    1  A    between atoms: O_1  and  C_2
REMARK    2  A    between atoms: C_2  and  C_4
REMARK    3  A    between atoms: C_4  and  C_5
REMARK    4  A    between atoms: C_5  and  C_6
REMARK    5  A    between atoms: C_6  and  C_7
REMARK    6  A    between atoms: C_7  and  C_8
REMARK                            x       y       z     vdW  Elec       q    Type
REMARK                         _______ _______ _______ _____ _____    ______ ____
ROOT
ATOM      1  C   UNL     1     -11.125   5.231 130.688  0.00  0.00    +0.000 C 
ENDROOT
BRANCH   1   2
ATOM      2  C   UNL     1      -9.920   4.465 131.181  0.00  0.00    +0.000 C 
BRANCH   2   3
ATOM      3  C   UNL     1     -10.004   2.999 130.746  0.00  0.00    +0.000 C 
BRANCH   3   4
ATOM      4  C   UNL     1      -9.960   2.116 131.966  0.00  0.00    +0.000 C 
ATOM      5  O   UNL     1      -9.996   0.892 131.933  0.00  0.00    +0.000 OA
BRANCH   4   6
ATOM      6  O   UNL     1      -9.868   2.792 133.130  0.00  0.00    +0.000 OA
ATOM      7  H   UNL     1      -9.222   3.522 133.137  0.00  0.00    +0.000 HD
ENDBRANCH   4   6
ENDBRANCH   3   4
ENDBRANCH   2   3
ENDBRANCH   1   2
BRANCH   1   8
ATOM      8  C   UNL     1     -10.915   6.749 130.717  0.00  0.00    +0.000 C 
BRANCH   8   9
ATOM      9  C   UNL     1     -11.721   7.481 129.634  0.00  0.00    +0.000 C 
ATOM     10  C   UNL     1     -12.683   6.545 128.878  0.00  0.00    +0.000 C 
ATOM     11  C   UNL     1     -13.047   7.088 127.510  0.00  0.00    +0.000 C 
ATOM     12  S   UNL     1     -11.462   7.467 126.734  0.00  0.00    +0.000 S 
ATOM     13  S   UNL     1     -10.608   8.264 128.411  0.00  0.00    +0.000 S 
ENDBRANCH   8   9
ENDBRANCH   1   8
TORSDOF 6
ENDMDL
MODEL 9
REMARK VINA RESULT:      -4.2      9.616     10.222
REMARK  Name = Lipoic acid
REMARK  6 active torsions:
REMARK  status: ('A' for Active; 'I' for Inactive)
REMARK    1  A    between atoms: O_1  and  C_2
REMARK    2  A    between atoms: C_2  and  C_4
REMARK    3  A    between atoms: C_4  and  C_5
REMARK    4  A    between atoms: C_5  and  C_6
REMARK    5  A    between atoms: C_6  and  C_7
REMARK    6  A    between atoms: C_7  and  C_8
REMARK                            x       y       z     vdW  Elec       q    Type
REMARK                         _______ _______ _______ _____ _____    ______ ____
ROOT
ATOM      1  C   UNL     1      -8.164  -2.462 127.247  0.00  0.00    +0.000 C 
ENDROOT
BRANCH   1   2
ATOM      2  C   UNL     1      -9.086  -2.484 126.051  0.00  0.00    +0.000 C 
BRANCH   2   3
ATOM      3  C   UNL     1      -8.652  -3.570 125.061  0.00  0.00    +0.000 C 
BRANCH   3   4
ATOM      4  C   UNL     1      -9.010  -3.138 123.663  0.00  0.00    +0.000 C 
ATOM      5  O   UNL     1      -8.280  -2.470 122.939  0.00  0.00    +0.000 OA
BRANCH   4   6
ATOM      6  O   UNL     1     -10.224  -3.558 123.252  0.00  0.00    +0.000 OA
ATOM      7  H   UNL     1     -10.781  -3.961 123.943  0.00  0.00    +0.000 HD
ENDBRANCH   4   6
ENDBRANCH   3   4
ENDBRANCH   2   3
ENDBRANCH   1   2
BRANCH   1   8
ATOM      8  C   UNL     1      -8.574  -3.466 128.330  0.00  0.00    +0.000 C 
BRANCH   8   9
ATOM      9  C   UNL     1      -7.984  -3.129 129.707  0.00  0.00    +0.000 C 
ATOM     10  C   UNL     1      -7.941  -1.613 129.977  0.00  0.00    +0.000 C 
ATOM     11  C   UNL     1      -6.904  -1.250 131.021  0.00  0.00    +0.000 C 
ATOM     12  S   UNL     1      -5.386  -2.044 130.451  0.00  0.00    +0.000 S 
ATOM     13  S   UNL     1      -6.284  -3.785 129.867  0.00  0.00    +0.000 S 
ENDBRANCH   8   9
ENDBRANCH   1   8
TORSDOF 6
ENDMDL
