MODEL 1
REMARK VINA RESULT:      -6.2      0.000      0.000
REMARK  Name = Lisdexamfetamine
REMARK  11 active torsions:
REMARK  status: ('A' for Active; 'I' for Inactive)
REMARK    1  A    between atoms: C_1  and  C_2
REMARK    2  A    between atoms: C_2  and  C_3
REMARK    3  A    between atoms: C_2  and  N_10
REMARK    4  A    between atoms: C_3  and  C_4
REMARK    5  A    between atoms: C_11  and  C_13
REMARK    6  A    between atoms: C_13  and  N_14
REMARK    7  A    between atoms: C_13  and  C_15
REMARK    8  A    between atoms: C_15  and  C_16
REMARK    9  A    between atoms: C_16  and  C_17
REMARK   10  A    between atoms: C_17  and  C_18
REMARK   11  A    between atoms: C_18  and  N_19
REMARK                            x       y       z     vdW  Elec       q    Type
REMARK                         _______ _______ _______ _____ _____    ______ ____
ROOT
ATOM      1  N   UNL     1     -10.643   5.604 131.821  0.00  0.00    +0.000 N 
ATOM      2  C   UNL     1     -11.111   5.679 130.521  0.00  0.00    +0.000 C 
ATOM      3  O   UNL     1     -10.451   5.276 129.560  0.00  0.00    +0.000 OA
ATOM      4  H   UNL     1     -11.194   5.985 132.579  0.00  0.00    +0.000 HD
ENDROOT
BRANCH   1   6
ATOM      5  C   UNL     1      -8.272   6.073 132.349  0.00  0.00    +0.000 C 
ATOM      6  C   UNL     1      -9.341   5.004 132.100  0.00  0.00    +0.000 C 
BRANCH   6   7
ATOM      7  C   UNL     1      -9.423   4.032 133.306  0.00  0.00    +0.000 C 
BRANCH   7   8
ATOM      8  C   UNL     1      -8.937   2.650 132.955  0.00  0.00    +0.000 A 
ATOM      9  C   UNL     1      -7.665   2.209 133.333  0.00  0.00    +0.000 A 
ATOM     10  C   UNL     1      -7.209   0.965 132.902  0.00  0.00    +0.000 A 
ATOM     11  C   UNL     1      -8.044   0.132 132.155  0.00  0.00    +0.000 A 
ATOM     12  C   UNL     1      -9.319   0.557 131.796  0.00  0.00    +0.000 A 
ATOM     13  C   UNL     1      -9.763   1.811 132.195  0.00  0.00    +0.000 A 
ENDBRANCH   7   8
ENDBRANCH   6   7
ENDBRANCH   1   6
BRANCH   2  14
ATOM     14  C   UNL     1     -12.513   6.294 130.355  0.00  0.00    +0.000 C 
BRANCH  14  15
ATOM     15  N   UNL     1     -12.808   7.185 131.493  0.00  0.00    +0.000 NA
ATOM     16  H   UNL     1     -12.612   8.145 131.206  0.00  0.00    +0.000 HD
ATOM     17  H   UNL     1     -12.194   6.984 132.276  0.00  0.00    +0.000 HD
ENDBRANCH  14  15
BRANCH  14  18
ATOM     18  C   UNL     1     -12.564   7.086 129.039  0.00  0.00    +0.000 C 
BRANCH  18  19
ATOM     19  C   UNL     1     -11.804   8.404 129.116  0.00  0.00    +0.000 C 
BRANCH  19  20
ATOM     20  C   UNL     1     -10.677   8.446 128.089  0.00  0.00    +0.000 C 
BRANCH  20  21
ATOM     21  C   UNL     1     -11.043   7.598 126.877  0.00  0.00    +0.000 C 
BRANCH  21  22
ATOM     22  N   UNL     1     -10.027   6.578 126.658  0.00  0.00    +0.000 NA
ATOM     23  H   UNL     1      -9.186   7.014 126.280  0.00  0.00    +0.000 HD
ATOM     24  H   UNL     1     -10.355   5.925 125.950  0.00  0.00    +0.000 HD
ENDBRANCH  21  22
ENDBRANCH  20  21
ENDBRANCH  19  20
ENDBRANCH  18  19
ENDBRANCH  14  18
ENDBRANCH   2  14
TORSDOF 10
ENDMDL
MODEL 2
REMARK VINA RESULT:      -6.2      2.156      3.228
REMARK  Name = Lisdexamfetamine
REMARK  11 active torsions:
REMARK  status: ('A' for Active; 'I' for Inactive)
REMARK    1  A    between atoms: C_1  and  C_2
REMARK    2  A    between atoms: C_2  and  C_3
REMARK    3  A    between atoms: C_2  and  N_10
REMARK    4  A    between atoms: C_3  and  C_4
REMARK    5  A    between atoms: C_11  and  C_13
REMARK    6  A    between atoms: C_13  and  N_14
REMARK    7  A    between atoms: C_13  and  C_15
REMARK    8  A    between atoms: C_15  and  C_16
REMARK    9  A    between atoms: C_16  and  C_17
REMARK   10  A    between atoms: C_17  and  C_18
REMARK   11  A    between atoms: C_18  and  N_19
REMARK                            x       y       z     vdW  Elec       q    Type
REMARK                         _______ _______ _______ _____ _____    ______ ____
ROOT
ATOM      1  N   UNL     1     -10.562   6.701 129.983  0.00  0.00    +0.000 N 
ATOM      2  C   UNL     1     -10.327   6.903 128.634  0.00  0.00    +0.000 C 
ATOM      3  O   UNL     1      -9.567   6.181 127.984  0.00  0.00    +0.000 OA
ATOM      4  H   UNL     1     -11.158   7.340 130.493  0.00  0.00    +0.000 HD
ENDROOT
BRANCH   1   6
ATOM      5  C   UNL     1      -9.672   5.917 132.154  0.00  0.00    +0.000 C 
ATOM      6  C   UNL     1      -9.929   5.585 130.681  0.00  0.00    +0.000 C 
BRANCH   6   7
ATOM      7  C   UNL     1     -10.782   4.295 130.558  0.00  0.00    +0.000 C 
BRANCH   7   8
ATOM      8  C   UNL     1      -9.943   3.049 130.646  0.00  0.00    +0.000 A 
ATOM      9  C   UNL     1      -9.024   2.718 129.645  0.00  0.00    +0.000 A 
ATOM     10  C   UNL     1      -8.341   1.505 129.708  0.00  0.00    +0.000 A 
ATOM     11  C   UNL     1      -8.518   0.656 130.802  0.00  0.00    +0.000 A 
ATOM     12  C   UNL     1      -9.413   0.992 131.813  0.00  0.00    +0.000 A 
ATOM     13  C   UNL     1     -10.122   2.183 131.734  0.00  0.00    +0.000 A 
ENDBRANCH   7   8
ENDBRANCH   6   7
ENDBRANCH   1   6
BRANCH   2  14
ATOM     14  C   UNL     1     -11.081   8.086 127.999  0.00  0.00    +0.000 C 
BRANCH  14  15
ATOM     15  N   UNL     1     -10.928   8.048 126.532  0.00  0.00    +0.000 NA
ATOM     16  H   UNL     1      -9.970   7.765 126.317  0.00  0.00    +0.000 HD
ATOM     17  H   UNL     1     -11.054   8.974 126.134  0.00  0.00    +0.000 HD
ENDBRANCH  14  15
BRANCH  14  18
ATOM     18  C   UNL     1     -12.568   7.997 128.376  0.00  0.00    +0.000 C 
BRANCH  18  19
ATOM     19  C   UNL     1     -13.184   9.361 128.664  0.00  0.00    +0.000 C 
BRANCH  19  20
ATOM     20  C   UNL     1     -13.105   9.694 130.150  0.00  0.00    +0.000 C 
BRANCH  20  21
ATOM     21  C   UNL     1     -13.501  11.147 130.382  0.00  0.00    +0.000 C 
BRANCH  21  22
ATOM     22  N   UNL     1     -13.409  11.893 129.136  0.00  0.00    +0.000 NA
ATOM     23  H   UNL     1     -14.339  11.993 128.732  0.00  0.00    +0.000 HD
ATOM     24  H   UNL     1     -12.859  11.360 128.465  0.00  0.00    +0.000 HD
ENDBRANCH  21  22
ENDBRANCH  20  21
ENDBRANCH  19  20
ENDBRANCH  18  19
ENDBRANCH  14  18
ENDBRANCH   2  14
TORSDOF 10
ENDMDL
MODEL 3
REMARK VINA RESULT:      -6.2      7.679      9.050
REMARK  Name = Lisdexamfetamine
REMARK  11 active torsions:
REMARK  status: ('A' for Active; 'I' for Inactive)
REMARK    1  A    between atoms: C_1  and  C_2
REMARK    2  A    between atoms: C_2  and  C_3
REMARK    3  A    between atoms: C_2  and  N_10
REMARK    4  A    between atoms: C_3  and  C_4
REMARK    5  A    between atoms: C_11  and  C_13
REMARK    6  A    between atoms: C_13  and  N_14
REMARK    7  A    between atoms: C_13  and  C_15
REMARK    8  A    between atoms: C_15  and  C_16
REMARK    9  A    between atoms: C_16  and  C_17
REMARK   10  A    between atoms: C_17  and  C_18
REMARK   11  A    between atoms: C_18  and  N_19
REMARK                            x       y       z     vdW  Elec       q    Type
REMARK                         _______ _______ _______ _____ _____    ______ ____
ROOT
ATOM      1  N   UNL     1      -7.138   0.491 123.457  0.00  0.00    +0.000 N 
ATOM      2  C   UNL     1      -8.359   1.141 123.425  0.00  0.00    +0.000 C 
ATOM      3  O   UNL     1      -9.424   0.551 123.624  0.00  0.00    +0.000 OA
ATOM      4  H   UNL     1      -6.289   0.999 123.247  0.00  0.00    +0.000 HD
ENDROOT
BRANCH   1   6
ATOM      5  C   UNL     1      -6.416  -1.726 122.630  0.00  0.00    +0.000 C 
ATOM      6  C   UNL     1      -7.073  -0.936 123.766  0.00  0.00    +0.000 C 
BRANCH   6   7
ATOM      7  C   UNL     1      -6.323  -1.183 125.101  0.00  0.00    +0.000 C 
BRANCH   7   8
ATOM      8  C   UNL     1      -7.125  -2.029 126.054  0.00  0.00    +0.000 A 
ATOM      9  C   UNL     1      -8.271  -2.710 125.634  0.00  0.00    +0.000 A 
ATOM     10  C   UNL     1      -9.046  -3.398 126.566  0.00  0.00    +0.000 A 
ATOM     11  C   UNL     1      -8.643  -3.466 127.900  0.00  0.00    +0.000 A 
ATOM     12  C   UNL     1      -7.490  -2.809 128.319  0.00  0.00    +0.000 A 
ATOM     13  C   UNL     1      -6.735  -2.093 127.400  0.00  0.00    +0.000 A 
ENDBRANCH   7   8
ENDBRANCH   6   7
ENDBRANCH   1   6
BRANCH   2  14
ATOM     14  C   UNL     1      -8.299   2.651 123.130  0.00  0.00    +0.000 C 
BRANCH  14  15
ATOM     15  N   UNL     1      -8.770   3.411 124.304  0.00  0.00    +0.000 NA
ATOM     16  H   UNL     1      -8.092   3.287 125.057  0.00  0.00    +0.000 HD
ATOM     17  H   UNL     1      -9.652   3.040 124.642  0.00  0.00    +0.000 HD
ENDBRANCH  14  15
BRANCH  14  18
ATOM     18  C   UNL     1      -6.851   3.043 122.795  0.00  0.00    +0.000 C 
BRANCH  18  19
ATOM     19  C   UNL     1      -6.705   3.606 121.387  0.00  0.00    +0.000 C 
BRANCH  19  20
ATOM     20  C   UNL     1      -5.242   3.890 121.061  0.00  0.00    +0.000 C 
BRANCH  20  21
ATOM     21  C   UNL     1      -5.130   5.150 120.212  0.00  0.00    +0.000 C 
BRANCH  21  22
ATOM     22  N   UNL     1      -4.324   6.146 120.903  0.00  0.00    +0.000 NA
ATOM     23  H   UNL     1      -3.837   5.706 121.682  0.00  0.00    +0.000 HD
ATOM     24  H   UNL     1      -4.937   6.851 121.307  0.00  0.00    +0.000 HD
ENDBRANCH  21  22
ENDBRANCH  20  21
ENDBRANCH  19  20
ENDBRANCH  18  19
ENDBRANCH  14  18
ENDBRANCH   2  14
TORSDOF 10
ENDMDL
MODEL 4
REMARK VINA RESULT:      -6.2      8.163     11.348
REMARK  Name = Lisdexamfetamine
REMARK  11 active torsions:
REMARK  status: ('A' for Active; 'I' for Inactive)
REMARK    1  A    between atoms: C_1  and  C_2
REMARK    2  A    between atoms: C_2  and  C_3
REMARK    3  A    between atoms: C_2  and  N_10
REMARK    4  A    between atoms: C_3  and  C_4
REMARK    5  A    between atoms: C_11  and  C_13
REMARK    6  A    between atoms: C_13  and  N_14
REMARK    7  A    between atoms: C_13  and  C_15
REMARK    8  A    between atoms: C_15  and  C_16
REMARK    9  A    between atoms: C_16  and  C_17
REMARK   10  A    between atoms: C_17  and  C_18
REMARK   11  A    between atoms: C_18  and  N_19
REMARK                            x       y       z     vdW  Elec       q    Type
REMARK                         _______ _______ _______ _____ _____    ______ ____
ROOT
ATOM      1  N   UNL     1      -7.620   1.996 123.627  0.00  0.00    +0.000 N 
ATOM      2  C   UNL     1      -8.896   1.638 123.227  0.00  0.00    +0.000 C 
ATOM      3  O   UNL     1      -9.610   2.390 122.558  0.00  0.00    +0.000 OA
ATOM      4  H   UNL     1      -7.080   1.372 124.211  0.00  0.00    +0.000 HD
ENDROOT
BRANCH   1   6
ATOM      5  C   UNL     1      -6.536   4.064 124.444  0.00  0.00    +0.000 C 
ATOM      6  C   UNL     1      -7.061   3.287 123.233  0.00  0.00    +0.000 C 
BRANCH   6   7
ATOM      7  C   UNL     1      -5.939   3.109 122.177  0.00  0.00    +0.000 C 
BRANCH   7   8
ATOM      8  C   UNL     1      -6.187   3.932 120.941  0.00  0.00    +0.000 A 
ATOM      9  C   UNL     1      -7.385   3.831 120.228  0.00  0.00    +0.000 A 
ATOM     10  C   UNL     1      -7.539   4.529 119.032  0.00  0.00    +0.000 A 
ATOM     11  C   UNL     1      -6.529   5.382 118.583  0.00  0.00    +0.000 A 
ATOM     12  C   UNL     1      -5.343   5.504 119.301  0.00  0.00    +0.000 A 
ATOM     13  C   UNL     1      -5.174   4.782 120.475  0.00  0.00    +0.000 A 
ENDBRANCH   7   8
ENDBRANCH   6   7
ENDBRANCH   1   6
BRANCH   2  14
ATOM     14  C   UNL     1      -9.361   0.238 123.667  0.00  0.00    +0.000 C 
BRANCH  14  15
ATOM     15  N   UNL     1     -10.045  -0.438 122.548  0.00  0.00    +0.000 NA
ATOM     16  H   UNL     1      -9.340  -0.714 121.863  0.00  0.00    +0.000 HD
ATOM     17  H   UNL     1     -10.677   0.200 122.075  0.00  0.00    +0.000 HD
ENDBRANCH  14  15
BRANCH  14  18
ATOM     18  C   UNL     1      -8.140  -0.583 124.111  0.00  0.00    +0.000 C 
BRANCH  18  19
ATOM     19  C   UNL     1      -8.278  -1.122 125.530  0.00  0.00    +0.000 C 
BRANCH  19  20
ATOM     20  C   UNL     1      -9.123  -2.392 125.552  0.00  0.00    +0.000 C 
BRANCH  20  21
ATOM     21  C   UNL     1      -8.785  -3.264 124.349  0.00  0.00    +0.000 C 
BRANCH  21  22
ATOM     22  N   UNL     1      -9.952  -3.397 123.487  0.00  0.00    +0.000 NA
ATOM     23  H   UNL     1      -9.806  -2.857 122.635  0.00  0.00    +0.000 HD
ATOM     24  H   UNL     1     -10.760  -2.989 123.952  0.00  0.00    +0.000 HD
ENDBRANCH  21  22
ENDBRANCH  20  21
ENDBRANCH  19  20
ENDBRANCH  18  19
ENDBRANCH  14  18
ENDBRANCH   2  14
TORSDOF 10
ENDMDL
MODEL 5
REMARK VINA RESULT:      -6.1      6.661      8.176
REMARK  Name = Lisdexamfetamine
REMARK  11 active torsions:
REMARK  status: ('A' for Active; 'I' for Inactive)
REMARK    1  A    between atoms: C_1  and  C_2
REMARK    2  A    between atoms: C_2  and  C_3
REMARK    3  A    between atoms: C_2  and  N_10
REMARK    4  A    between atoms: C_3  and  C_4
REMARK    5  A    between atoms: C_11  and  C_13
REMARK    6  A    between atoms: C_13  and  N_14
REMARK    7  A    between atoms: C_13  and  C_15
REMARK    8  A    between atoms: C_15  and  C_16
REMARK    9  A    between atoms: C_16  and  C_17
REMARK   10  A    between atoms: C_17  and  C_18
REMARK   11  A    between atoms: C_18  and  N_19
REMARK                            x       y       z     vdW  Elec       q    Type
REMARK                         _______ _______ _______ _____ _____    ______ ____
ROOT
ATOM      1  N   UNL     1      -8.669  -0.520 123.796  0.00  0.00    +0.000 N 
ATOM      2  C   UNL     1      -9.313   0.547 124.395  0.00  0.00    +0.000 C 
ATOM      3  O   UNL     1     -10.086   0.399 125.345  0.00  0.00    +0.000 OA
ATOM      4  H   UNL     1      -8.076  -0.366 122.991  0.00  0.00    +0.000 HD
ENDROOT
BRANCH   1   6
ATOM      5  C   UNL     1      -9.223  -2.851 123.177  0.00  0.00    +0.000 C 
ATOM      6  C   UNL     1      -8.864  -1.876 124.304  0.00  0.00    +0.000 C 
BRANCH   6   7
ATOM      7  C   UNL     1      -7.609  -2.372 125.068  0.00  0.00    +0.000 C 
BRANCH   7   8
ATOM      8  C   UNL     1      -7.898  -2.640 126.521  0.00  0.00    +0.000 A 
ATOM      9  C   UNL     1      -7.247  -1.930 127.534  0.00  0.00    +0.000 A 
ATOM     10  C   UNL     1      -7.462  -2.276 128.867  0.00  0.00    +0.000 A 
ATOM     11  C   UNL     1      -8.376  -3.279 129.193  0.00  0.00    +0.000 A 
ATOM     12  C   UNL     1      -9.044  -3.973 128.188  0.00  0.00    +0.000 A 
ATOM     13  C   UNL     1      -8.805  -3.654 126.858  0.00  0.00    +0.000 A 
ENDBRANCH   7   8
ENDBRANCH   6   7
ENDBRANCH   1   6
BRANCH   2  14
ATOM     14  C   UNL     1      -8.998   1.931 123.800  0.00  0.00    +0.000 C 
BRANCH  14  15
ATOM     15  N   UNL     1      -9.375   2.988 124.759  0.00  0.00    +0.000 NA
ATOM     16  H   UNL     1     -10.107   2.619 125.369  0.00  0.00    +0.000 HD
ATOM     17  H   UNL     1      -9.775   3.786 124.275  0.00  0.00    +0.000 HD
ENDBRANCH  14  15
BRANCH  14  18
ATOM     18  C   UNL     1      -7.496   2.016 123.488  0.00  0.00    +0.000 C 
BRANCH  18  19
ATOM     19  C   UNL     1      -6.703   2.705 124.592  0.00  0.00    +0.000 C 
BRANCH  19  20
ATOM     20  C   UNL     1      -6.060   3.991 124.082  0.00  0.00    +0.000 C 
BRANCH  20  21
ATOM     21  C   UNL     1      -6.248   5.108 125.101  0.00  0.00    +0.000 C 
BRANCH  21  22
ATOM     22  N   UNL     1      -7.657   5.459 125.201  0.00  0.00    +0.000 NA
ATOM     23  H   UNL     1      -7.941   5.961 124.360  0.00  0.00    +0.000 HD
ATOM     24  H   UNL     1      -7.788   6.103 125.979  0.00  0.00    +0.000 HD
ENDBRANCH  21  22
ENDBRANCH  20  21
ENDBRANCH  19  20
ENDBRANCH  18  19
ENDBRANCH  14  18
ENDBRANCH   2  14
TORSDOF 10
ENDMDL
MODEL 6
REMARK VINA RESULT:      -5.9      6.445      7.808
REMARK  Name = Lisdexamfetamine
REMARK  11 active torsions:
REMARK  status: ('A' for Active; 'I' for Inactive)
REMARK    1  A    between atoms: C_1  and  C_2
REMARK    2  A    between atoms: C_2  and  C_3
REMARK    3  A    between atoms: C_2  and  N_10
REMARK    4  A    between atoms: C_3  and  C_4
REMARK    5  A    between atoms: C_11  and  C_13
REMARK    6  A    between atoms: C_13  and  N_14
REMARK    7  A    between atoms: C_13  and  C_15
REMARK    8  A    between atoms: C_15  and  C_16
REMARK    9  A    between atoms: C_16  and  C_17
REMARK   10  A    between atoms: C_17  and  C_18
REMARK   11  A    between atoms: C_18  and  N_19
REMARK                            x       y       z     vdW  Elec       q    Type
REMARK                         _______ _______ _______ _____ _____    ______ ____
ROOT
ATOM      1  N   UNL     1      -7.823   1.832 125.024  0.00  0.00    +0.000 N 
ATOM      2  C   UNL     1      -7.846   3.165 125.394  0.00  0.00    +0.000 C 
ATOM      3  O   UNL     1      -8.314   3.539 126.473  0.00  0.00    +0.000 OA
ATOM      4  H   UNL     1      -7.471   1.567 124.113  0.00  0.00    +0.000 HD
ENDROOT
BRANCH   1   6
ATOM      5  C   UNL     1      -9.823   0.539 125.695  0.00  0.00    +0.000 C 
ATOM      6  C   UNL     1      -8.333   0.807 125.932  0.00  0.00    +0.000 C 
BRANCH   6   7
ATOM      7  C   UNL     1      -7.519  -0.507 125.802  0.00  0.00    +0.000 C 
BRANCH   7   8
ATOM      8  C   UNL     1      -7.920  -1.527 126.834  0.00  0.00    +0.000 A 
ATOM      9  C   UNL     1      -7.617  -1.350 128.187  0.00  0.00    +0.000 A 
ATOM     10  C   UNL     1      -7.911  -2.363 129.099  0.00  0.00    +0.000 A 
ATOM     11  C   UNL     1      -8.569  -3.518 128.675  0.00  0.00    +0.000 A 
ATOM     12  C   UNL     1      -8.894  -3.689 127.333  0.00  0.00    +0.000 A 
ATOM     13  C   UNL     1      -8.570  -2.697 126.417  0.00  0.00    +0.000 A 
ENDBRANCH   7   8
ENDBRANCH   6   7
ENDBRANCH   1   6
BRANCH   2  14
ATOM     14  C   UNL     1      -7.245   4.148 124.374  0.00  0.00    +0.000 C 
BRANCH  14  15
ATOM     15  N   UNL     1      -6.857   5.400 125.051  0.00  0.00    +0.000 NA
ATOM     16  H   UNL     1      -6.119   5.184 125.724  0.00  0.00    +0.000 HD
ATOM     17  H   UNL     1      -7.635   5.777 125.584  0.00  0.00    +0.000 HD
ENDBRANCH  14  15
BRANCH  14  18
ATOM     18  C   UNL     1      -6.016   3.503 123.715  0.00  0.00    +0.000 C 
BRANCH  18  19
ATOM     19  C   UNL     1      -5.288   4.452 122.771  0.00  0.00    +0.000 C 
BRANCH  19  20
ATOM     20  C   UNL     1      -5.297   3.915 121.343  0.00  0.00    +0.000 C 
BRANCH  20  21
ATOM     21  C   UNL     1      -5.138   5.062 120.353  0.00  0.00    +0.000 C 
BRANCH  21  22
ATOM     22  N   UNL     1      -4.314   6.113 120.935  0.00  0.00    +0.000 NA
ATOM     23  H   UNL     1      -4.274   5.989 121.946  0.00  0.00    +0.000 HD
ATOM     24  H   UNL     1      -4.757   7.015 120.772  0.00  0.00    +0.000 HD
ENDBRANCH  21  22
ENDBRANCH  20  21
ENDBRANCH  19  20
ENDBRANCH  18  19
ENDBRANCH  14  18
ENDBRANCH   2  14
TORSDOF 10
ENDMDL
MODEL 7
REMARK VINA RESULT:      -5.8      1.196      1.525
REMARK  Name = Lisdexamfetamine
REMARK  11 active torsions:
REMARK  status: ('A' for Active; 'I' for Inactive)
REMARK    1  A    between atoms: C_1  and  C_2
REMARK    2  A    between atoms: C_2  and  C_3
REMARK    3  A    between atoms: C_2  and  N_10
REMARK    4  A    between atoms: C_3  and  C_4
REMARK    5  A    between atoms: C_11  and  C_13
REMARK    6  A    between atoms: C_13  and  N_14
REMARK    7  A    between atoms: C_13  and  C_15
REMARK    8  A    between atoms: C_15  and  C_16
REMARK    9  A    between atoms: C_16  and  C_17
REMARK   10  A    between atoms: C_17  and  C_18
REMARK   11  A    between atoms: C_18  and  N_19
REMARK                            x       y       z     vdW  Elec       q    Type
REMARK                         _______ _______ _______ _____ _____    ______ ____
ROOT
ATOM      1  N   UNL     1     -10.596   4.921 131.655  0.00  0.00    +0.000 N 
ATOM      2  C   UNL     1     -11.005   5.319 130.395  0.00  0.00    +0.000 C 
ATOM      3  O   UNL     1     -10.340   5.084 129.383  0.00  0.00    +0.000 OA
ATOM      4  H   UNL     1     -11.146   5.170 132.467  0.00  0.00    +0.000 HD
ENDROOT
BRANCH   1   6
ATOM      5  C   UNL     1      -8.385   4.886 132.766  0.00  0.00    +0.000 C 
ATOM      6  C   UNL     1      -9.355   4.168 131.821  0.00  0.00    +0.000 C 
BRANCH   6   7
ATOM      7  C   UNL     1      -9.640   2.731 132.329  0.00  0.00    +0.000 C 
BRANCH   7   8
ATOM      8  C   UNL     1      -9.060   1.682 131.418  0.00  0.00    +0.000 A 
ATOM      9  C   UNL     1      -8.966   0.345 131.816  0.00  0.00    +0.000 A 
ATOM     10  C   UNL     1      -8.329  -0.579 130.988  0.00  0.00    +0.000 A 
ATOM     11  C   UNL     1      -7.851  -0.187 129.737  0.00  0.00    +0.000 A 
ATOM     12  C   UNL     1      -7.964   1.138 129.326  0.00  0.00    +0.000 A 
ATOM     13  C   UNL     1      -8.566   2.068 130.164  0.00  0.00    +0.000 A 
ENDBRANCH   7   8
ENDBRANCH   6   7
ENDBRANCH   1   6
BRANCH   2  14
ATOM     14  C   UNL     1     -12.348   6.070 130.340  0.00  0.00    +0.000 C 
BRANCH  14  15
ATOM     15  N   UNL     1     -12.494   6.927 131.532  0.00  0.00    +0.000 NA
ATOM     16  H   UNL     1     -12.124   7.852 131.308  0.00  0.00    +0.000 HD
ATOM     17  H   UNL     1     -11.936   6.569 132.302  0.00  0.00    +0.000 HD
ENDBRANCH  14  15
BRANCH  14  18
ATOM     18  C   UNL     1     -12.395   6.928 129.066  0.00  0.00    +0.000 C 
BRANCH  18  19
ATOM     19  C   UNL     1     -11.635   8.241 129.213  0.00  0.00    +0.000 C 
BRANCH  19  20
ATOM     20  C   UNL     1     -10.538   8.357 128.160  0.00  0.00    +0.000 C 
BRANCH  20  21
ATOM     21  C   UNL     1     -10.948   7.616 126.893  0.00  0.00    +0.000 C 
BRANCH  21  22
ATOM     22  N   UNL     1      -9.993   6.556 126.605  0.00  0.00    +0.000 NA
ATOM     23  H   UNL     1      -9.904   6.447 125.595  0.00  0.00    +0.000 HD
ATOM     24  H   UNL     1     -10.355   5.673 126.959  0.00  0.00    +0.000 HD
ENDBRANCH  21  22
ENDBRANCH  20  21
ENDBRANCH  19  20
ENDBRANCH  18  19
ENDBRANCH  14  18
ENDBRANCH   2  14
TORSDOF 10
ENDMDL
MODEL 8
REMARK VINA RESULT:      -5.7      6.952      8.285
REMARK  Name = Lisdexamfetamine
REMARK  11 active torsions:
REMARK  status: ('A' for Active; 'I' for Inactive)
REMARK    1  A    between atoms: C_1  and  C_2
REMARK    2  A    between atoms: C_2  and  C_3
REMARK    3  A    between atoms: C_2  and  N_10
REMARK    4  A    between atoms: C_3  and  C_4
REMARK    5  A    between atoms: C_11  and  C_13
REMARK    6  A    between atoms: C_13  and  N_14
REMARK    7  A    between atoms: C_13  and  C_15
REMARK    8  A    between atoms: C_15  and  C_16
REMARK    9  A    between atoms: C_16  and  C_17
REMARK   10  A    between atoms: C_17  and  C_18
REMARK   11  A    between atoms: C_18  and  N_19
REMARK                            x       y       z     vdW  Elec       q    Type
REMARK                         _______ _______ _______ _____ _____    ______ ____
ROOT
ATOM      1  N   UNL     1      -3.967   4.265 126.063  0.00  0.00    +0.000 N 
ATOM      2  C   UNL     1      -5.303   3.912 126.136  0.00  0.00    +0.000 C 
ATOM      3  O   UNL     1      -5.778   3.337 127.119  0.00  0.00    +0.000 OA
ATOM      4  H   UNL     1      -3.603   4.697 125.224  0.00  0.00    +0.000 HD
ENDROOT
BRANCH   1   6
ATOM      5  C   UNL     1      -1.857   3.166 126.745  0.00  0.00    +0.000 C 
ATOM      6  C   UNL     1      -3.071   3.991 127.185  0.00  0.00    +0.000 C 
BRANCH   6   7
ATOM      7  C   UNL     1      -2.613   5.307 127.866  0.00  0.00    +0.000 C 
BRANCH   7   8
ATOM      8  C   UNL     1      -2.661   5.215 129.369  0.00  0.00    +0.000 A 
ATOM      9  C   UNL     1      -1.965   6.120 130.175  0.00  0.00    +0.000 A 
ATOM     10  C   UNL     1      -1.948   5.942 131.557  0.00  0.00    +0.000 A 
ATOM     11  C   UNL     1      -2.680   4.907 132.140  0.00  0.00    +0.000 A 
ATOM     12  C   UNL     1      -3.394   4.017 131.343  0.00  0.00    +0.000 A 
ATOM     13  C   UNL     1      -3.383   4.171 129.963  0.00  0.00    +0.000 A 
ENDBRANCH   7   8
ENDBRANCH   6   7
ENDBRANCH   1   6
BRANCH   2  14
ATOM     14  C   UNL     1      -6.156   4.288 124.912  0.00  0.00    +0.000 C 
BRANCH  14  15
ATOM     15  N   UNL     1      -6.655   5.670 125.053  0.00  0.00    +0.000 NA
ATOM     16  H   UNL     1      -7.566   5.635 125.513  0.00  0.00    +0.000 HD
ATOM     17  H   UNL     1      -6.805   6.093 124.142  0.00  0.00    +0.000 HD
ENDBRANCH  14  15
BRANCH  14  18
ATOM     18  C   UNL     1      -5.299   4.165 123.642  0.00  0.00    +0.000 C 
BRANCH  18  19
ATOM     19  C   UNL     1      -6.103   3.703 122.432  0.00  0.00    +0.000 C 
BRANCH  19  20
ATOM     20  C   UNL     1      -5.302   3.876 121.146  0.00  0.00    +0.000 C 
BRANCH  20  21
ATOM     21  C   UNL     1      -4.404   5.103 121.251  0.00  0.00    +0.000 C 
BRANCH  21  22
ATOM     22  N   UNL     1      -4.825   6.112 120.289  0.00  0.00    +0.000 NA
ATOM     23  H   UNL     1      -4.542   7.034 120.620  0.00  0.00    +0.000 HD
ATOM     24  H   UNL     1      -5.842   6.124 120.239  0.00  0.00    +0.000 HD
ENDBRANCH  21  22
ENDBRANCH  20  21
ENDBRANCH  19  20
ENDBRANCH  18  19
ENDBRANCH  14  18
ENDBRANCH   2  14
TORSDOF 10
ENDMDL
MODEL 9
REMARK VINA RESULT:      -5.7      8.427     11.260
REMARK  Name = Lisdexamfetamine
REMARK  11 active torsions:
REMARK  status: ('A' for Active; 'I' for Inactive)
REMARK    1  A    between atoms: C_1  and  C_2
REMARK    2  A    between atoms: C_2  and  C_3
REMARK    3  A    between atoms: C_2  and  N_10
REMARK    4  A    between atoms: C_3  and  C_4
REMARK    5  A    between atoms: C_11  and  C_13
REMARK    6  A    between atoms: C_13  and  N_14
REMARK    7  A    between atoms: C_13  and  C_15
REMARK    8  A    between atoms: C_15  and  C_16
REMARK    9  A    between atoms: C_16  and  C_17
REMARK   10  A    between atoms: C_17  and  C_18
REMARK   11  A    between atoms: C_18  and  N_19
REMARK                            x       y       z     vdW  Elec       q    Type
REMARK                         _______ _______ _______ _____ _____    ______ ____
ROOT
ATOM      1  N   UNL     1      -7.598   0.836 124.168  0.00  0.00    +0.000 N 
ATOM      2  C   UNL     1      -6.971  -0.389 124.031  0.00  0.00    +0.000 C 
ATOM      3  O   UNL     1      -7.187  -1.134 123.071  0.00  0.00    +0.000 OA
ATOM      4  H   UNL     1      -7.430   1.402 124.989  0.00  0.00    +0.000 HD
ENDROOT
BRANCH   1   6
ATOM      5  C   UNL     1      -9.933   0.731 123.355  0.00  0.00    +0.000 C 
ATOM      6  C   UNL     1      -8.528   1.305 123.143  0.00  0.00    +0.000 C 
BRANCH   6   7
ATOM      7  C   UNL     1      -8.578   2.855 123.103  0.00  0.00    +0.000 C 
BRANCH   7   8
ATOM      8  C   UNL     1      -7.985   3.410 121.835  0.00  0.00    +0.000 A 
ATOM      9  C   UNL     1      -8.790   3.745 120.742  0.00  0.00    +0.000 A 
ATOM     10  C   UNL     1      -8.198   4.157 119.549  0.00  0.00    +0.000 A 
ATOM     11  C   UNL     1      -6.813   4.302 119.467  0.00  0.00    +0.000 A 
ATOM     12  C   UNL     1      -6.009   3.992 120.560  0.00  0.00    +0.000 A 
ATOM     13  C   UNL     1      -6.594   3.547 121.738  0.00  0.00    +0.000 A 
ENDBRANCH   7   8
ENDBRANCH   6   7
ENDBRANCH   1   6
BRANCH   2  14
ATOM     14  C   UNL     1      -5.982  -0.757 125.152  0.00  0.00    +0.000 C 
BRANCH  14  15
ATOM     15  N   UNL     1      -6.246   0.069 126.346  0.00  0.00    +0.000 NA
ATOM     16  H   UNL     1      -5.440  -0.002 126.968  0.00  0.00    +0.000 HD
ATOM     17  H   UNL     1      -7.045  -0.288 126.861  0.00  0.00    +0.000 HD
ENDBRANCH  14  15
BRANCH  14  18
ATOM     18  C   UNL     1      -6.142  -2.246 125.497  0.00  0.00    +0.000 C 
BRANCH  18  19
ATOM     19  C   UNL     1      -7.302  -2.509 126.449  0.00  0.00    +0.000 C 
BRANCH  19  20
ATOM     20  C   UNL     1      -8.308  -3.474 125.831  0.00  0.00    +0.000 C 
BRANCH  20  21
ATOM     21  C   UNL     1      -9.544  -2.714 125.365  0.00  0.00    +0.000 C 
BRANCH  21  22
ATOM     22  N   UNL     1      -9.719  -2.880 123.929  0.00  0.00    +0.000 NA
ATOM     23  H   UNL     1      -9.187  -3.690 123.615  0.00  0.00    +0.000 HD
ATOM     24  H   UNL     1      -9.327  -2.073 123.449  0.00  0.00    +0.000 HD
ENDBRANCH  21  22
ENDBRANCH  20  21
ENDBRANCH  19  20
ENDBRANCH  18  19
ENDBRANCH  14  18
ENDBRANCH   2  14
TORSDOF 10
ENDMDL
