MODEL 1
REMARK VINA RESULT:      -7.3      0.000      0.000
REMARK  Name = Lisinopril
REMARK  15 active torsions:
REMARK  status: ('A' for Active; 'I' for Inactive)
REMARK    1  A    between atoms: N_1  and  C_2
REMARK    2  A    between atoms: C_2  and  C_3
REMARK    3  A    between atoms: C_3  and  C_4
REMARK    4  A    between atoms: C_4  and  C_5
REMARK    5  A    between atoms: C_5  and  C_6
REMARK    6  A    between atoms: C_6  and  N_7
REMARK    7  A    between atoms: C_6  and  C_20
REMARK    8  A    between atoms: N_7  and  C_8
REMARK    9  A    between atoms: C_8  and  C_9
REMARK   10  A    between atoms: C_8  and  C_17
REMARK   11  A    between atoms: C_9  and  C_10
REMARK   12  A    between atoms: C_10  and  C_11
REMARK   13  A    between atoms: C_17  and  O_18
REMARK   14  A    between atoms: CA_26  and  C_27
REMARK   15  A    between atoms: C_27  and  O_28
REMARK                            x       y       z     vdW  Elec       q    Type
REMARK                         _______ _______ _______ _____ _____    ______ ____
ROOT
ATOM      1  C   UNK A   1      -7.905   1.456 126.729  0.00  0.00    +0.000 C 
ENDROOT
BRANCH   1   2
ATOM      2  C   UNK A   1      -8.616   0.271 125.852  0.00  0.00    +0.000 C 
ATOM      3  O   UNK A   1      -9.841   0.095 125.944  0.00  0.00    +0.000 OA
ATOM      4  N   PRO A   2      -7.938  -0.638 125.051  0.00  0.00    +0.000 N 
ATOM      5  CD  PRO A   2      -6.557  -0.658 124.630  0.00  0.00    +0.000 C 
ATOM      6  CG  PRO A   2      -6.596  -0.791 123.148  0.00  0.00    +0.000 C 
ATOM      7  CB  PRO A   2      -7.767  -1.736 122.948  0.00  0.00    +0.000 C 
ATOM      8  CA  PRO A   2      -8.718  -1.516 124.146  0.00  0.00    +0.000 C 
BRANCH   8   9
ATOM      9  C   PRO A   2      -9.271  -2.904 124.577  0.00  0.00    +0.000 C 
ATOM     10  OXT PRO A   2      -8.826  -3.945 124.124  0.00  0.00    +0.000 OA
BRANCH   9  11
ATOM     11  O   PRO A   2     -10.194  -2.949 125.553  0.00  0.00    +0.000 OA
ATOM     12  H   PRO A   2     -10.600  -2.099 125.768  0.00  0.00    +0.000 HD
ENDBRANCH   9  11
ENDBRANCH   8   9
ENDBRANCH   1   2
BRANCH   1  13
ATOM     13  N   UNK A   1      -8.266   2.885 126.261  0.00  0.00    +0.000 NA
ATOM     14  H   UNK A   1      -9.234   2.857 125.946  0.00  0.00    +0.000 HD
BRANCH  13  15
ATOM     15  C   UNK A   1      -7.453   3.496 125.161  0.00  0.00    +0.000 C 
BRANCH  15  16
ATOM     16  C   UNK A   1      -7.365   5.045 125.264  0.00  0.00    +0.000 C 
ATOM     17  O   UNK A   1      -6.350   5.662 125.059  0.00  0.00    +0.000 OA
BRANCH  16  18
ATOM     18  O   UNK A   1      -8.537   5.664 125.560  0.00  0.00    +0.000 OA
ATOM     19  H   UNK A   1      -8.865   5.386 126.434  0.00  0.00    +0.000 HD
ENDBRANCH  16  18
ENDBRANCH  15  16
BRANCH  15  20
ATOM     20  C   UNK A   1      -7.972   3.238 123.718  0.00  0.00    +0.000 C 
BRANCH  20  21
ATOM     21  C   UNK A   1      -6.914   2.748 122.762  0.00  0.00    +0.000 C 
BRANCH  21  22
ATOM     22  C   UNK A   1      -6.326   3.572 121.667  0.00  0.00    +0.000 A 
ATOM     23  C   UNK A   1      -5.211   4.400 121.837  0.00  0.00    +0.000 A 
ATOM     24  C   UNK A   1      -4.662   5.211 120.858  0.00  0.00    +0.000 A 
ATOM     25  C   UNK A   1      -5.325   5.282 119.670  0.00  0.00    +0.000 A 
ATOM     26  C   UNK A   1      -6.562   4.641 119.551  0.00  0.00    +0.000 A 
ATOM     27  C   UNK A   1      -7.054   3.783 120.532  0.00  0.00    +0.000 A 
ENDBRANCH  21  22
ENDBRANCH  20  21
ENDBRANCH  15  20
ENDBRANCH  13  15
ENDBRANCH   1  13
BRANCH   1  28
ATOM     28  C   UNK A   1      -7.793   1.507 128.325  0.00  0.00    +0.000 C 
BRANCH  28  29
ATOM     29  C   UNK A   1      -8.789   2.338 129.128  0.00  0.00    +0.000 C 
BRANCH  29  30
ATOM     30  C   UNK A   1      -8.412   3.497 130.041  0.00  0.00    +0.000 C 
BRANCH  30  31
ATOM     31  C   UNK A   1      -9.219   4.778 129.719  0.00  0.00    +0.000 C 
BRANCH  31  32
ATOM     32  N   UNK A   1      -9.009   5.351 128.405  0.00  0.00    +0.000 NA
ATOM     33  H   UNK A   1      -9.933   5.552 128.007  0.00  0.00    +0.000 HD
ATOM     34  H   UNK A   1      -8.660   4.590 127.816  0.00  0.00    +0.000 HD
ENDBRANCH  31  32
ENDBRANCH  30  31
ENDBRANCH  29  30
ENDBRANCH  28  29
ENDBRANCH   1  28
TORSDOF 15
ENDMDL
MODEL 2
REMARK VINA RESULT:      -7.2      1.464      2.701
REMARK  Name = Lisinopril
REMARK  15 active torsions:
REMARK  status: ('A' for Active; 'I' for Inactive)
REMARK    1  A    between atoms: N_1  and  C_2
REMARK    2  A    between atoms: C_2  and  C_3
REMARK    3  A    between atoms: C_3  and  C_4
REMARK    4  A    between atoms: C_4  and  C_5
REMARK    5  A    between atoms: C_5  and  C_6
REMARK    6  A    between atoms: C_6  and  N_7
REMARK    7  A    between atoms: C_6  and  C_20
REMARK    8  A    between atoms: N_7  and  C_8
REMARK    9  A    between atoms: C_8  and  C_9
REMARK   10  A    between atoms: C_8  and  C_17
REMARK   11  A    between atoms: C_9  and  C_10
REMARK   12  A    between atoms: C_10  and  C_11
REMARK   13  A    between atoms: C_17  and  O_18
REMARK   14  A    between atoms: CA_26  and  C_27
REMARK   15  A    between atoms: C_27  and  O_28
REMARK                            x       y       z     vdW  Elec       q    Type
REMARK                         _______ _______ _______ _____ _____    ______ ____
ROOT
ATOM      1  C   UNK A   1      -8.140   1.122 126.766  0.00  0.00    +0.000 C 
ENDROOT
BRANCH   1   2
ATOM      2  C   UNK A   1      -8.768   0.003 125.749  0.00  0.00    +0.000 C 
ATOM      3  O   UNK A   1      -9.994  -0.188 125.733  0.00  0.00    +0.000 OA
ATOM      4  N   PRO A   2      -8.019  -0.838 124.935  0.00  0.00    +0.000 N 
ATOM      5  CD  PRO A   2      -6.610  -0.816 124.622  0.00  0.00    +0.000 C 
ATOM      6  CG  PRO A   2      -6.535  -0.835 123.136  0.00  0.00    +0.000 C 
ATOM      7  CB  PRO A   2      -7.675  -1.769 122.775  0.00  0.00    +0.000 C 
ATOM      8  CA  PRO A   2      -8.717  -1.648 123.909  0.00  0.00    +0.000 C 
BRANCH   8   9
ATOM      9  C   PRO A   2      -9.284  -3.068 124.190  0.00  0.00    +0.000 C 
ATOM     10  OXT PRO A   2      -8.977  -3.701 125.186  0.00  0.00    +0.000 OA
BRANCH   9  11
ATOM     11  O   PRO A   2     -10.216  -3.561 123.356  0.00  0.00    +0.000 OA
ATOM     12  H   PRO A   2      -9.868  -3.962 122.549  0.00  0.00    +0.000 HD
ENDBRANCH   9  11
ENDBRANCH   8   9
ENDBRANCH   1   2
BRANCH   1  13
ATOM     13  N   UNK A   1      -8.464   2.581 126.371  0.00  0.00    +0.000 NA
ATOM     14  H   UNK A   1      -9.162   2.538 125.630  0.00  0.00    +0.000 HD
BRANCH  13  15
ATOM     15  C   UNK A   1      -7.343   3.447 125.881  0.00  0.00    +0.000 C 
BRANCH  15  16
ATOM     16  C   UNK A   1      -7.788   4.911 125.608  0.00  0.00    +0.000 C 
ATOM     17  O   UNK A   1      -8.887   5.328 125.877  0.00  0.00    +0.000 OA
BRANCH  16  18
ATOM     18  O   UNK A   1      -6.824   5.710 125.080  0.00  0.00    +0.000 OA
ATOM     19  H   UNK A   1      -6.456   5.318 124.267  0.00  0.00    +0.000 HD
ENDBRANCH  16  18
ENDBRANCH  15  16
BRANCH  15  20
ATOM     20  C   UNK A   1      -6.675   2.996 124.552  0.00  0.00    +0.000 C 
BRANCH  20  21
ATOM     21  C   UNK A   1      -7.653   2.664 123.453  0.00  0.00    +0.000 C 
BRANCH  21  22
ATOM     22  C   UNK A   1      -7.531   3.148 122.047  0.00  0.00    +0.000 A 
ATOM     23  C   UNK A   1      -6.326   3.578 121.481  0.00  0.00    +0.000 A 
ATOM     24  C   UNK A   1      -6.178   4.071 120.196  0.00  0.00    +0.000 A 
ATOM     25  C   UNK A   1      -7.316   4.247 119.467  0.00  0.00    +0.000 A 
ATOM     26  C   UNK A   1      -8.552   4.038 120.088  0.00  0.00    +0.000 A 
ATOM     27  C   UNK A   1      -8.662   3.481 121.360  0.00  0.00    +0.000 A 
ENDBRANCH  21  22
ENDBRANCH  20  21
ENDBRANCH  15  20
ENDBRANCH  13  15
ENDBRANCH   1  13
BRANCH   1  28
ATOM     28  C   UNK A   1      -8.167   1.059 128.365  0.00  0.00    +0.000 C 
BRANCH  28  29
ATOM     29  C   UNK A   1      -7.542  -0.130 129.087  0.00  0.00    +0.000 C 
BRANCH  29  30
ATOM     30  C   UNK A   1      -6.928  -1.339 128.395  0.00  0.00    +0.000 C 
BRANCH  30  31
ATOM     31  C   UNK A   1      -7.594  -2.664 128.836  0.00  0.00    +0.000 C 
BRANCH  31  32
ATOM     32  N   UNK A   1      -8.603  -3.198 127.944  0.00  0.00    +0.000 NA
ATOM     33  H   UNK A   1      -9.370  -2.517 127.907  0.00  0.00    +0.000 HD
ATOM     34  H   UNK A   1      -9.020  -3.995 128.432  0.00  0.00    +0.000 HD
ENDBRANCH  31  32
ENDBRANCH  30  31
ENDBRANCH  29  30
ENDBRANCH  28  29
ENDBRANCH   1  28
TORSDOF 15
ENDMDL
MODEL 3
REMARK VINA RESULT:      -7.1      3.105      7.594
REMARK  Name = Lisinopril
REMARK  15 active torsions:
REMARK  status: ('A' for Active; 'I' for Inactive)
REMARK    1  A    between atoms: N_1  and  C_2
REMARK    2  A    between atoms: C_2  and  C_3
REMARK    3  A    between atoms: C_3  and  C_4
REMARK    4  A    between atoms: C_4  and  C_5
REMARK    5  A    between atoms: C_5  and  C_6
REMARK    6  A    between atoms: C_6  and  N_7
REMARK    7  A    between atoms: C_6  and  C_20
REMARK    8  A    between atoms: N_7  and  C_8
REMARK    9  A    between atoms: C_8  and  C_9
REMARK   10  A    between atoms: C_8  and  C_17
REMARK   11  A    between atoms: C_9  and  C_10
REMARK   12  A    between atoms: C_10  and  C_11
REMARK   13  A    between atoms: C_17  and  O_18
REMARK   14  A    between atoms: CA_26  and  C_27
REMARK   15  A    between atoms: C_27  and  O_28
REMARK                            x       y       z     vdW  Elec       q    Type
REMARK                         _______ _______ _______ _____ _____    ______ ____
ROOT
ATOM      1  C   UNK A   1      -5.604   4.140 124.025  0.00  0.00    +0.000 C 
ENDROOT
BRANCH   1   2
ATOM      2  C   UNK A   1      -5.256   4.756 125.501  0.00  0.00    +0.000 C 
ATOM      3  O   UNK A   1      -6.025   5.585 126.014  0.00  0.00    +0.000 OA
ATOM      4  N   PRO A   2      -4.097   4.489 126.219  0.00  0.00    +0.000 N 
ATOM      5  CD  PRO A   2      -3.064   3.508 125.984  0.00  0.00    +0.000 C 
ATOM      6  CG  PRO A   2      -2.923   2.767 127.267  0.00  0.00    +0.000 C 
ATOM      7  CB  PRO A   2      -3.108   3.871 128.291  0.00  0.00    +0.000 C 
ATOM      8  CA  PRO A   2      -4.010   4.937 127.629  0.00  0.00    +0.000 C 
BRANCH   8   9
ATOM      9  C   PRO A   2      -3.475   6.338 128.043  0.00  0.00    +0.000 C 
ATOM     10  OXT PRO A   2      -4.209   7.202 128.491  0.00  0.00    +0.000 OA
BRANCH   9  11
ATOM     11  O   PRO A   2      -2.150   6.556 127.995  0.00  0.00    +0.000 OA
ATOM     12  H   PRO A   2      -1.645   5.885 127.518  0.00  0.00    +0.000 HD
ENDBRANCH   9  11
ENDBRANCH   8   9
ENDBRANCH   1   2
BRANCH   1  13
ATOM     13  N   UNK A   1      -7.118   3.989 123.749  0.00  0.00    +0.000 NA
ATOM     14  H   UNK A   1      -7.595   4.668 124.341  0.00  0.00    +0.000 HD
BRANCH  13  15
ATOM     15  C   UNK A   1      -7.753   2.655 123.997  0.00  0.00    +0.000 C 
BRANCH  15  16
ATOM     16  C   UNK A   1      -8.756   2.675 125.184  0.00  0.00    +0.000 C 
ATOM     17  O   UNK A   1      -9.693   1.920 125.269  0.00  0.00    +0.000 OA
BRANCH  16  18
ATOM     18  O   UNK A   1      -8.474   3.584 126.154  0.00  0.00    +0.000 OA
ATOM     19  H   UNK A   1      -9.165   3.584 126.840  0.00  0.00    +0.000 HD
ENDBRANCH  16  18
ENDBRANCH  15  16
BRANCH  15  20
ATOM     20  C   UNK A   1      -6.774   1.497 124.343  0.00  0.00    +0.000 C 
BRANCH  20  21
ATOM     21  C   UNK A   1      -7.229   0.142 123.862  0.00  0.00    +0.000 C 
BRANCH  21  22
ATOM     22  C   UNK A   1      -6.406  -1.098 123.948  0.00  0.00    +0.000 A 
ATOM     23  C   UNK A   1      -6.072  -1.882 122.839  0.00  0.00    +0.000 A 
ATOM     24  C   UNK A   1      -5.346  -3.060 122.882  0.00  0.00    +0.000 A 
ATOM     25  C   UNK A   1      -5.024  -3.543 124.115  0.00  0.00    +0.000 A 
ATOM     26  C   UNK A   1      -5.539  -2.899 125.245  0.00  0.00    +0.000 A 
ATOM     27  C   UNK A   1      -6.211  -1.682 125.167  0.00  0.00    +0.000 A 
ENDBRANCH  21  22
ENDBRANCH  20  21
ENDBRANCH  15  20
ENDBRANCH  13  15
ENDBRANCH   1  13
BRANCH   1  28
ATOM     28  C   UNK A   1      -4.924   4.571 122.642  0.00  0.00    +0.000 C 
BRANCH  28  29
ATOM     29  C   UNK A   1      -5.327   3.870 121.349  0.00  0.00    +0.000 C 
BRANCH  29  30
ATOM     30  C   UNK A   1      -5.706   4.584 120.058  0.00  0.00    +0.000 C 
BRANCH  30  31
ATOM     31  C   UNK A   1      -7.145   4.242 119.604  0.00  0.00    +0.000 C 
BRANCH  31  32
ATOM     32  N   UNK A   1      -8.099   3.971 120.660  0.00  0.00    +0.000 NA
ATOM     33  H   UNK A   1      -7.597   4.041 121.552  0.00  0.00    +0.000 HD
ATOM     34  H   UNK A   1      -8.322   2.976 120.593  0.00  0.00    +0.000 HD
ENDBRANCH  31  32
ENDBRANCH  30  31
ENDBRANCH  29  30
ENDBRANCH  28  29
ENDBRANCH   1  28
TORSDOF 15
ENDMDL
MODEL 4
REMARK VINA RESULT:      -7.0      3.332      5.343
REMARK  Name = Lisinopril
REMARK  15 active torsions:
REMARK  status: ('A' for Active; 'I' for Inactive)
REMARK    1  A    between atoms: N_1  and  C_2
REMARK    2  A    between atoms: C_2  and  C_3
REMARK    3  A    between atoms: C_3  and  C_4
REMARK    4  A    between atoms: C_4  and  C_5
REMARK    5  A    between atoms: C_5  and  C_6
REMARK    6  A    between atoms: C_6  and  N_7
REMARK    7  A    between atoms: C_6  and  C_20
REMARK    8  A    between atoms: N_7  and  C_8
REMARK    9  A    between atoms: C_8  and  C_9
REMARK   10  A    between atoms: C_8  and  C_17
REMARK   11  A    between atoms: C_9  and  C_10
REMARK   12  A    between atoms: C_10  and  C_11
REMARK   13  A    between atoms: C_17  and  O_18
REMARK   14  A    between atoms: CA_26  and  C_27
REMARK   15  A    between atoms: C_27  and  O_28
REMARK                            x       y       z     vdW  Elec       q    Type
REMARK                         _______ _______ _______ _____ _____    ______ ____
ROOT
ATOM      1  C   UNK A   1      -8.338  -0.846 124.663  0.00  0.00    +0.000 C 
ENDROOT
BRANCH   1   2
ATOM      2  C   UNK A   1      -7.779  -1.061 126.187  0.00  0.00    +0.000 C 
ATOM      3  O   UNK A   1      -7.221  -0.119 126.771  0.00  0.00    +0.000 OA
ATOM      4  N   PRO A   2      -7.799  -2.267 126.876  0.00  0.00    +0.000 N 
ATOM      5  CD  PRO A   2      -8.459  -3.510 126.556  0.00  0.00    +0.000 C 
ATOM      6  CG  PRO A   2      -9.243  -3.866 127.769  0.00  0.00    +0.000 C 
ATOM      7  CB  PRO A   2      -8.313  -3.430 128.886  0.00  0.00    +0.000 C 
ATOM      8  CA  PRO A   2      -7.463  -2.270 128.320  0.00  0.00    +0.000 C 
BRANCH   8   9
ATOM      9  C   PRO A   2      -6.011  -2.439 128.853  0.00  0.00    +0.000 C 
ATOM     10  OXT PRO A   2      -5.069  -2.646 128.106  0.00  0.00    +0.000 OA
BRANCH   9  11
ATOM     11  O   PRO A   2      -5.785  -2.248 130.164  0.00  0.00    +0.000 OA
ATOM     12  H   PRO A   2      -6.554  -1.957 130.671  0.00  0.00    +0.000 HD
ENDBRANCH   9  11
ENDBRANCH   8   9
ENDBRANCH   1   2
BRANCH   1  13
ATOM     13  N   UNK A   1      -7.930   0.504 124.029  0.00  0.00    +0.000 NA
ATOM     14  H   UNK A   1      -7.133   0.851 124.562  0.00  0.00    +0.000 HD
BRANCH  13  15
ATOM     15  C   UNK A   1      -8.949   1.601 123.983  0.00  0.00    +0.000 C 
BRANCH  15  16
ATOM     16  C   UNK A   1     -10.277   1.163 123.303  0.00  0.00    +0.000 C 
ATOM     17  O   UNK A   1     -10.324   0.675 122.201  0.00  0.00    +0.000 OA
BRANCH  16  18
ATOM     18  O   UNK A   1     -11.389   1.330 124.065  0.00  0.00    +0.000 OA
ATOM     19  H   UNK A   1     -11.924   2.076 123.738  0.00  0.00    +0.000 HD
ENDBRANCH  16  18
ENDBRANCH  15  16
BRANCH  15  20
ATOM     20  C   UNK A   1      -8.526   2.881 123.208  0.00  0.00    +0.000 C 
BRANCH  20  21
ATOM     21  C   UNK A   1      -7.211   2.753 122.482  0.00  0.00    +0.000 C 
BRANCH  21  22
ATOM     22  C   UNK A   1      -6.747   3.689 121.416  0.00  0.00    +0.000 A 
ATOM     23  C   UNK A   1      -7.436   3.896 120.217  0.00  0.00    +0.000 A 
ATOM     24  C   UNK A   1      -7.019   4.722 119.188  0.00  0.00    +0.000 A 
ATOM     25  C   UNK A   1      -5.789   5.295 119.315  0.00  0.00    +0.000 A 
ATOM     26  C   UNK A   1      -4.984   4.926 120.398  0.00  0.00    +0.000 A 
ATOM     27  C   UNK A   1      -5.460   4.143 121.447  0.00  0.00    +0.000 A 
ENDBRANCH  21  22
ENDBRANCH  20  21
ENDBRANCH  15  20
ENDBRANCH  13  15
ENDBRANCH   1  13
BRANCH   1  28
ATOM     28  C   UNK A   1      -8.311  -1.934 123.490  0.00  0.00    +0.000 C 
BRANCH  28  29
ATOM     29  C   UNK A   1      -7.118  -1.997 122.542  0.00  0.00    +0.000 C 
BRANCH  29  30
ATOM     30  C   UNK A   1      -5.688  -2.306 122.968  0.00  0.00    +0.000 C 
BRANCH  30  31
ATOM     31  C   UNK A   1      -5.618  -3.499 123.951  0.00  0.00    +0.000 C 
BRANCH  31  32
ATOM     32  N   UNK A   1      -4.404  -4.288 123.910  0.00  0.00    +0.000 NA
ATOM     33  H   UNK A   1      -3.672  -3.702 123.493  0.00  0.00    +0.000 HD
ATOM     34  H   UNK A   1      -4.558  -5.010 123.203  0.00  0.00    +0.000 HD
ENDBRANCH  31  32
ENDBRANCH  30  31
ENDBRANCH  29  30
ENDBRANCH  28  29
ENDBRANCH   1  28
TORSDOF 15
ENDMDL
MODEL 5
REMARK VINA RESULT:      -6.9      2.290      5.491
REMARK  Name = Lisinopril
REMARK  15 active torsions:
REMARK  status: ('A' for Active; 'I' for Inactive)
REMARK    1  A    between atoms: N_1  and  C_2
REMARK    2  A    between atoms: C_2  and  C_3
REMARK    3  A    between atoms: C_3  and  C_4
REMARK    4  A    between atoms: C_4  and  C_5
REMARK    5  A    between atoms: C_5  and  C_6
REMARK    6  A    between atoms: C_6  and  N_7
REMARK    7  A    between atoms: C_6  and  C_20
REMARK    8  A    between atoms: N_7  and  C_8
REMARK    9  A    between atoms: C_8  and  C_9
REMARK   10  A    between atoms: C_8  and  C_17
REMARK   11  A    between atoms: C_9  and  C_10
REMARK   12  A    between atoms: C_10  and  C_11
REMARK   13  A    between atoms: C_17  and  O_18
REMARK   14  A    between atoms: CA_26  and  C_27
REMARK   15  A    between atoms: C_27  and  O_28
REMARK                            x       y       z     vdW  Elec       q    Type
REMARK                         _______ _______ _______ _____ _____    ______ ____
ROOT
ATOM      1  C   UNK A   1      -7.157  -0.151 125.233  0.00  0.00    +0.000 C 
ENDROOT
BRANCH   1   2
ATOM      2  C   UNK A   1      -7.054   0.858 126.517  0.00  0.00    +0.000 C 
ATOM      3  O   UNK A   1      -7.661   0.579 127.563  0.00  0.00    +0.000 OA
ATOM      4  N   PRO A   2      -6.393   2.080 126.515  0.00  0.00    +0.000 N 
ATOM      5  CD  PRO A   2      -5.505   2.655 125.532  0.00  0.00    +0.000 C 
ATOM      6  CG  PRO A   2      -4.282   3.044 126.285  0.00  0.00    +0.000 C 
ATOM      7  CB  PRO A   2      -4.863   3.545 127.594  0.00  0.00    +0.000 C 
ATOM      8  CA  PRO A   2      -6.193   2.788 127.802  0.00  0.00    +0.000 C 
BRANCH   8   9
ATOM      9  C   PRO A   2      -7.227   3.791 128.389  0.00  0.00    +0.000 C 
ATOM     10  OXT PRO A   2      -6.905   4.908 128.756  0.00  0.00    +0.000 OA
BRANCH   9  11
ATOM     11  O   PRO A   2      -8.524   3.442 128.393  0.00  0.00    +0.000 OA
ATOM     12  H   PRO A   2      -8.769   2.796 129.068  0.00  0.00    +0.000 HD
ENDBRANCH   9  11
ENDBRANCH   8   9
ENDBRANCH   1   2
BRANCH   1  13
ATOM     13  N   UNK A   1      -7.791   0.493 123.978  0.00  0.00    +0.000 NA
ATOM     14  H   UNK A   1      -7.073   1.077 123.552  0.00  0.00    +0.000 HD
BRANCH  13  15
ATOM     15  C   UNK A   1      -9.011   1.343 124.158  0.00  0.00    +0.000 C 
BRANCH  15  16
ATOM     16  C   UNK A   1     -10.260   0.769 123.432  0.00  0.00    +0.000 C 
ATOM     17  O   UNK A   1     -10.204  -0.147 122.649  0.00  0.00    +0.000 OA
BRANCH  16  18
ATOM     18  O   UNK A   1     -11.438   1.348 123.779  0.00  0.00    +0.000 OA
ATOM     19  H   UNK A   1     -12.124   1.167 123.111  0.00  0.00    +0.000 HD
ENDBRANCH  16  18
ENDBRANCH  15  16
BRANCH  15  20
ATOM     20  C   UNK A   1      -8.900   2.802 123.632  0.00  0.00    +0.000 C 
BRANCH  20  21
ATOM     21  C   UNK A   1      -8.744   2.906 122.136  0.00  0.00    +0.000 C 
BRANCH  21  22
ATOM     22  C   UNK A   1      -7.528   3.438 121.454  0.00  0.00    +0.000 A 
ATOM     23  C   UNK A   1      -6.326   3.705 122.118  0.00  0.00    +0.000 A 
ATOM     24  C   UNK A   1      -5.190   4.236 121.531  0.00  0.00    +0.000 A 
ATOM     25  C   UNK A   1      -5.292   4.624 120.228  0.00  0.00    +0.000 A 
ATOM     26  C   UNK A   1      -6.544   4.577 119.608  0.00  0.00    +0.000 A 
ATOM     27  C   UNK A   1      -7.650   3.977 120.207  0.00  0.00    +0.000 A 
ENDBRANCH  21  22
ENDBRANCH  20  21
ENDBRANCH  15  20
ENDBRANCH  13  15
ENDBRANCH   1  13
BRANCH   1  28
ATOM     28  C   UNK A   1      -6.006  -1.136 124.715  0.00  0.00    +0.000 C 
BRANCH  28  29
ATOM     29  C   UNK A   1      -6.370  -2.337 123.849  0.00  0.00    +0.000 C 
BRANCH  29  30
ATOM     30  C   UNK A   1      -7.373  -3.415 124.239  0.00  0.00    +0.000 C 
BRANCH  30  31
ATOM     31  C   UNK A   1      -8.763  -3.173 123.605  0.00  0.00    +0.000 C 
BRANCH  31  32
ATOM     32  N   UNK A   1      -9.814  -2.756 124.512  0.00  0.00    +0.000 NA
ATOM     33  H   UNK A   1      -9.361  -2.348 125.337  0.00  0.00    +0.000 HD
ATOM     34  H   UNK A   1     -10.234  -3.615 124.874  0.00  0.00    +0.000 HD
ENDBRANCH  31  32
ENDBRANCH  30  31
ENDBRANCH  29  30
ENDBRANCH  28  29
ENDBRANCH   1  28
TORSDOF 15
ENDMDL
MODEL 6
REMARK VINA RESULT:      -6.8      3.358      6.563
REMARK  Name = Lisinopril
REMARK  15 active torsions:
REMARK  status: ('A' for Active; 'I' for Inactive)
REMARK    1  A    between atoms: N_1  and  C_2
REMARK    2  A    between atoms: C_2  and  C_3
REMARK    3  A    between atoms: C_3  and  C_4
REMARK    4  A    between atoms: C_4  and  C_5
REMARK    5  A    between atoms: C_5  and  C_6
REMARK    6  A    between atoms: C_6  and  N_7
REMARK    7  A    between atoms: C_6  and  C_20
REMARK    8  A    between atoms: N_7  and  C_8
REMARK    9  A    between atoms: C_8  and  C_9
REMARK   10  A    between atoms: C_8  and  C_17
REMARK   11  A    between atoms: C_9  and  C_10
REMARK   12  A    between atoms: C_10  and  C_11
REMARK   13  A    between atoms: C_17  and  O_18
REMARK   14  A    between atoms: CA_26  and  C_27
REMARK   15  A    between atoms: C_27  and  O_28
REMARK                            x       y       z     vdW  Elec       q    Type
REMARK                         _______ _______ _______ _____ _____    ______ ____
ROOT
ATOM      1  C   UNK A   1      -6.729   3.765 128.840  0.00  0.00    +0.000 C 
ENDROOT
BRANCH   1   2
ATOM      2  C   UNK A   1      -8.039   4.241 129.698  0.00  0.00    +0.000 C 
ATOM      3  O   UNK A   1      -9.069   4.588 129.099  0.00  0.00    +0.000 OA
ATOM      4  N   PRO A   2      -8.075   4.375 131.081  0.00  0.00    +0.000 N 
ATOM      5  CD  PRO A   2      -7.120   3.960 132.081  0.00  0.00    +0.000 C 
ATOM      6  CG  PRO A   2      -7.900   3.161 133.065  0.00  0.00    +0.000 C 
ATOM      7  CB  PRO A   2      -9.212   3.921 133.119  0.00  0.00    +0.000 C 
ATOM      8  CA  PRO A   2      -9.382   4.602 131.743  0.00  0.00    +0.000 C 
BRANCH   8   9
ATOM      9  C   PRO A   2      -9.978   6.018 131.982  0.00  0.00    +0.000 C 
ATOM     10  OXT PRO A   2     -10.334   6.733 131.060  0.00  0.00    +0.000 OA
BRANCH   9  11
ATOM     11  O   PRO A   2     -10.196   6.416 133.247  0.00  0.00    +0.000 OA
ATOM     12  H   PRO A   2      -9.764   7.245 133.493  0.00  0.00    +0.000 HD
ENDBRANCH   9  11
ENDBRANCH   8   9
ENDBRANCH   1   2
BRANCH   1  13
ATOM     13  N   UNK A   1      -7.074   3.051 127.512  0.00  0.00    +0.000 NA
ATOM     14  H   UNK A   1      -6.467   2.234 127.451  0.00  0.00    +0.000 HD
BRANCH  13  15
ATOM     15  C   UNK A   1      -6.923   3.819 126.235  0.00  0.00    +0.000 C 
BRANCH  15  16
ATOM     16  C   UNK A   1      -8.273   4.376 125.702  0.00  0.00    +0.000 C 
ATOM     17  O   UNK A   1      -8.633   5.514 125.879  0.00  0.00    +0.000 OA
BRANCH  16  18
ATOM     18  O   UNK A   1      -9.007   3.493 124.976  0.00  0.00    +0.000 OA
ATOM     19  H   UNK A   1      -8.462   2.734 124.701  0.00  0.00    +0.000 HD
ENDBRANCH  16  18
ENDBRANCH  15  16
BRANCH  15  20
ATOM     20  C   UNK A   1      -6.337   3.022 125.035  0.00  0.00    +0.000 C 
BRANCH  20  21
ATOM     21  C   UNK A   1      -5.552   3.865 124.062  0.00  0.00    +0.000 C 
BRANCH  21  22
ATOM     22  C   UNK A   1      -5.816   3.918 122.595  0.00  0.00    +0.000 A 
ATOM     23  C   UNK A   1      -5.008   4.613 121.689  0.00  0.00    +0.000 A 
ATOM     24  C   UNK A   1      -5.241   4.721 120.329  0.00  0.00    +0.000 A 
ATOM     25  C   UNK A   1      -6.407   4.194 119.859  0.00  0.00    +0.000 A 
ATOM     26  C   UNK A   1      -7.337   3.694 120.775  0.00  0.00    +0.000 A 
ATOM     27  C   UNK A   1      -7.043   3.542 122.128  0.00  0.00    +0.000 A 
ENDBRANCH  21  22
ENDBRANCH  20  21
ENDBRANCH  15  20
ENDBRANCH  13  15
ENDBRANCH   1  13
BRANCH   1  28
ATOM     28  C   UNK A   1      -5.416   4.639 128.567  0.00  0.00    +0.000 C 
BRANCH  28  29
ATOM     29  C   UNK A   1      -4.058   3.953 128.466  0.00  0.00    +0.000 C 
BRANCH  29  30
ATOM     30  C   UNK A   1      -3.014   4.249 127.396  0.00  0.00    +0.000 C 
BRANCH  30  31
ATOM     31  C   UNK A   1      -2.588   2.975 126.629  0.00  0.00    +0.000 C 
BRANCH  31  32
ATOM     32  N   UNK A   1      -1.172   2.671 126.635  0.00  0.00    +0.000 NA
ATOM     33  H   UNK A   1      -1.005   1.973 125.901  0.00  0.00    +0.000 HD
ATOM     34  H   UNK A   1      -0.996   2.151 127.498  0.00  0.00    +0.000 HD
ENDBRANCH  31  32
ENDBRANCH  30  31
ENDBRANCH  29  30
ENDBRANCH  28  29
ENDBRANCH   1  28
TORSDOF 15
ENDMDL
MODEL 7
REMARK VINA RESULT:      -6.8      6.010      8.260
REMARK  Name = Lisinopril
REMARK  15 active torsions:
REMARK  status: ('A' for Active; 'I' for Inactive)
REMARK    1  A    between atoms: N_1  and  C_2
REMARK    2  A    between atoms: C_2  and  C_3
REMARK    3  A    between atoms: C_3  and  C_4
REMARK    4  A    between atoms: C_4  and  C_5
REMARK    5  A    between atoms: C_5  and  C_6
REMARK    6  A    between atoms: C_6  and  N_7
REMARK    7  A    between atoms: C_6  and  C_20
REMARK    8  A    between atoms: N_7  and  C_8
REMARK    9  A    between atoms: C_8  and  C_9
REMARK   10  A    between atoms: C_8  and  C_17
REMARK   11  A    between atoms: C_9  and  C_10
REMARK   12  A    between atoms: C_10  and  C_11
REMARK   13  A    between atoms: C_17  and  O_18
REMARK   14  A    between atoms: CA_26  and  C_27
REMARK   15  A    between atoms: C_27  and  O_28
REMARK                            x       y       z     vdW  Elec       q    Type
REMARK                         _______ _______ _______ _____ _____    ______ ____
ROOT
ATOM      1  C   UNK A   1      -8.185   4.309 129.678  0.00  0.00    +0.000 C 
ENDROOT
BRANCH   1   2
ATOM      2  C   UNK A   1      -6.713   4.337 128.962  0.00  0.00    +0.000 C 
ATOM      3  O   UNK A   1      -6.632   4.530 127.739  0.00  0.00    +0.000 OA
ATOM      4  N   PRO A   2      -5.512   4.072 129.608  0.00  0.00    +0.000 N 
ATOM      5  CD  PRO A   2      -5.225   3.926 131.015  0.00  0.00    +0.000 C 
ATOM      6  CG  PRO A   2      -4.100   4.860 131.289  0.00  0.00    +0.000 C 
ATOM      7  CB  PRO A   2      -3.265   4.727 130.029  0.00  0.00    +0.000 C 
ATOM      8  CA  PRO A   2      -4.241   4.345 128.895  0.00  0.00    +0.000 C 
BRANCH   8   9
ATOM      9  C   PRO A   2      -3.534   3.297 127.989  0.00  0.00    +0.000 C 
ATOM     10  OXT PRO A   2      -4.105   2.293 127.597  0.00  0.00    +0.000 OA
BRANCH   9  11
ATOM     11  O   PRO A   2      -2.293   3.565 127.548  0.00  0.00    +0.000 OA
ATOM     12  H   PRO A   2      -1.858   4.309 127.987  0.00  0.00    +0.000 HD
ENDBRANCH   9  11
ENDBRANCH   8   9
ENDBRANCH   1   2
BRANCH   1  13
ATOM     13  N   UNK A   1      -9.063   5.540 129.356  0.00  0.00    +0.000 NA
ATOM     14  H   UNK A   1      -8.701   5.942 128.492  0.00  0.00    +0.000 HD
BRANCH  13  15
ATOM     15  C   UNK A   1      -9.136   6.642 130.368  0.00  0.00    +0.000 C 
BRANCH  15  16
ATOM     16  C   UNK A   1      -7.835   6.777 131.208  0.00  0.00    +0.000 C 
ATOM     17  O   UNK A   1      -6.856   7.365 130.818  0.00  0.00    +0.000 OA
BRANCH  16  18
ATOM     18  O   UNK A   1      -7.894   6.219 132.445  0.00  0.00    +0.000 OA
ATOM     19  H   UNK A   1      -7.603   6.852 133.125  0.00  0.00    +0.000 HD
ENDBRANCH  16  18
ENDBRANCH  15  16
BRANCH  15  20
ATOM     20  C   UNK A   1     -10.264   6.508 131.430  0.00  0.00    +0.000 C 
BRANCH  20  21
ATOM     21  C   UNK A   1     -11.612   6.154 130.853  0.00  0.00    +0.000 C 
BRANCH  21  22
ATOM     22  C   UNK A   1     -12.378   7.025 129.915  0.00  0.00    +0.000 A 
ATOM     23  C   UNK A   1     -12.894   6.578 128.694  0.00  0.00    +0.000 A 
ATOM     24  C   UNK A   1     -13.573   7.363 127.778  0.00  0.00    +0.000 A 
ATOM     25  C   UNK A   1     -13.651   8.698 128.046  0.00  0.00    +0.000 A 
ATOM     26  C   UNK A   1     -12.951   9.205 129.144  0.00  0.00    +0.000 A 
ATOM     27  C   UNK A   1     -12.331   8.379 130.080  0.00  0.00    +0.000 A 
ENDBRANCH  21  22
ENDBRANCH  20  21
ENDBRANCH  15  20
ENDBRANCH  13  15
ENDBRANCH   1  13
BRANCH   1  28
ATOM     28  C   UNK A   1      -9.168   3.048 129.758  0.00  0.00    +0.000 C 
BRANCH  28  29
ATOM     29  C   UNK A   1     -10.080   2.874 130.968  0.00  0.00    +0.000 C 
BRANCH  29  30
ATOM     30  C   UNK A   1      -9.734   2.053 132.203  0.00  0.00    +0.000 C 
BRANCH  30  31
ATOM     31  C   UNK A   1      -8.988   2.890 133.269  0.00  0.00    +0.000 C 
BRANCH  31  32
ATOM     32  N   UNK A   1      -9.736   3.979 133.863  0.00  0.00    +0.000 NA
ATOM     33  H   UNK A   1     -10.441   3.565 134.483  0.00  0.00    +0.000 HD
ATOM     34  H   UNK A   1     -10.296   4.384 133.109  0.00  0.00    +0.000 HD
ENDBRANCH  31  32
ENDBRANCH  30  31
ENDBRANCH  29  30
ENDBRANCH  28  29
ENDBRANCH   1  28
TORSDOF 15
ENDMDL
MODEL 8
REMARK VINA RESULT:      -6.8      3.808      7.376
REMARK  Name = Lisinopril
REMARK  15 active torsions:
REMARK  status: ('A' for Active; 'I' for Inactive)
REMARK    1  A    between atoms: N_1  and  C_2
REMARK    2  A    between atoms: C_2  and  C_3
REMARK    3  A    between atoms: C_3  and  C_4
REMARK    4  A    between atoms: C_4  and  C_5
REMARK    5  A    between atoms: C_5  and  C_6
REMARK    6  A    between atoms: C_6  and  N_7
REMARK    7  A    between atoms: C_6  and  C_20
REMARK    8  A    between atoms: N_7  and  C_8
REMARK    9  A    between atoms: C_8  and  C_9
REMARK   10  A    between atoms: C_8  and  C_17
REMARK   11  A    between atoms: C_9  and  C_10
REMARK   12  A    between atoms: C_10  and  C_11
REMARK   13  A    between atoms: C_17  and  O_18
REMARK   14  A    between atoms: CA_26  and  C_27
REMARK   15  A    between atoms: C_27  and  O_28
REMARK                            x       y       z     vdW  Elec       q    Type
REMARK                         _______ _______ _______ _____ _____    ______ ____
ROOT
ATOM      1  C   UNK A   1      -7.927   4.081 129.622  0.00  0.00    +0.000 C 
ENDROOT
BRANCH   1   2
ATOM      2  C   UNK A   1      -7.948   4.195 127.990  0.00  0.00    +0.000 C 
ATOM      3  O   UNK A   1      -8.625   5.083 127.448  0.00  0.00    +0.000 OA
ATOM      4  N   PRO A   2      -7.321   3.307 127.124  0.00  0.00    +0.000 N 
ATOM      5  CD  PRO A   2      -6.376   2.251 127.400  0.00  0.00    +0.000 C 
ATOM      6  CG  PRO A   2      -5.223   2.505 126.493  0.00  0.00    +0.000 C 
ATOM      7  CB  PRO A   2      -5.915   2.991 125.233  0.00  0.00    +0.000 C 
ATOM      8  CA  PRO A   2      -7.237   3.650 125.685  0.00  0.00    +0.000 C 
BRANCH   8   9
ATOM      9  C   PRO A   2      -8.338   3.266 124.655  0.00  0.00    +0.000 C 
ATOM     10  OXT PRO A   2      -9.328   2.631 124.976  0.00  0.00    +0.000 OA
BRANCH   9  11
ATOM     11  O   PRO A   2      -8.235   3.739 123.402  0.00  0.00    +0.000 OA
ATOM     12  H   PRO A   2      -7.413   3.511 122.948  0.00  0.00    +0.000 HD
ENDBRANCH   9  11
ENDBRANCH   8   9
ENDBRANCH   1   2
BRANCH   1  13
ATOM     13  N   UNK A   1      -9.208   4.613 130.305  0.00  0.00    +0.000 NA
ATOM     14  H   UNK A   1      -9.986   4.392 129.684  0.00  0.00    +0.000 HD
BRANCH  13  15
ATOM     15  C   UNK A   1      -9.288   6.075 130.621  0.00  0.00    +0.000 C 
BRANCH  15  16
ATOM     16  C   UNK A   1      -7.982   6.626 131.260  0.00  0.00    +0.000 C 
ATOM     17  O   UNK A   1      -7.231   7.373 130.684  0.00  0.00    +0.000 OA
BRANCH  16  18
ATOM     18  O   UNK A   1      -7.768   6.237 132.544  0.00  0.00    +0.000 OA
ATOM     19  H   UNK A   1      -8.577   6.342 133.077  0.00  0.00    +0.000 HD
ENDBRANCH  16  18
ENDBRANCH  15  16
BRANCH  15  20
ATOM     20  C   UNK A   1     -10.406   6.489 131.619  0.00  0.00    +0.000 C 
BRANCH  20  21
ATOM     21  C   UNK A   1     -11.804   6.220 131.121  0.00  0.00    +0.000 C 
BRANCH  21  22
ATOM     22  C   UNK A   1     -12.493   7.031 130.076  0.00  0.00    +0.000 A 
ATOM     23  C   UNK A   1     -12.955   6.500 128.867  0.00  0.00    +0.000 A 
ATOM     24  C   UNK A   1     -13.561   7.225 127.856  0.00  0.00    +0.000 A 
ATOM     25  C   UNK A   1     -13.614   8.578 128.012  0.00  0.00    +0.000 A 
ATOM     26  C   UNK A   1     -12.959   9.156 129.104  0.00  0.00    +0.000 A 
ATOM     27  C   UNK A   1     -12.415   8.392 130.135  0.00  0.00    +0.000 A 
ENDBRANCH  21  22
ENDBRANCH  20  21
ENDBRANCH  15  20
ENDBRANCH  13  15
ENDBRANCH   1  13
BRANCH   1  28
ATOM     28  C   UNK A   1      -7.445   2.811 130.470  0.00  0.00    +0.000 C 
BRANCH  28  29
ATOM     29  C   UNK A   1      -7.143   2.964 131.957  0.00  0.00    +0.000 C 
BRANCH  29  30
ATOM     30  C   UNK A   1      -7.925   2.287 133.074  0.00  0.00    +0.000 C 
BRANCH  30  31
ATOM     31  C   UNK A   1      -9.389   2.783 133.143  0.00  0.00    +0.000 C 
BRANCH  31  32
ATOM     32  N   UNK A   1      -9.598   4.067 133.782  0.00  0.00    +0.000 NA
ATOM     33  H   UNK A   1     -10.610   4.190 133.899  0.00  0.00    +0.000 HD
ATOM     34  H   UNK A   1      -9.355   4.774 133.085  0.00  0.00    +0.000 HD
ENDBRANCH  31  32
ENDBRANCH  30  31
ENDBRANCH  29  30
ENDBRANCH  28  29
ENDBRANCH   1  28
TORSDOF 15
ENDMDL
MODEL 9
REMARK VINA RESULT:      -6.7      2.326      3.030
REMARK  Name = Lisinopril
REMARK  15 active torsions:
REMARK  status: ('A' for Active; 'I' for Inactive)
REMARK    1  A    between atoms: N_1  and  C_2
REMARK    2  A    between atoms: C_2  and  C_3
REMARK    3  A    between atoms: C_3  and  C_4
REMARK    4  A    between atoms: C_4  and  C_5
REMARK    5  A    between atoms: C_5  and  C_6
REMARK    6  A    between atoms: C_6  and  N_7
REMARK    7  A    between atoms: C_6  and  C_20
REMARK    8  A    between atoms: N_7  and  C_8
REMARK    9  A    between atoms: C_8  and  C_9
REMARK   10  A    between atoms: C_8  and  C_17
REMARK   11  A    between atoms: C_9  and  C_10
REMARK   12  A    between atoms: C_10  and  C_11
REMARK   13  A    between atoms: C_17  and  O_18
REMARK   14  A    between atoms: CA_26  and  C_27
REMARK   15  A    between atoms: C_27  and  O_28
REMARK                            x       y       z     vdW  Elec       q    Type
REMARK                         _______ _______ _______ _____ _____    ______ ____
ROOT
ATOM      1  C   UNK A   1      -6.501   1.112 125.337  0.00  0.00    +0.000 C 
ENDROOT
BRANCH   1   2
ATOM      2  C   UNK A   1      -7.464  -0.200 125.162  0.00  0.00    +0.000 C 
ATOM      3  O   UNK A   1      -8.680  -0.045 124.973  0.00  0.00    +0.000 OA
ATOM      4  N   PRO A   2      -7.042  -1.518 125.294  0.00  0.00    +0.000 N 
ATOM      5  CD  PRO A   2      -5.708  -2.060 125.396  0.00  0.00    +0.000 C 
ATOM      6  CG  PRO A   2      -5.627  -3.112 124.347  0.00  0.00    +0.000 C 
ATOM      7  CB  PRO A   2      -7.015  -3.723 124.405  0.00  0.00    +0.000 C 
ATOM      8  CA  PRO A   2      -7.964  -2.608 124.897  0.00  0.00    +0.000 C 
BRANCH   8   9
ATOM      9  C   PRO A   2      -8.989  -3.250 125.874  0.00  0.00    +0.000 C 
ATOM     10  OXT PRO A   2      -8.641  -3.976 126.790  0.00  0.00    +0.000 OA
BRANCH   9  11
ATOM     11  O   PRO A   2     -10.284  -2.909 125.758  0.00  0.00    +0.000 OA
ATOM     12  H   PRO A   2     -10.876  -3.635 125.524  0.00  0.00    +0.000 HD
ENDBRANCH   9  11
ENDBRANCH   8   9
ENDBRANCH   1   2
BRANCH   1  13
ATOM     13  N   UNK A   1      -6.869   2.289 124.405  0.00  0.00    +0.000 NA
ATOM     14  H   UNK A   1      -6.719   1.966 123.450  0.00  0.00    +0.000 HD
BRANCH  13  15
ATOM     15  C   UNK A   1      -6.124   3.579 124.565  0.00  0.00    +0.000 C 
BRANCH  15  16
ATOM     16  C   UNK A   1      -7.030   4.743 125.053  0.00  0.00    +0.000 C 
ATOM     17  O   UNK A   1      -6.595   5.777 125.495  0.00  0.00    +0.000 OA
BRANCH  16  18
ATOM     18  O   UNK A   1      -8.363   4.529 124.902  0.00  0.00    +0.000 OA
ATOM     19  H   UNK A   1      -8.615   4.558 123.962  0.00  0.00    +0.000 HD
ENDBRANCH  16  18
ENDBRANCH  15  16
BRANCH  15  20
ATOM     20  C   UNK A   1      -5.450   4.131 123.277  0.00  0.00    +0.000 C 
BRANCH  20  21
ATOM     21  C   UNK A   1      -5.945   3.495 122.003  0.00  0.00    +0.000 C 
BRANCH  21  22
ATOM     22  C   UNK A   1      -6.188   4.239 120.733  0.00  0.00    +0.000 A 
ATOM     23  C   UNK A   1      -7.183   3.891 119.812  0.00  0.00    +0.000 A 
ATOM     24  C   UNK A   1      -7.413   4.530 118.606  0.00  0.00    +0.000 A 
ATOM     25  C   UNK A   1      -6.532   5.505 118.245  0.00  0.00    +0.000 A 
ATOM     26  C   UNK A   1      -5.402   5.718 119.039  0.00  0.00    +0.000 A 
ATOM     27  C   UNK A   1      -5.235   5.104 120.278  0.00  0.00    +0.000 A 
ENDBRANCH  21  22
ENDBRANCH  20  21
ENDBRANCH  15  20
ENDBRANCH  13  15
ENDBRANCH   1  13
BRANCH   1  28
ATOM     28  C   UNK A   1      -6.028   1.752 126.726  0.00  0.00    +0.000 C 
BRANCH  28  29
ATOM     29  C   UNK A   1      -4.599   1.535 127.212  0.00  0.00    +0.000 C 
BRANCH  29  30
ATOM     30  C   UNK A   1      -3.747   2.595 127.898  0.00  0.00    +0.000 C 
BRANCH  30  31
ATOM     31  C   UNK A   1      -2.763   3.275 126.917  0.00  0.00    +0.000 C 
BRANCH  31  32
ATOM     32  N   UNK A   1      -1.483   2.620 126.740  0.00  0.00    +0.000 NA
ATOM     33  H   UNK A   1      -1.465   2.233 125.790  0.00  0.00    +0.000 HD
ATOM     34  H   UNK A   1      -1.506   1.787 127.333  0.00  0.00    +0.000 HD
ENDBRANCH  31  32
ENDBRANCH  30  31
ENDBRANCH  29  30
ENDBRANCH  28  29
ENDBRANCH   1  28
TORSDOF 15
ENDMDL
