MODEL 1
REMARK VINA RESULT:      -7.8      0.000      0.000
REMARK  Name = Lisuride
REMARK  6 active torsions:
REMARK  status: ('A' for Active; 'I' for Inactive)
REMARK    1  A    between atoms: C_15  and  N_19
REMARK    2  A    between atoms: N_17  and  C_18
REMARK    3  A    between atoms: N_22  and  C_23
REMARK    4  A    between atoms: N_22  and  C_25
REMARK    5  A    between atoms: C_23  and  C_24
REMARK    6  A    between atoms: C_25  and  C_26
REMARK                            x       y       z     vdW  Elec       q    Type
REMARK                         _______ _______ _______ _____ _____    ______ ____
ROOT
ATOM      1  C   UNL     1      -7.505   1.664 126.443  0.00  0.00    +0.000 C 
ATOM      2  C   UNL     1      -6.304   0.995 127.211  0.00  0.00    +0.000 C 
ATOM      3  C   UNL     1      -6.662  -0.379 127.643  0.00  0.00    +0.000 A 
ATOM      4  C   UNL     1      -6.235  -1.186 128.670  0.00  0.00    +0.000 A 
ATOM      5  N   UNL     1      -6.904  -2.385 128.553  0.00  0.00    +0.000 N 
ATOM      6  C   UNL     1      -7.761  -2.351 127.471  0.00  0.00    +0.000 A 
ATOM      7  C   UNL     1      -8.635  -3.299 126.938  0.00  0.00    +0.000 A 
ATOM      8  C   UNL     1      -9.379  -2.907 125.813  0.00  0.00    +0.000 A 
ATOM      9  C   UNL     1      -9.264  -1.624 125.253  0.00  0.00    +0.000 A 
ATOM     10  C   UNL     1      -8.380  -0.682 125.789  0.00  0.00    +0.000 A 
ATOM     11  C   UNL     1      -7.630  -1.091 126.906  0.00  0.00    +0.000 A 
ATOM     12  C   UNL     1      -8.181   0.739 125.378  0.00  0.00    +0.000 C 
ATOM     13  C   UNL     1      -8.600   1.227 124.184  0.00  0.00    +0.000 C 
ATOM     14  C   UNL     1      -8.578   2.724 123.840  0.00  0.00    +0.000 C 
ATOM     15  C   UNL     1      -8.243   3.540 125.104  0.00  0.00    +0.000 C 
ATOM     16  N   UNL     1      -7.092   2.956 125.833  0.00  0.00    +0.000 NA
ATOM     17  C   UNL     1      -6.609   3.920 126.815  0.00  0.00    +0.000 C 
ATOM     18  H   UNL     1      -6.783  -3.178 129.168  0.00  0.00    +0.000 HD
ENDROOT
BRANCH  14  19
ATOM     19  N   UNL     1      -7.599   2.927 122.780  0.00  0.00    +0.000 N 
ATOM     20  C   UNL     1      -7.848   3.461 121.540  0.00  0.00    +0.000 C 
ATOM     21  O   UNL     1      -9.012   3.644 121.154  0.00  0.00    +0.000 OA
ATOM     22  N   UNL     1      -6.756   3.762 120.707  0.00  0.00    +0.000 N 
ATOM     23  H   UNL     1      -6.720   3.076 123.204  0.00  0.00    +0.000 HD
BRANCH  22  24
ATOM     24  C   UNL     1      -5.313   3.600 120.971  0.00  0.00    +0.000 C 
ATOM     25  C   UNL     1      -4.609   4.596 121.851  0.00  0.00    +0.000 C 
ENDBRANCH  22  24
BRANCH  22  26
ATOM     26  C   UNL     1      -7.096   4.288 119.355  0.00  0.00    +0.000 C 
ATOM     27  C   UNL     1      -6.144   5.338 118.763  0.00  0.00    +0.000 C 
ENDBRANCH  22  26
ENDBRANCH  14  19
TORSDOF 3
ENDMDL
MODEL 2
REMARK VINA RESULT:      -7.6      3.461      4.807
REMARK  Name = Lisuride
REMARK  6 active torsions:
REMARK  status: ('A' for Active; 'I' for Inactive)
REMARK    1  A    between atoms: C_15  and  N_19
REMARK    2  A    between atoms: N_17  and  C_18
REMARK    3  A    between atoms: N_22  and  C_23
REMARK    4  A    between atoms: N_22  and  C_25
REMARK    5  A    between atoms: C_23  and  C_24
REMARK    6  A    between atoms: C_25  and  C_26
REMARK                            x       y       z     vdW  Elec       q    Type
REMARK                         _______ _______ _______ _____ _____    ______ ____
ROOT
ATOM      1  C   UNL     1      -7.950   0.792 126.917  0.00  0.00    +0.000 C 
ATOM      2  C   UNL     1      -7.850  -0.553 127.729  0.00  0.00    +0.000 C 
ATOM      3  C   UNL     1      -8.123  -1.716 126.848  0.00  0.00    +0.000 A 
ATOM      4  C   UNL     1      -8.607  -2.982 127.080  0.00  0.00    +0.000 A 
ATOM      5  N   UNL     1      -8.612  -3.644 125.871  0.00  0.00    +0.000 N 
ATOM      6  C   UNL     1      -8.148  -2.815 124.869  0.00  0.00    +0.000 A 
ATOM      7  C   UNL     1      -7.959  -3.015 123.502  0.00  0.00    +0.000 A 
ATOM      8  C   UNL     1      -7.472  -1.920 122.767  0.00  0.00    +0.000 A 
ATOM      9  C   UNL     1      -7.198  -0.682 123.369  0.00  0.00    +0.000 A 
ATOM     10  C   UNL     1      -7.384  -0.492 124.742  0.00  0.00    +0.000 A 
ATOM     11  C   UNL     1      -7.857  -1.599 125.469  0.00  0.00    +0.000 A 
ATOM     12  C   UNL     1      -7.219   0.762 125.534  0.00  0.00    +0.000 C 
ATOM     13  C   UNL     1      -6.528   1.837 125.079  0.00  0.00    +0.000 C 
ATOM     14  C   UNL     1      -6.525   3.194 125.799  0.00  0.00    +0.000 C 
ATOM     15  C   UNL     1      -7.575   3.183 126.927  0.00  0.00    +0.000 C 
ATOM     16  N   UNL     1      -7.485   1.943 127.735  0.00  0.00    +0.000 NA
ATOM     17  C   UNL     1      -8.252   2.115 128.963  0.00  0.00    +0.000 C 
ATOM     18  H   UNL     1      -8.909  -4.601 125.737  0.00  0.00    +0.000 HD
ENDROOT
BRANCH  14  19
ATOM     19  N   UNL     1      -5.179   3.431 126.304  0.00  0.00    +0.000 N 
ATOM     20  C   UNL     1      -4.684   4.629 126.756  0.00  0.00    +0.000 C 
ATOM     21  O   UNL     1      -5.320   5.679 126.586  0.00  0.00    +0.000 OA
ATOM     22  N   UNL     1      -3.426   4.641 127.386  0.00  0.00    +0.000 N 
ATOM     23  H   UNL     1      -4.852   2.590 126.705  0.00  0.00    +0.000 HD
BRANCH  22  24
ATOM     24  C   UNL     1      -2.514   3.514 127.662  0.00  0.00    +0.000 C 
ATOM     25  C   UNL     1      -1.592   3.031 126.577  0.00  0.00    +0.000 C 
ENDBRANCH  22  24
BRANCH  22  26
ATOM     26  C   UNL     1      -2.923   5.979 127.805  0.00  0.00    +0.000 C 
ATOM     27  C   UNL     1      -2.297   6.073 129.204  0.00  0.00    +0.000 C 
ENDBRANCH  22  26
ENDBRANCH  14  19
TORSDOF 3
ENDMDL
MODEL 3
REMARK VINA RESULT:      -7.3      7.576      9.848
REMARK  Name = Lisuride
REMARK  6 active torsions:
REMARK  status: ('A' for Active; 'I' for Inactive)
REMARK    1  A    between atoms: C_15  and  N_19
REMARK    2  A    between atoms: N_17  and  C_18
REMARK    3  A    between atoms: N_22  and  C_23
REMARK    4  A    between atoms: N_22  and  C_25
REMARK    5  A    between atoms: C_23  and  C_24
REMARK    6  A    between atoms: C_25  and  C_26
REMARK                            x       y       z     vdW  Elec       q    Type
REMARK                         _______ _______ _______ _____ _____    ______ ____
ROOT
ATOM      1  C   UNL     1      -7.213   4.503 132.630  0.00  0.00    +0.000 C 
ATOM      2  C   UNL     1      -7.003   4.954 134.125  0.00  0.00    +0.000 C 
ATOM      3  C   UNL     1      -5.680   5.605 134.291  0.00  0.00    +0.000 A 
ATOM      4  C   UNL     1      -4.828   5.751 135.361  0.00  0.00    +0.000 A 
ATOM      5  N   UNL     1      -3.748   6.488 134.925  0.00  0.00    +0.000 N 
ATOM      6  C   UNL     1      -3.894   6.805 133.589  0.00  0.00    +0.000 A 
ATOM      7  C   UNL     1      -3.091   7.529 132.706  0.00  0.00    +0.000 A 
ATOM      8  C   UNL     1      -3.554   7.643 131.385  0.00  0.00    +0.000 A 
ATOM      9  C   UNL     1      -4.756   7.053 130.962  0.00  0.00    +0.000 A 
ATOM     10  C   UNL     1      -5.557   6.335 131.856  0.00  0.00    +0.000 A 
ATOM     11  C   UNL     1      -5.091   6.240 133.179  0.00  0.00    +0.000 A 
ATOM     12  C   UNL     1      -6.816   5.584 131.572  0.00  0.00    +0.000 C 
ATOM     13  C   UNL     1      -7.552   5.774 130.449  0.00  0.00    +0.000 C 
ATOM     14  C   UNL     1      -8.729   4.869 130.058  0.00  0.00    +0.000 C 
ATOM     15  C   UNL     1      -8.766   3.639 130.988  0.00  0.00    +0.000 C 
ATOM     16  N   UNL     1      -8.607   4.034 132.408  0.00  0.00    +0.000 NA
ATOM     17  C   UNL     1      -8.971   2.908 133.261  0.00  0.00    +0.000 C 
ATOM     18  H   UNL     1      -2.964   6.761 135.501  0.00  0.00    +0.000 HD
ENDROOT
BRANCH  14  19
ATOM     19  N   UNL     1      -9.950   5.658 130.142  0.00  0.00    +0.000 N 
ATOM     20  C   UNL     1     -10.517   6.384 129.123  0.00  0.00    +0.000 C 
ATOM     21  O   UNL     1      -9.900   6.573 128.065  0.00  0.00    +0.000 OA
ATOM     22  N   UNL     1     -11.796   6.933 129.321  0.00  0.00    +0.000 N 
ATOM     23  H   UNL     1     -10.533   5.245 130.824  0.00  0.00    +0.000 HD
BRANCH  22  24
ATOM     24  C   UNL     1     -12.676   6.840 130.503  0.00  0.00    +0.000 C 
ATOM     25  C   UNL     1     -12.834   8.037 131.399  0.00  0.00    +0.000 C 
ENDBRANCH  22  24
BRANCH  22  26
ATOM     26  C   UNL     1     -12.331   7.753 128.199  0.00  0.00    +0.000 C 
ATOM     27  C   UNL     1     -13.793   7.506 127.799  0.00  0.00    +0.000 C 
ENDBRANCH  22  26
ENDBRANCH  14  19
TORSDOF 3
ENDMDL
MODEL 4
REMARK VINA RESULT:      -7.2      4.973      7.321
REMARK  Name = Lisuride
REMARK  6 active torsions:
REMARK  status: ('A' for Active; 'I' for Inactive)
REMARK    1  A    between atoms: C_15  and  N_19
REMARK    2  A    between atoms: N_17  and  C_18
REMARK    3  A    between atoms: N_22  and  C_23
REMARK    4  A    between atoms: N_22  and  C_25
REMARK    5  A    between atoms: C_23  and  C_24
REMARK    6  A    between atoms: C_25  and  C_26
REMARK                            x       y       z     vdW  Elec       q    Type
REMARK                         _______ _______ _______ _____ _____    ______ ____
ROOT
ATOM      1  C   UNL     1      -6.036   4.605 129.525  0.00  0.00    +0.000 C 
ATOM      2  C   UNL     1      -4.845   5.044 128.592  0.00  0.00    +0.000 C 
ATOM      3  C   UNL     1      -4.352   3.891 127.798  0.00  0.00    +0.000 A 
ATOM      4  C   UNL     1      -3.137   3.587 127.230  0.00  0.00    +0.000 A 
ATOM      5  N   UNL     1      -3.283   2.383 126.576  0.00  0.00    +0.000 N 
ATOM      6  C   UNL     1      -4.570   1.908 126.728  0.00  0.00    +0.000 A 
ATOM      7  C   UNL     1      -5.205   0.757 126.260  0.00  0.00    +0.000 A 
ATOM      8  C   UNL     1      -6.549   0.586 126.628  0.00  0.00    +0.000 A 
ATOM      9  C   UNL     1      -7.225   1.515 127.437  0.00  0.00    +0.000 A 
ATOM     10  C   UNL     1      -6.583   2.669 127.896  0.00  0.00    +0.000 A 
ATOM     11  C   UNL     1      -5.242   2.837 127.508  0.00  0.00    +0.000 A 
ATOM     12  C   UNL     1      -7.112   3.719 128.816  0.00  0.00    +0.000 C 
ATOM     13  C   UNL     1      -8.435   3.875 129.074  0.00  0.00    +0.000 C 
ATOM     14  C   UNL     1      -8.967   4.815 130.166  0.00  0.00    +0.000 C 
ATOM     15  C   UNL     1      -7.793   5.331 131.022  0.00  0.00    +0.000 C 
ATOM     16  N   UNL     1      -6.667   5.786 130.172  0.00  0.00    +0.000 NA
ATOM     17  C   UNL     1      -5.733   6.555 130.986  0.00  0.00    +0.000 C 
ATOM     18  H   UNL     1      -2.552   1.915 126.056  0.00  0.00    +0.000 HD
ENDROOT
BRANCH  14  19
ATOM     19  N   UNL     1      -9.689   5.898 129.513  0.00  0.00    +0.000 N 
ATOM     20  C   UNL     1     -10.847   6.485 129.960  0.00  0.00    +0.000 C 
ATOM     21  O   UNL     1     -11.487   5.983 130.897  0.00  0.00    +0.000 OA
ATOM     22  N   UNL     1     -11.308   7.644 129.311  0.00  0.00    +0.000 N 
ATOM     23  H   UNL     1      -9.033   6.442 129.014  0.00  0.00    +0.000 HD
BRANCH  22  24
ATOM     24  C   UNL     1     -10.708   8.375 128.177  0.00  0.00    +0.000 C 
ATOM     25  C   UNL     1     -10.959   7.892 126.775  0.00  0.00    +0.000 C 
ENDBRANCH  22  24
BRANCH  22  26
ATOM     26  C   UNL     1     -12.597   8.198 129.809  0.00  0.00    +0.000 C 
ATOM     27  C   UNL     1     -12.928   9.643 129.408  0.00  0.00    +0.000 C 
ENDBRANCH  22  26
ENDBRANCH  14  19
TORSDOF 3
ENDMDL
MODEL 5
REMARK VINA RESULT:      -7.1      9.283     11.726
REMARK  Name = Lisuride
REMARK  6 active torsions:
REMARK  status: ('A' for Active; 'I' for Inactive)
REMARK    1  A    between atoms: C_15  and  N_19
REMARK    2  A    between atoms: N_17  and  C_18
REMARK    3  A    between atoms: N_22  and  C_23
REMARK    4  A    between atoms: N_22  and  C_25
REMARK    5  A    between atoms: C_23  and  C_24
REMARK    6  A    between atoms: C_25  and  C_26
REMARK                            x       y       z     vdW  Elec       q    Type
REMARK                         _______ _______ _______ _____ _____    ______ ____
ROOT
ATOM      1  C   UNL     1      -5.007   6.633 131.181  0.00  0.00    +0.000 C 
ATOM      2  C   UNL     1      -6.394   7.264 130.783  0.00  0.00    +0.000 C 
ATOM      3  C   UNL     1      -7.505   6.548 131.458  0.00  0.00    +0.000 A 
ATOM      4  C   UNL     1      -8.831   6.358 131.148  0.00  0.00    +0.000 A 
ATOM      5  N   UNL     1      -9.390   5.630 132.176  0.00  0.00    +0.000 N 
ATOM      6  C   UNL     1      -8.437   5.344 133.133  0.00  0.00    +0.000 A 
ATOM      7  C   UNL     1      -8.504   4.653 134.343  0.00  0.00    +0.000 A 
ATOM      8  C   UNL     1      -7.308   4.540 135.070  0.00  0.00    +0.000 A 
ATOM      9  C   UNL     1      -6.099   5.082 134.605  0.00  0.00    +0.000 A 
ATOM     10  C   UNL     1      -6.042   5.778 133.394  0.00  0.00    +0.000 A 
ATOM     11  C   UNL     1      -7.249   5.898 132.682  0.00  0.00    +0.000 A 
ATOM     12  C   UNL     1      -4.845   6.352 132.711  0.00  0.00    +0.000 C 
ATOM     13  C   UNL     1      -3.668   6.573 133.347  0.00  0.00    +0.000 C 
ATOM     14  C   UNL     1      -2.381   6.971 132.609  0.00  0.00    +0.000 C 
ATOM     15  C   UNL     1      -2.598   6.846 131.087  0.00  0.00    +0.000 C 
ATOM     16  N   UNL     1      -3.881   7.463 130.674  0.00  0.00    +0.000 NA
ATOM     17  C   UNL     1      -3.894   7.614 129.224  0.00  0.00    +0.000 C 
ATOM     18  H   UNL     1     -10.361   5.349 132.225  0.00  0.00    +0.000 HD
ENDROOT
BRANCH  14  19
ATOM     19  N   UNL     1      -2.039   8.330 133.004  0.00  0.00    +0.000 N 
ATOM     20  C   UNL     1      -0.770   8.838 133.144  0.00  0.00    +0.000 C 
ATOM     21  O   UNL     1       0.215   8.087 133.119  0.00  0.00    +0.000 OA
ATOM     22  N   UNL     1      -0.619  10.221 133.347  0.00  0.00    +0.000 N 
ATOM     23  H   UNL     1      -2.768   8.926 132.708  0.00  0.00    +0.000 HD
BRANCH  22  24
ATOM     24  C   UNL     1      -1.656  11.268 133.427  0.00  0.00    +0.000 C 
ATOM     25  C   UNL     1      -2.352  11.517 134.737  0.00  0.00    +0.000 C 
ENDBRANCH  22  24
BRANCH  22  26
ATOM     26  C   UNL     1       0.778  10.699 133.544  0.00  0.00    +0.000 C 
ATOM     27  C   UNL     1       1.270  11.802 132.596  0.00  0.00    +0.000 C 
ENDBRANCH  22  26
ENDBRANCH  14  19
TORSDOF 3
ENDMDL
MODEL 6
REMARK VINA RESULT:      -7.1      4.838      7.023
REMARK  Name = Lisuride
REMARK  6 active torsions:
REMARK  status: ('A' for Active; 'I' for Inactive)
REMARK    1  A    between atoms: C_15  and  N_19
REMARK    2  A    between atoms: N_17  and  C_18
REMARK    3  A    between atoms: N_22  and  C_23
REMARK    4  A    between atoms: N_22  and  C_25
REMARK    5  A    between atoms: C_23  and  C_24
REMARK    6  A    between atoms: C_25  and  C_26
REMARK                            x       y       z     vdW  Elec       q    Type
REMARK                         _______ _______ _______ _____ _____    ______ ____
ROOT
ATOM      1  C   UNL     1      -5.758  -1.216 130.439  0.00  0.00    +0.000 C 
ATOM      2  C   UNL     1      -4.267  -0.794 130.716  0.00  0.00    +0.000 C 
ATOM      3  C   UNL     1      -3.684  -1.620 131.803  0.00  0.00    +0.000 A 
ATOM      4  C   UNL     1      -2.679  -1.406 132.716  0.00  0.00    +0.000 A 
ATOM      5  N   UNL     1      -2.554  -2.557 133.463  0.00  0.00    +0.000 N 
ATOM      6  C   UNL     1      -3.472  -3.500 133.046  0.00  0.00    +0.000 A 
ATOM      7  C   UNL     1      -3.735  -4.802 133.472  0.00  0.00    +0.000 A 
ATOM      8  C   UNL     1      -4.776  -5.481 132.816  0.00  0.00    +0.000 A 
ATOM      9  C   UNL     1      -5.526  -4.882 131.790  0.00  0.00    +0.000 A 
ATOM     10  C   UNL     1      -5.250  -3.579 131.366  0.00  0.00    +0.000 A 
ATOM     11  C   UNL     1      -4.198  -2.915 132.019  0.00  0.00    +0.000 A 
ATOM     12  C   UNL     1      -5.982  -2.761 130.353  0.00  0.00    +0.000 C 
ATOM     13  C   UNL     1      -6.831  -3.301 129.443  0.00  0.00    +0.000 C 
ATOM     14  C   UNL     1      -7.735  -2.451 128.537  0.00  0.00    +0.000 C 
ATOM     15  C   UNL     1      -7.681  -0.977 128.990  0.00  0.00    +0.000 C 
ATOM     16  N   UNL     1      -6.286  -0.537 129.225  0.00  0.00    +0.000 NA
ATOM     17  C   UNL     1      -6.254   0.917 129.328  0.00  0.00    +0.000 C 
ATOM     18  H   UNL     1      -1.884  -2.694 134.208  0.00  0.00    +0.000 HD
ENDROOT
BRANCH  14  19
ATOM     19  N   UNL     1      -7.280  -2.620 127.164  0.00  0.00    +0.000 N 
ATOM     20  C   UNL     1      -8.080  -2.815 126.064  0.00  0.00    +0.000 C 
ATOM     21  O   UNL     1      -9.289  -3.054 126.199  0.00  0.00    +0.000 OA
ATOM     22  N   UNL     1      -7.491  -2.769 124.789  0.00  0.00    +0.000 N 
ATOM     23  H   UNL     1      -6.430  -2.129 127.062  0.00  0.00    +0.000 HD
BRANCH  22  24
ATOM     24  C   UNL     1      -6.082  -2.521 124.423  0.00  0.00    +0.000 C 
ATOM     25  C   UNL     1      -5.214  -3.678 124.013  0.00  0.00    +0.000 C 
ENDBRANCH  22  24
BRANCH  22  26
ATOM     26  C   UNL     1      -8.402  -3.041 123.642  0.00  0.00    +0.000 C 
ATOM     27  C   UNL     1      -8.926  -1.820 122.872  0.00  0.00    +0.000 C 
ENDBRANCH  22  26
ENDBRANCH  14  19
TORSDOF 3
ENDMDL
MODEL 7
REMARK VINA RESULT:      -7.1      3.898      7.000
REMARK  Name = Lisuride
REMARK  6 active torsions:
REMARK  status: ('A' for Active; 'I' for Inactive)
REMARK    1  A    between atoms: C_15  and  N_19
REMARK    2  A    between atoms: N_17  and  C_18
REMARK    3  A    between atoms: N_22  and  C_23
REMARK    4  A    between atoms: N_22  and  C_25
REMARK    5  A    between atoms: C_23  and  C_24
REMARK    6  A    between atoms: C_25  and  C_26
REMARK                            x       y       z     vdW  Elec       q    Type
REMARK                         _______ _______ _______ _____ _____    ______ ____
ROOT
ATOM      1  C   UNL     1      -8.123   1.978 125.493  0.00  0.00    +0.000 C 
ATOM      2  C   UNL     1      -9.254   2.013 124.398  0.00  0.00    +0.000 C 
ATOM      3  C   UNL     1      -9.387   0.687 123.744  0.00  0.00    +0.000 A 
ATOM      4  C   UNL     1      -9.829   0.285 122.505  0.00  0.00    +0.000 A 
ATOM      5  N   UNL     1      -9.757  -1.090 122.472  0.00  0.00    +0.000 N 
ATOM      6  C   UNL     1      -9.266  -1.573 123.669  0.00  0.00    +0.000 A 
ATOM      7  C   UNL     1      -9.018  -2.868 124.126  0.00  0.00    +0.000 A 
ATOM      8  C   UNL     1      -8.492  -2.988 125.423  0.00  0.00    +0.000 A 
ATOM      9  C   UNL     1      -8.215  -1.867 126.222  0.00  0.00    +0.000 A 
ATOM     10  C   UNL     1      -8.473  -0.573 125.758  0.00  0.00    +0.000 A 
ATOM     11  C   UNL     1      -9.013  -0.466 124.465  0.00  0.00    +0.000 A 
ATOM     12  C   UNL     1      -8.176   0.727 126.430  0.00  0.00    +0.000 C 
ATOM     13  C   UNL     1      -7.914   0.829 127.757  0.00  0.00    +0.000 C 
ATOM     14  C   UNL     1      -7.414   2.125 128.413  0.00  0.00    +0.000 C 
ATOM     15  C   UNL     1      -7.055   3.152 127.320  0.00  0.00    +0.000 C 
ATOM     16  N   UNL     1      -8.117   3.234 126.290  0.00  0.00    +0.000 NA
ATOM     17  C   UNL     1      -7.901   4.424 125.474  0.00  0.00    +0.000 C 
ATOM     18  H   UNL     1     -10.028  -1.665 121.686  0.00  0.00    +0.000 HD
ENDROOT
BRANCH  14  19
ATOM     19  N   UNL     1      -8.460   2.612 129.302  0.00  0.00    +0.000 N 
ATOM     20  C   UNL     1      -8.270   3.258 130.498  0.00  0.00    +0.000 C 
ATOM     21  O   UNL     1      -7.144   3.309 131.015  0.00  0.00    +0.000 OA
ATOM     22  N   UNL     1      -9.384   3.829 131.138  0.00  0.00    +0.000 N 
ATOM     23  H   UNL     1      -9.247   2.838 128.749  0.00  0.00    +0.000 HD
BRANCH  22  24
ATOM     24  C   UNL     1     -10.794   3.857 130.701  0.00  0.00    +0.000 C 
ATOM     25  C   UNL     1     -11.429   5.174 130.348  0.00  0.00    +0.000 C 
ENDBRANCH  22  24
BRANCH  22  26
ATOM     26  C   UNL     1      -9.119   4.467 132.458  0.00  0.00    +0.000 C 
ATOM     27  C   UNL     1      -9.387   3.612 133.704  0.00  0.00    +0.000 C 
ENDBRANCH  22  26
ENDBRANCH  14  19
TORSDOF 3
ENDMDL
MODEL 8
REMARK VINA RESULT:      -7.0      3.615      5.459
REMARK  Name = Lisuride
REMARK  6 active torsions:
REMARK  status: ('A' for Active; 'I' for Inactive)
REMARK    1  A    between atoms: C_15  and  N_19
REMARK    2  A    between atoms: N_17  and  C_18
REMARK    3  A    between atoms: N_22  and  C_23
REMARK    4  A    between atoms: N_22  and  C_25
REMARK    5  A    between atoms: C_23  and  C_24
REMARK    6  A    between atoms: C_25  and  C_26
REMARK                            x       y       z     vdW  Elec       q    Type
REMARK                         _______ _______ _______ _____ _____    ______ ____
ROOT
ATOM      1  C   UNL     1      -7.613  -0.498 126.920  0.00  0.00    +0.000 C 
ATOM      2  C   UNL     1      -7.153  -1.806 126.173  0.00  0.00    +0.000 C 
ATOM      3  C   UNL     1      -7.991  -2.043 124.972  0.00  0.00    +0.000 A 
ATOM      4  C   UNL     1      -8.338  -3.174 124.271  0.00  0.00    +0.000 A 
ATOM      5  N   UNL     1      -9.120  -2.773 123.210  0.00  0.00    +0.000 N 
ATOM      6  C   UNL     1      -9.286  -1.402 123.229  0.00  0.00    +0.000 A 
ATOM      7  C   UNL     1      -9.972  -0.531 122.383  0.00  0.00    +0.000 A 
ATOM      8  C   UNL     1      -9.938   0.832 122.721  0.00  0.00    +0.000 A 
ATOM      9  C   UNL     1      -9.261   1.301 123.858  0.00  0.00    +0.000 A 
ATOM     10  C   UNL     1      -8.570   0.421 124.697  0.00  0.00    +0.000 A 
ATOM     11  C   UNL     1      -8.598  -0.939 124.340  0.00  0.00    +0.000 A 
ATOM     12  C   UNL     1      -7.863   0.725 125.976  0.00  0.00    +0.000 C 
ATOM     13  C   UNL     1      -7.501   1.980 126.339  0.00  0.00    +0.000 C 
ATOM     14  C   UNL     1      -6.958   2.323 127.735  0.00  0.00    +0.000 C 
ATOM     15  C   UNL     1      -7.118   1.103 128.666  0.00  0.00    +0.000 C 
ATOM     16  N   UNL     1      -6.660  -0.142 128.004  0.00  0.00    +0.000 NA
ATOM     17  C   UNL     1      -6.520  -1.192 129.006  0.00  0.00    +0.000 C 
ATOM     18  H   UNL     1      -9.513  -3.393 122.514  0.00  0.00    +0.000 HD
ENDROOT
BRANCH  14  19
ATOM     19  N   UNL     1      -5.565   2.723 127.589  0.00  0.00    +0.000 N 
ATOM     20  C   UNL     1      -5.082   4.007 127.649  0.00  0.00    +0.000 C 
ATOM     21  O   UNL     1      -5.858   4.974 127.648  0.00  0.00    +0.000 OA
ATOM     22  N   UNL     1      -3.689   4.200 127.678  0.00  0.00    +0.000 N 
ATOM     23  H   UNL     1      -5.000   1.978 127.906  0.00  0.00    +0.000 HD
BRANCH  22  24
ATOM     24  C   UNL     1      -2.611   3.192 127.667  0.00  0.00    +0.000 C 
ATOM     25  C   UNL     1      -1.725   3.076 126.457  0.00  0.00    +0.000 C 
ENDBRANCH  22  24
BRANCH  22  26
ATOM     26  C   UNL     1      -3.229   5.617 127.689  0.00  0.00    +0.000 C 
ATOM     27  C   UNL     1      -2.264   6.021 128.813  0.00  0.00    +0.000 C 
ENDBRANCH  22  26
ENDBRANCH  14  19
TORSDOF 3
ENDMDL
MODEL 9
REMARK VINA RESULT:      -7.0      2.865      5.902
REMARK  Name = Lisuride
REMARK  6 active torsions:
REMARK  status: ('A' for Active; 'I' for Inactive)
REMARK    1  A    between atoms: C_15  and  N_19
REMARK    2  A    between atoms: N_17  and  C_18
REMARK    3  A    between atoms: N_22  and  C_23
REMARK    4  A    between atoms: N_22  and  C_25
REMARK    5  A    between atoms: C_23  and  C_24
REMARK    6  A    between atoms: C_25  and  C_26
REMARK                            x       y       z     vdW  Elec       q    Type
REMARK                         _______ _______ _______ _____ _____    ______ ____
ROOT
ATOM      1  C   UNL     1      -6.193   3.980 125.115  0.00  0.00    +0.000 C 
ATOM      2  C   UNL     1      -4.709   4.209 125.592  0.00  0.00    +0.000 C 
ATOM      3  C   UNL     1      -4.678   4.643 127.011  0.00  0.00    +0.000 A 
ATOM      4  C   UNL     1      -3.788   5.385 127.751  0.00  0.00    +0.000 A 
ATOM      5  N   UNL     1      -4.272   5.434 129.041  0.00  0.00    +0.000 N 
ATOM      6  C   UNL     1      -5.463   4.742 129.131  0.00  0.00    +0.000 A 
ATOM      7  C   UNL     1      -6.324   4.497 130.202  0.00  0.00    +0.000 A 
ATOM      8  C   UNL     1      -7.481   3.751 129.921  0.00  0.00    +0.000 A 
ATOM      9  C   UNL     1      -7.769   3.280 128.630  0.00  0.00    +0.000 A 
ATOM     10  C   UNL     1      -6.896   3.524 127.564  0.00  0.00    +0.000 A 
ATOM     11  C   UNL     1      -5.736   4.260 127.860  0.00  0.00    +0.000 A 
ATOM     12  C   UNL     1      -7.072   3.171 126.125  0.00  0.00    +0.000 C 
ATOM     13  C   UNL     1      -7.969   2.248 125.695  0.00  0.00    +0.000 C 
ATOM     14  C   UNL     1      -8.294   2.027 124.210  0.00  0.00    +0.000 C 
ATOM     15  C   UNL     1      -7.638   3.139 123.366  0.00  0.00    +0.000 C 
ATOM     16  N   UNL     1      -6.227   3.355 123.766  0.00  0.00    +0.000 NA
ATOM     17  C   UNL     1      -5.560   4.161 122.750  0.00  0.00    +0.000 C 
ATOM     18  H   UNL     1      -3.817   5.905 129.812  0.00  0.00    +0.000 HD
ENDROOT
BRANCH  14  19
ATOM     19  N   UNL     1      -7.818   0.702 123.839  0.00  0.00    +0.000 N 
ATOM     20  C   UNL     1      -8.577  -0.440 123.765  0.00  0.00    +0.000 C 
ATOM     21  O   UNL     1      -9.735  -0.457 124.208  0.00  0.00    +0.000 OA
ATOM     22  N   UNL     1      -8.001  -1.595 123.207  0.00  0.00    +0.000 N 
ATOM     23  H   UNL     1      -7.053   0.815 123.224  0.00  0.00    +0.000 HD
BRANCH  22  24
ATOM     24  C   UNL     1      -6.648  -1.782 122.649  0.00  0.00    +0.000 C 
ATOM     25  C   UNL     1      -5.591  -2.448 123.488  0.00  0.00    +0.000 C 
ENDBRANCH  22  24
BRANCH  22  26
ATOM     26  C   UNL     1      -8.859  -2.813 123.206  0.00  0.00    +0.000 C 
ATOM     27  C   UNL     1      -8.804  -3.697 124.460  0.00  0.00    +0.000 C 
ENDBRANCH  22  26
ENDBRANCH  14  19
TORSDOF 3
ENDMDL
