MODEL 1
REMARK VINA RESULT:      -6.5      0.000      0.000
REMARK  Name = Lodoxamide
REMARK  7 active torsions:
REMARK  status: ('A' for Active; 'I' for Inactive)
REMARK    1  A    between atoms: O_1  and  C_2
REMARK    2  A    between atoms: C_2  and  C_4
REMARK    3  A    between atoms: N_6  and  C_7
REMARK    4  A    between atoms: C_9  and  C_20
REMARK    5  A    between atoms: C_11  and  N_12
REMARK    6  A    between atoms: C_13  and  C_15
REMARK    7  A    between atoms: C_15  and  O_16
REMARK                            x       y       z     vdW  Elec       q    Type
REMARK                         _______ _______ _______ _____ _____    ______ ____
ROOT
ATOM      1  C   UNL     1      -7.474   1.557 124.632  0.00  0.00    +0.000 A 
ATOM      2  C   UNL     1      -6.791   1.559 125.849  0.00  0.00    +0.000 A 
ATOM      3  C   UNL     1      -5.727   2.452 126.051  0.00  0.00    +0.000 A 
ATOM      4  C   UNL     1      -5.364   3.371 125.033  0.00  0.00    +0.000 A 
ATOM      5  C   UNL     1      -6.097   3.459 123.815  0.00  0.00    +0.000 A 
ATOM      6  C   UNL     1      -7.200   2.569 123.675  0.00  0.00    +0.000 A 
ATOM      7 CL   UNL     1      -8.574   2.861 122.627  0.00  0.00    +0.000 Cl
ENDROOT
BRANCH   1  10
ATOM      8  C   UNL     1      -8.249  -0.565 123.611  0.00  0.00    +0.000 C 
ATOM      9  O   UNL     1      -7.157  -1.013 123.273  0.00  0.00    +0.000 OA
ATOM     10  N   UNL     1      -8.488   0.582 124.386  0.00  0.00    +0.000 N 
ATOM     11  H   UNL     1      -9.440   0.774 124.683  0.00  0.00    +0.000 HD
BRANCH   8  12
ATOM     12  C   UNL     1      -9.497  -1.356 123.171  0.00  0.00    +0.000 C 
ATOM     13  O   UNL     1     -10.377  -0.843 122.505  0.00  0.00    +0.000 OA
BRANCH  12  14
ATOM     14  O   UNL     1      -9.500  -2.627 123.620  0.00  0.00    +0.000 OA
ATOM     15  H   UNL     1      -9.506  -3.279 122.880  0.00  0.00    +0.000 HD
ENDBRANCH  12  14
ENDBRANCH   8  12
ENDBRANCH   1  10
BRANCH   5  16
ATOM     16  N   UNL     1      -5.663   4.463 122.851  0.00  0.00    +0.000 N 
ATOM     17  C   UNL     1      -5.338   4.220 121.500  0.00  0.00    +0.000 C 
ATOM     18  O   UNL     1      -5.287   3.127 120.954  0.00  0.00    +0.000 OA
ATOM     19  H   UNL     1      -5.509   5.383 123.240  0.00  0.00    +0.000 HD
BRANCH  17  20
ATOM     20  C   UNL     1      -4.930   5.340 120.525  0.00  0.00    +0.000 C 
ATOM     21  O   UNL     1      -5.357   5.322 119.378  0.00  0.00    +0.000 OA
BRANCH  20  22
ATOM     22  O   UNL     1      -4.091   6.284 120.944  0.00  0.00    +0.000 OA
ATOM     23  H   UNL     1      -3.676   6.830 120.269  0.00  0.00    +0.000 HD
ENDBRANCH  20  22
ENDBRANCH  17  20
ENDBRANCH   5  16
BRANCH   3  24
ATOM     24  C   UNL     1      -4.997   2.397 127.291  0.00  0.00    +0.000 C 
ATOM     25  N   UNL     1      -4.419   2.358 128.304  0.00  0.00    +0.000 NA
ENDBRANCH   3  24
TORSDOF 7
ENDMDL
MODEL 2
REMARK VINA RESULT:      -6.2      2.953      6.632
REMARK  Name = Lodoxamide
REMARK  7 active torsions:
REMARK  status: ('A' for Active; 'I' for Inactive)
REMARK    1  A    between atoms: O_1  and  C_2
REMARK    2  A    between atoms: C_2  and  C_4
REMARK    3  A    between atoms: N_6  and  C_7
REMARK    4  A    between atoms: C_9  and  C_20
REMARK    5  A    between atoms: C_11  and  N_12
REMARK    6  A    between atoms: C_13  and  C_15
REMARK    7  A    between atoms: C_15  and  O_16
REMARK                            x       y       z     vdW  Elec       q    Type
REMARK                         _______ _______ _______ _____ _____    ______ ____
ROOT
ATOM      1  C   UNL     1      -7.137   3.296 122.604  0.00  0.00    +0.000 A 
ATOM      2  C   UNL     1      -8.348   2.645 122.366  0.00  0.00    +0.000 A 
ATOM      3  C   UNL     1      -8.737   1.574 123.186  0.00  0.00    +0.000 A 
ATOM      4  C   UNL     1      -7.918   1.174 124.274  0.00  0.00    +0.000 A 
ATOM      5  C   UNL     1      -6.722   1.875 124.601  0.00  0.00    +0.000 A 
ATOM      6  C   UNL     1      -6.394   2.985 123.772  0.00  0.00    +0.000 A 
ATOM      7 CL   UNL     1      -5.389   4.328 124.280  0.00  0.00    +0.000 Cl
ENDROOT
BRANCH   1  10
ATOM      8  C   UNL     1      -5.532   4.171 120.930  0.00  0.00    +0.000 C 
ATOM      9  O   UNL     1      -4.919   3.131 120.707  0.00  0.00    +0.000 OA
ATOM     10  N   UNL     1      -6.690   4.317 121.711  0.00  0.00    +0.000 N 
ATOM     11  H   UNL     1      -7.157   5.220 121.719  0.00  0.00    +0.000 HD
BRANCH   8  12
ATOM     12  C   UNL     1      -5.002   5.455 120.261  0.00  0.00    +0.000 C 
ATOM     13  O   UNL     1      -5.328   5.770 119.132  0.00  0.00    +0.000 OA
BRANCH  12  14
ATOM     14  O   UNL     1      -4.145   6.142 121.044  0.00  0.00    +0.000 OA
ATOM     15  H   UNL     1      -4.402   6.101 121.995  0.00  0.00    +0.000 HD
ENDBRANCH  12  14
ENDBRANCH   8  12
ENDBRANCH   1  10
BRANCH   5  16
ATOM     16  N   UNL     1      -5.974   1.404 125.760  0.00  0.00    +0.000 N 
ATOM     17  C   UNL     1      -5.978   1.999 127.040  0.00  0.00    +0.000 C 
ATOM     18  O   UNL     1      -6.538   3.040 127.351  0.00  0.00    +0.000 OA
ATOM     19  H   UNL     1      -5.341   0.639 125.571  0.00  0.00    +0.000 HD
BRANCH  17  20
ATOM     20  C   UNL     1      -5.196   1.418 128.233  0.00  0.00    +0.000 C 
ATOM     21  O   UNL     1      -4.994   2.118 129.215  0.00  0.00    +0.000 OA
BRANCH  20  22
ATOM     22  O   UNL     1      -4.724   0.177 128.149  0.00  0.00    +0.000 OA
ATOM     23  H   UNL     1      -4.734  -0.236 127.280  0.00  0.00    +0.000 HD
ENDBRANCH  20  22
ENDBRANCH  17  20
ENDBRANCH   5  16
BRANCH   3  24
ATOM     24  C   UNL     1      -9.961   0.876 122.888  0.00  0.00    +0.000 C 
ATOM     25  N   UNL     1     -10.960   0.325 122.644  0.00  0.00    +0.000 NA
ENDBRANCH   3  24
TORSDOF 7
ENDMDL
MODEL 3
REMARK VINA RESULT:      -6.2      1.303      1.503
REMARK  Name = Lodoxamide
REMARK  7 active torsions:
REMARK  status: ('A' for Active; 'I' for Inactive)
REMARK    1  A    between atoms: O_1  and  C_2
REMARK    2  A    between atoms: C_2  and  C_4
REMARK    3  A    between atoms: N_6  and  C_7
REMARK    4  A    between atoms: C_9  and  C_20
REMARK    5  A    between atoms: C_11  and  N_12
REMARK    6  A    between atoms: C_13  and  C_15
REMARK    7  A    between atoms: C_15  and  O_16
REMARK                            x       y       z     vdW  Elec       q    Type
REMARK                         _______ _______ _______ _____ _____    ______ ____
ROOT
ATOM      1  C   UNL     1      -7.703   0.977 124.630  0.00  0.00    +0.000 A 
ATOM      2  C   UNL     1      -6.724   1.353 125.550  0.00  0.00    +0.000 A 
ATOM      3  C   UNL     1      -5.878   2.437 125.266  0.00  0.00    +0.000 A 
ATOM      4  C   UNL     1      -6.039   3.169 124.060  0.00  0.00    +0.000 A 
ATOM      5  C   UNL     1      -7.086   2.871 123.143  0.00  0.00    +0.000 A 
ATOM      6  C   UNL     1      -7.950   1.795 123.498  0.00  0.00    +0.000 A 
ATOM      7 CL   UNL     1      -9.593   1.620 122.914  0.00  0.00    +0.000 Cl
ENDROOT
BRANCH   1  10
ATOM      8  C   UNL     1      -8.229  -1.414 124.242  0.00  0.00    +0.000 C 
ATOM      9  O   UNL     1      -7.203  -1.730 123.644  0.00  0.00    +0.000 OA
ATOM     10  N   UNL     1      -8.495  -0.187 124.870  0.00  0.00    +0.000 N 
ATOM     11  H   UNL     1      -9.344  -0.102 125.423  0.00  0.00    +0.000 HD
BRANCH   8  12
ATOM     12  C   UNL     1      -9.336  -2.483 124.346  0.00  0.00    +0.000 C 
ATOM     13  O   UNL     1      -9.733  -3.089 123.369  0.00  0.00    +0.000 OA
BRANCH  12  14
ATOM     14  O   UNL     1      -9.805  -2.634 125.601  0.00  0.00    +0.000 OA
ATOM     15  H   UNL     1     -10.212  -1.806 125.945  0.00  0.00    +0.000 HD
ENDBRANCH  12  14
ENDBRANCH   8  12
ENDBRANCH   1  10
BRANCH   5  16
ATOM     16  N   UNL     1      -7.184   3.707 121.953  0.00  0.00    +0.000 N 
ATOM     17  C   UNL     1      -6.276   3.710 120.872  0.00  0.00    +0.000 C 
ATOM     18  O   UNL     1      -5.232   3.079 120.804  0.00  0.00    +0.000 OA
ATOM     19  H   UNL     1      -7.925   4.393 121.979  0.00  0.00    +0.000 HD
BRANCH  17  20
ATOM     20  C   UNL     1      -6.469   4.591 119.624  0.00  0.00    +0.000 C 
ATOM     21  O   UNL     1      -7.491   4.475 118.961  0.00  0.00    +0.000 OA
BRANCH  20  22
ATOM     22  O   UNL     1      -5.500   5.433 119.275  0.00  0.00    +0.000 OA
ATOM     23  H   UNL     1      -4.684   5.394 119.784  0.00  0.00    +0.000 HD
ENDBRANCH  20  22
ENDBRANCH  17  20
ENDBRANCH   5  16
BRANCH   3  24
ATOM     24  C   UNL     1      -4.835   2.772 126.200  0.00  0.00    +0.000 C 
ATOM     25  N   UNL     1      -3.999   3.037 126.969  0.00  0.00    +0.000 NA
ENDBRANCH   3  24
TORSDOF 7
ENDMDL
MODEL 4
REMARK VINA RESULT:      -6.0      3.094      4.603
REMARK  Name = Lodoxamide
REMARK  7 active torsions:
REMARK  status: ('A' for Active; 'I' for Inactive)
REMARK    1  A    between atoms: O_1  and  C_2
REMARK    2  A    between atoms: C_2  and  C_4
REMARK    3  A    between atoms: N_6  and  C_7
REMARK    4  A    between atoms: C_9  and  C_20
REMARK    5  A    between atoms: C_11  and  N_12
REMARK    6  A    between atoms: C_13  and  C_15
REMARK    7  A    between atoms: C_15  and  O_16
REMARK                            x       y       z     vdW  Elec       q    Type
REMARK                         _______ _______ _______ _____ _____    ______ ____
ROOT
ATOM      1  C   UNL     1      -7.156   2.099 123.556  0.00  0.00    +0.000 A 
ATOM      2  C   UNL     1      -6.781   2.598 122.308  0.00  0.00    +0.000 A 
ATOM      3  C   UNL     1      -5.998   3.760 122.227  0.00  0.00    +0.000 A 
ATOM      4  C   UNL     1      -5.562   4.409 123.412  0.00  0.00    +0.000 A 
ATOM      5  C   UNL     1      -5.848   3.876 124.700  0.00  0.00    +0.000 A 
ATOM      6  C   UNL     1      -6.602   2.668 124.732  0.00  0.00    +0.000 A 
ATOM      7 CL   UNL     1      -6.568   1.521 126.056  0.00  0.00    +0.000 Cl
ENDROOT
BRANCH   1  10
ATOM      8  C   UNL     1      -7.644  -0.311 123.245  0.00  0.00    +0.000 C 
ATOM      9  O   UNL     1      -6.498  -0.702 123.039  0.00  0.00    +0.000 OA
ATOM     10  N   UNL     1      -8.037   0.978 123.639  0.00  0.00    +0.000 N 
ATOM     11  H   UNL     1      -9.012   1.132 123.881  0.00  0.00    +0.000 HD
BRANCH   8  12
ATOM     12  C   UNL     1      -8.776  -1.347 123.090  0.00  0.00    +0.000 C 
ATOM     13  O   UNL     1      -8.561  -2.543 123.147  0.00  0.00    +0.000 OA
BRANCH  12  14
ATOM     14  O   UNL     1      -9.980  -0.781 122.868  0.00  0.00    +0.000 OA
ATOM     15  H   UNL     1     -10.605  -1.405 122.431  0.00  0.00    +0.000 HD
ENDBRANCH  12  14
ENDBRANCH   8  12
ENDBRANCH   1  10
BRANCH   5  16
ATOM     16  N   UNL     1      -5.321   4.601 125.850  0.00  0.00    +0.000 N 
ATOM     17  C   UNL     1      -4.074   4.369 126.470  0.00  0.00    +0.000 C 
ATOM     18  O   UNL     1      -3.287   3.476 126.195  0.00  0.00    +0.000 OA
ATOM     19  H   UNL     1      -5.967   5.257 126.267  0.00  0.00    +0.000 HD
BRANCH  17  20
ATOM     20  C   UNL     1      -3.563   5.207 127.656  0.00  0.00    +0.000 C 
ATOM     21  O   UNL     1      -4.366   5.828 128.340  0.00  0.00    +0.000 OA
BRANCH  20  22
ATOM     22  O   UNL     1      -2.254   5.266 127.886  0.00  0.00    +0.000 OA
ATOM     23  H   UNL     1      -1.976   5.335 128.805  0.00  0.00    +0.000 HD
ENDBRANCH  20  22
ENDBRANCH  17  20
ENDBRANCH   5  16
BRANCH   3  24
ATOM     24  C   UNL     1      -5.672   4.293 120.930  0.00  0.00    +0.000 C 
ATOM     25  N   UNL     1      -5.422   4.723 119.875  0.00  0.00    +0.000 NA
ENDBRANCH   3  24
TORSDOF 7
ENDMDL
MODEL 5
REMARK VINA RESULT:      -5.9      5.014      6.909
REMARK  Name = Lodoxamide
REMARK  7 active torsions:
REMARK  status: ('A' for Active; 'I' for Inactive)
REMARK    1  A    between atoms: O_1  and  C_2
REMARK    2  A    between atoms: C_2  and  C_4
REMARK    3  A    between atoms: N_6  and  C_7
REMARK    4  A    between atoms: C_9  and  C_20
REMARK    5  A    between atoms: C_11  and  N_12
REMARK    6  A    between atoms: C_13  and  C_15
REMARK    7  A    between atoms: C_15  and  O_16
REMARK                            x       y       z     vdW  Elec       q    Type
REMARK                         _______ _______ _______ _____ _____    ______ ____
ROOT
ATOM      1  C   UNL     1      -7.644  -0.381 126.155  0.00  0.00    +0.000 A 
ATOM      2  C   UNL     1      -8.346   0.625 126.820  0.00  0.00    +0.000 A 
ATOM      3  C   UNL     1      -7.927   1.044 128.093  0.00  0.00    +0.000 A 
ATOM      4  C   UNL     1      -6.775   0.469 128.690  0.00  0.00    +0.000 A 
ATOM      5  C   UNL     1      -5.982  -0.493 128.001  0.00  0.00    +0.000 A 
ATOM      6  C   UNL     1      -6.417  -0.850 126.693  0.00  0.00    +0.000 A 
ATOM      7 CL   UNL     1      -5.365  -1.491 125.446  0.00  0.00    +0.000 Cl
ENDROOT
BRANCH   1  10
ATOM      8  C   UNL     1      -8.988  -1.987 124.829  0.00  0.00    +0.000 C 
ATOM      9  O   UNL     1      -9.623  -2.495 125.750  0.00  0.00    +0.000 OA
ATOM     10  N   UNL     1      -8.127  -0.881 124.908  0.00  0.00    +0.000 N 
ATOM     11  H   UNL     1      -7.752  -0.499 124.044  0.00  0.00    +0.000 HD
BRANCH   8  12
ATOM     12  C   UNL     1      -9.172  -2.603 123.428  0.00  0.00    +0.000 C 
ATOM     13  O   UNL     1      -8.452  -2.300 122.495  0.00  0.00    +0.000 OA
BRANCH  12  14
ATOM     14  O   UNL     1     -10.206  -3.467 123.365  0.00  0.00    +0.000 OA
ATOM     15  H   UNL     1     -10.241  -3.937 122.499  0.00  0.00    +0.000 HD
ENDBRANCH  12  14
ENDBRANCH   8  12
ENDBRANCH   1  10
BRANCH   5  16
ATOM     16  N   UNL     1      -4.798  -0.993 128.690  0.00  0.00    +0.000 N 
ATOM     17  C   UNL     1      -4.638  -2.295 129.211  0.00  0.00    +0.000 C 
ATOM     18  O   UNL     1      -5.490  -3.171 129.241  0.00  0.00    +0.000 OA
ATOM     19  H   UNL     1      -4.089  -0.296 128.869  0.00  0.00    +0.000 HD
BRANCH  17  20
ATOM     20  C   UNL     1      -3.338  -2.768 129.888  0.00  0.00    +0.000 C 
ATOM     21  O   UNL     1      -3.388  -3.662 130.722  0.00  0.00    +0.000 OA
BRANCH  20  22
ATOM     22  O   UNL     1      -2.194  -2.165 129.576  0.00  0.00    +0.000 OA
ATOM     23  H   UNL     1      -2.219  -1.208 129.474  0.00  0.00    +0.000 HD
ENDBRANCH  20  22
ENDBRANCH  17  20
ENDBRANCH   5  16
BRANCH   3  24
ATOM     24  C   UNL     1      -8.699   2.040 128.788  0.00  0.00    +0.000 C 
ATOM     25  N   UNL     1      -9.338   2.841 129.348  0.00  0.00    +0.000 NA
ENDBRANCH   3  24
TORSDOF 7
ENDMDL
MODEL 6
REMARK VINA RESULT:      -5.9      3.226      4.645
REMARK  Name = Lodoxamide
REMARK  7 active torsions:
REMARK  status: ('A' for Active; 'I' for Inactive)
REMARK    1  A    between atoms: O_1  and  C_2
REMARK    2  A    between atoms: C_2  and  C_4
REMARK    3  A    between atoms: N_6  and  C_7
REMARK    4  A    between atoms: C_9  and  C_20
REMARK    5  A    between atoms: C_11  and  N_12
REMARK    6  A    between atoms: C_13  and  C_15
REMARK    7  A    between atoms: C_15  and  O_16
REMARK                            x       y       z     vdW  Elec       q    Type
REMARK                         _______ _______ _______ _____ _____    ______ ____
ROOT
ATOM      1  C   UNL     1      -7.227   1.822 124.091  0.00  0.00    +0.000 A 
ATOM      2  C   UNL     1      -7.289   2.265 122.769  0.00  0.00    +0.000 A 
ATOM      3  C   UNL     1      -6.524   3.372 122.367  0.00  0.00    +0.000 A 
ATOM      4  C   UNL     1      -5.667   4.020 123.294  0.00  0.00    +0.000 A 
ATOM      5  C   UNL     1      -5.510   3.538 124.625  0.00  0.00    +0.000 A 
ATOM      6  C   UNL     1      -6.267   2.383 124.972  0.00  0.00    +0.000 A 
ATOM      7 CL   UNL     1      -5.830   1.268 126.252  0.00  0.00    +0.000 Cl
ENDROOT
BRANCH   1  10
ATOM      8  C   UNL     1      -7.914  -0.560 124.083  0.00  0.00    +0.000 C 
ATOM      9  O   UNL     1      -6.934  -1.029 123.512  0.00  0.00    +0.000 OA
ATOM     10  N   UNL     1      -8.080   0.762 124.526  0.00  0.00    +0.000 N 
ATOM     11  H   UNL     1      -8.900   0.985 125.083  0.00  0.00    +0.000 HD
BRANCH   8  12
ATOM     12  C   UNL     1      -9.081  -1.524 124.379  0.00  0.00    +0.000 C 
ATOM     13  O   UNL     1      -9.466  -1.734 125.514  0.00  0.00    +0.000 OA
BRANCH  12  14
ATOM     14  O   UNL     1      -9.582  -2.100 123.267  0.00  0.00    +0.000 OA
ATOM     15  H   UNL     1      -8.896  -2.215 122.570  0.00  0.00    +0.000 HD
ENDBRANCH  12  14
ENDBRANCH   8  12
ENDBRANCH   1  10
BRANCH   5  16
ATOM     16  N   UNL     1      -4.577   4.256 125.485  0.00  0.00    +0.000 N 
ATOM     17  C   UNL     1      -4.894   4.857 126.722  0.00  0.00    +0.000 C 
ATOM     18  O   UNL     1      -6.007   4.944 127.219  0.00  0.00    +0.000 OA
ATOM     19  H   UNL     1      -3.657   4.391 125.089  0.00  0.00    +0.000 HD
BRANCH  17  20
ATOM     20  C   UNL     1      -3.842   5.562 127.600  0.00  0.00    +0.000 C 
ATOM     21  O   UNL     1      -2.810   4.971 127.889  0.00  0.00    +0.000 OA
BRANCH  20  22
ATOM     22  O   UNL     1      -4.099   6.785 128.054  0.00  0.00    +0.000 OA
ATOM     23  H   UNL     1      -4.785   6.866 128.725  0.00  0.00    +0.000 HD
ENDBRANCH  20  22
ENDBRANCH  17  20
ENDBRANCH   5  16
BRANCH   3  24
ATOM     24  C   UNL     1      -6.646   3.851 121.015  0.00  0.00    +0.000 C 
ATOM     25  N   UNL     1      -6.733   4.247 119.921  0.00  0.00    +0.000 NA
ENDBRANCH   3  24
TORSDOF 7
ENDMDL
MODEL 7
REMARK VINA RESULT:      -5.8      7.680      8.877
REMARK  Name = Lodoxamide
REMARK  7 active torsions:
REMARK  status: ('A' for Active; 'I' for Inactive)
REMARK    1  A    between atoms: O_1  and  C_2
REMARK    2  A    between atoms: C_2  and  C_4
REMARK    3  A    between atoms: N_6  and  C_7
REMARK    4  A    between atoms: C_9  and  C_20
REMARK    5  A    between atoms: C_11  and  N_12
REMARK    6  A    between atoms: C_13  and  C_15
REMARK    7  A    between atoms: C_15  and  O_16
REMARK                            x       y       z     vdW  Elec       q    Type
REMARK                         _______ _______ _______ _____ _____    ______ ____
ROOT
ATOM      1  C   UNL     1      -9.954   4.733 131.083  0.00  0.00    +0.000 A 
ATOM      2  C   UNL     1     -10.038   3.394 131.470  0.00  0.00    +0.000 A 
ATOM      3  C   UNL     1      -9.000   2.507 131.144  0.00  0.00    +0.000 A 
ATOM      4  C   UNL     1      -7.853   2.976 130.451  0.00  0.00    +0.000 A 
ATOM      5  C   UNL     1      -7.694   4.352 130.123  0.00  0.00    +0.000 A 
ATOM      6  C   UNL     1      -8.749   5.223 130.518  0.00  0.00    +0.000 A 
ATOM      7 CL   UNL     1      -8.556   6.943 130.791  0.00  0.00    +0.000 Cl
ENDROOT
BRANCH   1  10
ATOM      8  C   UNL     1     -11.891   6.060 130.288  0.00  0.00    +0.000 C 
ATOM      9  O   UNL     1     -11.972   5.599 129.153  0.00  0.00    +0.000 OA
ATOM     10  N   UNL     1     -11.054   5.612 131.322  0.00  0.00    +0.000 N 
ATOM     11  H   UNL     1     -11.170   6.018 132.247  0.00  0.00    +0.000 HD
BRANCH   8  12
ATOM     12  C   UNL     1     -12.825   7.237 130.634  0.00  0.00    +0.000 C 
ATOM     13  O   UNL     1     -13.274   7.389 131.755  0.00  0.00    +0.000 OA
BRANCH  12  14
ATOM     14  O   UNL     1     -13.091   8.027 129.574  0.00  0.00    +0.000 OA
ATOM     15  H   UNL     1     -13.204   8.970 129.838  0.00  0.00    +0.000 HD
ENDBRANCH  12  14
ENDBRANCH   8  12
ENDBRANCH   1  10
BRANCH   5  16
ATOM     16  N   UNL     1      -6.461   4.733 129.443  0.00  0.00    +0.000 N 
ATOM     17  C   UNL     1      -5.351   5.365 130.044  0.00  0.00    +0.000 C 
ATOM     18  O   UNL     1      -5.284   5.764 131.197  0.00  0.00    +0.000 OA
ATOM     19  H   UNL     1      -6.473   4.599 128.442  0.00  0.00    +0.000 HD
BRANCH  17  20
ATOM     20  C   UNL     1      -4.062   5.698 129.270  0.00  0.00    +0.000 C 
ATOM     21  O   UNL     1      -3.012   5.159 129.597  0.00  0.00    +0.000 OA
BRANCH  20  22
ATOM     22  O   UNL     1      -4.113   6.592 128.287  0.00  0.00    +0.000 OA
ATOM     23  H   UNL     1      -4.158   7.519 128.544  0.00  0.00    +0.000 HD
ENDBRANCH  20  22
ENDBRANCH  17  20
ENDBRANCH   5  16
BRANCH   3  24
ATOM     24  C   UNL     1      -9.132   1.119 131.499  0.00  0.00    +0.000 C 
ATOM     25  N   UNL     1      -9.242  -0.003 131.802  0.00  0.00    +0.000 NA
ENDBRANCH   3  24
TORSDOF 7
ENDMDL
MODEL 8
REMARK VINA RESULT:      -5.6      3.150      6.776
REMARK  Name = Lodoxamide
REMARK  7 active torsions:
REMARK  status: ('A' for Active; 'I' for Inactive)
REMARK    1  A    between atoms: O_1  and  C_2
REMARK    2  A    between atoms: C_2  and  C_4
REMARK    3  A    between atoms: N_6  and  C_7
REMARK    4  A    between atoms: C_9  and  C_20
REMARK    5  A    between atoms: C_11  and  N_12
REMARK    6  A    between atoms: C_13  and  C_15
REMARK    7  A    between atoms: C_15  and  O_16
REMARK                            x       y       z     vdW  Elec       q    Type
REMARK                         _______ _______ _______ _____ _____    ______ ____
ROOT
ATOM      1  C   UNL     1      -5.901   4.005 124.745  0.00  0.00    +0.000 A 
ATOM      2  C   UNL     1      -5.557   4.503 123.488  0.00  0.00    +0.000 A 
ATOM      3  C   UNL     1      -5.981   3.830 122.331  0.00  0.00    +0.000 A 
ATOM      4  C   UNL     1      -6.783   2.664 122.438  0.00  0.00    +0.000 A 
ATOM      5  C   UNL     1      -7.229   2.182 123.701  0.00  0.00    +0.000 A 
ATOM      6  C   UNL     1      -6.816   2.925 124.843  0.00  0.00    +0.000 A 
ATOM      7 CL   UNL     1      -7.672   2.935 126.373  0.00  0.00    +0.000 Cl
ENDROOT
BRANCH   1  10
ATOM      8  C   UNL     1      -4.197   4.200 126.534  0.00  0.00    +0.000 C 
ATOM      9  O   UNL     1      -3.341   3.463 126.051  0.00  0.00    +0.000 OA
ATOM     10  N   UNL     1      -5.386   4.628 125.923  0.00  0.00    +0.000 N 
ATOM     11  H   UNL     1      -5.949   5.327 126.398  0.00  0.00    +0.000 HD
BRANCH   8  12
ATOM     12  C   UNL     1      -3.931   4.744 127.952  0.00  0.00    +0.000 C 
ATOM     13  O   UNL     1      -2.869   4.565 128.518  0.00  0.00    +0.000 OA
BRANCH  12  14
ATOM     14  O   UNL     1      -4.991   5.395 128.474  0.00  0.00    +0.000 OA
ATOM     15  H   UNL     1      -4.831   6.365 128.541  0.00  0.00    +0.000 HD
ENDBRANCH  12  14
ENDBRANCH   8  12
ENDBRANCH   1  10
BRANCH   5  16
ATOM     16  N   UNL     1      -8.079   0.997 123.696  0.00  0.00    +0.000 N 
ATOM     17  C   UNL     1      -7.629  -0.339 123.756  0.00  0.00    +0.000 C 
ATOM     18  O   UNL     1      -6.465  -0.711 123.735  0.00  0.00    +0.000 OA
ATOM     19  H   UNL     1      -9.061   1.183 123.547  0.00  0.00    +0.000 HD
BRANCH  17  20
ATOM     20  C   UNL     1      -8.590  -1.542 123.792  0.00  0.00    +0.000 C 
ATOM     21  O   UNL     1      -9.421  -1.618 124.688  0.00  0.00    +0.000 OA
BRANCH  20  22
ATOM     22  O   UNL     1      -8.469  -2.491 122.868  0.00  0.00    +0.000 OA
ATOM     23  H   UNL     1      -8.936  -3.317 123.027  0.00  0.00    +0.000 HD
ENDBRANCH  20  22
ENDBRANCH  17  20
ENDBRANCH   5  16
BRANCH   3  24
ATOM     24  C   UNL     1      -5.566   4.326 121.044  0.00  0.00    +0.000 C 
ATOM     25  N   UNL     1      -5.243   4.724 119.996  0.00  0.00    +0.000 NA
ENDBRANCH   3  24
TORSDOF 7
ENDMDL
MODEL 9
REMARK VINA RESULT:      -5.6      3.968      5.177
REMARK  Name = Lodoxamide
REMARK  7 active torsions:
REMARK  status: ('A' for Active; 'I' for Inactive)
REMARK    1  A    between atoms: O_1  and  C_2
REMARK    2  A    between atoms: C_2  and  C_4
REMARK    3  A    between atoms: N_6  and  C_7
REMARK    4  A    between atoms: C_9  and  C_20
REMARK    5  A    between atoms: C_11  and  N_12
REMARK    6  A    between atoms: C_13  and  C_15
REMARK    7  A    between atoms: C_15  and  O_16
REMARK                            x       y       z     vdW  Elec       q    Type
REMARK                         _______ _______ _______ _____ _____    ______ ____
ROOT
ATOM      1  C   UNL     1      -6.059   2.531 125.049  0.00  0.00    +0.000 A 
ATOM      2  C   UNL     1      -6.180   1.358 125.795  0.00  0.00    +0.000 A 
ATOM      3  C   UNL     1      -5.371   1.163 126.925  0.00  0.00    +0.000 A 
ATOM      4  C   UNL     1      -4.454   2.168 127.328  0.00  0.00    +0.000 A 
ATOM      5  C   UNL     1      -4.371   3.415 126.645  0.00  0.00    +0.000 A 
ATOM      6  C   UNL     1      -5.246   3.587 125.535  0.00  0.00    +0.000 A 
ATOM      7 CL   UNL     1      -5.777   5.146 124.933  0.00  0.00    +0.000 Cl
ENDROOT
BRANCH   1  10
ATOM      8  C   UNL     1      -8.182   2.973 123.847  0.00  0.00    +0.000 C 
ATOM      9  O   UNL     1      -8.850   3.366 124.799  0.00  0.00    +0.000 OA
ATOM     10  N   UNL     1      -6.807   2.687 123.842  0.00  0.00    +0.000 N 
ATOM     11  H   UNL     1      -6.361   2.475 122.954  0.00  0.00    +0.000 HD
BRANCH   8  12
ATOM     12  C   UNL     1      -8.913   2.802 122.501  0.00  0.00    +0.000 C 
ATOM     13  O   UNL     1      -9.595   1.822 122.263  0.00  0.00    +0.000 OA
BRANCH  12  14
ATOM     14  O   UNL     1      -8.691   3.822 121.647  0.00  0.00    +0.000 OA
ATOM     15  H   UNL     1      -9.346   3.835 120.911  0.00  0.00    +0.000 HD
ENDBRANCH  12  14
ENDBRANCH   8  12
ENDBRANCH   1  10
BRANCH   5  16
ATOM     16  N   UNL     1      -3.421   4.392 127.162  0.00  0.00    +0.000 N 
ATOM     17  C   UNL     1      -3.725   5.442 128.056  0.00  0.00    +0.000 C 
ATOM     18  O   UNL     1      -4.837   5.743 128.465  0.00  0.00    +0.000 OA
ATOM     19  H   UNL     1      -2.497   4.339 126.758  0.00  0.00    +0.000 HD
BRANCH  17  20
ATOM     20  C   UNL     1      -2.659   6.412 128.598  0.00  0.00    +0.000 C 
ATOM     21  O   UNL     1      -2.535   6.551 129.807  0.00  0.00    +0.000 OA
BRANCH  20  22
ATOM     22  O   UNL     1      -1.921   7.104 127.734  0.00  0.00    +0.000 OA
ATOM     23  H   UNL     1      -1.016   6.804 127.596  0.00  0.00    +0.000 HD
ENDBRANCH  20  22
ENDBRANCH  17  20
ENDBRANCH   5  16
BRANCH   3  24
ATOM     24  C   UNL     1      -5.468  -0.080 127.647  0.00  0.00    +0.000 C 
ATOM     25  N   UNL     1      -5.562  -1.087 128.228  0.00  0.00    +0.000 NA
ENDBRANCH   3  24
TORSDOF 7
ENDMDL
