MODEL 1
REMARK VINA RESULT:      -6.2      0.000      0.000
REMARK  Name = Lofexidine
REMARK  4 active torsions:
REMARK  status: ('A' for Active; 'I' for Inactive)
REMARK    1  A    between atoms: C_1  and  C_2
REMARK    2  A    between atoms: C_2  and  O_3
REMARK    3  A    between atoms: C_2  and  C_12
REMARK    4  A    between atoms: O_3  and  C_4
REMARK                            x       y       z     vdW  Elec       q    Type
REMARK                         _______ _______ _______ _____ _____    ______ ____
ROOT
ATOM      1  O   UNL     1      -6.391   3.096 122.204  0.00  0.00    +0.000 OA
ENDROOT
BRANCH   1   2
ATOM      2  C   UNL     1      -6.367   3.809 121.017  0.00  0.00    +0.000 A 
ATOM      3  C   UNL     1      -7.461   3.927 120.131  0.00  0.00    +0.000 A 
ATOM      4 CL   UNL     1      -9.102   3.494 120.485  0.00  0.00    +0.000 Cl
ATOM      5  C   UNL     1      -7.365   4.659 118.940  0.00  0.00    +0.000 A 
ATOM      6  C   UNL     1      -6.271   5.470 118.698  0.00  0.00    +0.000 A 
ATOM      7  C   UNL     1      -5.237   5.498 119.626  0.00  0.00    +0.000 A 
ATOM      8  C   UNL     1      -5.266   4.654 120.756  0.00  0.00    +0.000 A 
ATOM      9 CL   UNL     1      -3.924   4.773 121.843  0.00  0.00    +0.000 Cl
ENDBRANCH   1   2
BRANCH   1  11
ATOM     10  C   UNL     1      -6.558   4.094 124.441  0.00  0.00    +0.000 C 
ATOM     11  C   UNL     1      -7.299   3.551 123.232  0.00  0.00    +0.000 C 
BRANCH  11  12
ATOM     12  C   UNL     1      -8.116   2.396 123.838  0.00  0.00    +0.000 C 
ATOM     13  N   UNL     1      -7.529   1.288 124.255  0.00  0.00    +0.000 NA
ATOM     14  C   UNL     1      -8.672   0.381 124.595  0.00  0.00    +0.000 C 
ATOM     15  C   UNL     1      -9.910   1.279 124.695  0.00  0.00    +0.000 C 
ATOM     16  N   UNL     1      -9.481   2.376 123.874  0.00  0.00    +0.000 N 
ATOM     17  H   UNL     1     -10.043   3.205 123.711  0.00  0.00    +0.000 HD
ENDBRANCH  11  12
ENDBRANCH   1  11
TORSDOF 3
ENDMDL
MODEL 2
REMARK VINA RESULT:      -6.1      1.669      2.447
REMARK  Name = Lofexidine
REMARK  4 active torsions:
REMARK  status: ('A' for Active; 'I' for Inactive)
REMARK    1  A    between atoms: C_1  and  C_2
REMARK    2  A    between atoms: C_2  and  O_3
REMARK    3  A    between atoms: C_2  and  C_12
REMARK    4  A    between atoms: O_3  and  C_4
REMARK                            x       y       z     vdW  Elec       q    Type
REMARK                         _______ _______ _______ _____ _____    ______ ____
ROOT
ATOM      1  O   UNL     1      -8.585   3.024 122.846  0.00  0.00    +0.000 OA
ENDROOT
BRANCH   1   2
ATOM      2  C   UNL     1      -7.566   3.440 122.005  0.00  0.00    +0.000 A 
ATOM      3  C   UNL     1      -7.740   3.779 120.645  0.00  0.00    +0.000 A 
ATOM      4 CL   UNL     1      -9.258   4.052 119.854  0.00  0.00    +0.000 Cl
ATOM      5  C   UNL     1      -6.661   4.184 119.847  0.00  0.00    +0.000 A 
ATOM      6  C   UNL     1      -5.435   4.477 120.416  0.00  0.00    +0.000 A 
ATOM      7  C   UNL     1      -5.271   4.301 121.785  0.00  0.00    +0.000 A 
ATOM      8  C   UNL     1      -6.310   3.757 122.567  0.00  0.00    +0.000 A 
ATOM      9 CL   UNL     1      -5.992   3.581 124.259  0.00  0.00    +0.000 Cl
ENDBRANCH   1   2
BRANCH   1  11
ATOM     10  C   UNL     1     -10.105   1.106 122.646  0.00  0.00    +0.000 C 
ATOM     11  C   UNL     1      -8.731   1.602 123.059  0.00  0.00    +0.000 C 
BRANCH  11  12
ATOM     12  C   UNL     1      -8.681   1.230 124.551  0.00  0.00    +0.000 C 
ATOM     13  N   UNL     1      -8.971   2.117 125.488  0.00  0.00    +0.000 NA
ATOM     14  C   UNL     1      -8.632   1.413 126.766  0.00  0.00    +0.000 C 
ATOM     15  C   UNL     1      -8.522  -0.075 126.415  0.00  0.00    +0.000 C 
ATOM     16  N   UNL     1      -8.227   0.028 125.013  0.00  0.00    +0.000 N 
ATOM     17  H   UNL     1      -8.101  -0.777 124.409  0.00  0.00    +0.000 HD
ENDBRANCH  11  12
ENDBRANCH   1  11
TORSDOF 3
ENDMDL
MODEL 3
REMARK VINA RESULT:      -5.8      7.301      9.378
REMARK  Name = Lofexidine
REMARK  4 active torsions:
REMARK  status: ('A' for Active; 'I' for Inactive)
REMARK    1  A    between atoms: C_1  and  C_2
REMARK    2  A    between atoms: C_2  and  O_3
REMARK    3  A    between atoms: C_2  and  C_12
REMARK    4  A    between atoms: O_3  and  C_4
REMARK                            x       y       z     vdW  Elec       q    Type
REMARK                         _______ _______ _______ _____ _____    ______ ____
ROOT
ATOM      1  O   UNL     1      -8.999   6.388 129.577  0.00  0.00    +0.000 OA
ENDROOT
BRANCH   1   2
ATOM      2  C   UNL     1     -10.264   6.727 130.030  0.00  0.00    +0.000 A 
ATOM      3  C   UNL     1     -10.759   6.425 131.318  0.00  0.00    +0.000 A 
ATOM      4 CL   UNL     1      -9.815   5.877 132.665  0.00  0.00    +0.000 Cl
ATOM      5  C   UNL     1     -12.055   6.789 131.710  0.00  0.00    +0.000 A 
ATOM      6  C   UNL     1     -12.810   7.648 130.931  0.00  0.00    +0.000 A 
ATOM      7  C   UNL     1     -12.289   8.091 129.722  0.00  0.00    +0.000 A 
ATOM      8  C   UNL     1     -11.046   7.612 129.257  0.00  0.00    +0.000 A 
ATOM      9 CL   UNL     1     -10.498   8.231 127.738  0.00  0.00    +0.000 Cl
ENDBRANCH   1   2
BRANCH   1  11
ATOM     10  C   UNL     1      -7.594   4.492 130.253  0.00  0.00    +0.000 C 
ATOM     11  C   UNL     1      -8.724   4.985 129.367  0.00  0.00    +0.000 C 
BRANCH  11  12
ATOM     12  C   UNL     1      -8.182   4.705 127.955  0.00  0.00    +0.000 C 
ATOM     13  N   UNL     1      -8.700   5.296 126.892  0.00  0.00    +0.000 NA
ATOM     14  C   UNL     1      -8.020   4.624 125.739  0.00  0.00    +0.000 C 
ATOM     15  C   UNL     1      -6.798   3.908 126.326  0.00  0.00    +0.000 C 
ATOM     16  N   UNL     1      -7.235   3.758 127.685  0.00  0.00    +0.000 N 
ATOM     17  H   UNL     1      -6.667   3.332 128.410  0.00  0.00    +0.000 HD
ENDBRANCH  11  12
ENDBRANCH   1  11
TORSDOF 3
ENDMDL
MODEL 4
REMARK VINA RESULT:      -5.8      2.805      5.935
REMARK  Name = Lofexidine
REMARK  4 active torsions:
REMARK  status: ('A' for Active; 'I' for Inactive)
REMARK    1  A    between atoms: C_1  and  C_2
REMARK    2  A    between atoms: C_2  and  O_3
REMARK    3  A    between atoms: C_2  and  C_12
REMARK    4  A    between atoms: O_3  and  C_4
REMARK                            x       y       z     vdW  Elec       q    Type
REMARK                         _______ _______ _______ _____ _____    ______ ____
ROOT
ATOM      1  O   UNL     1      -7.783   1.688 123.814  0.00  0.00    +0.000 OA
ENDROOT
BRANCH   1   2
ATOM      2  C   UNL     1      -7.713   0.309 123.709  0.00  0.00    +0.000 A 
ATOM      3  C   UNL     1      -6.723  -0.491 124.320  0.00  0.00    +0.000 A 
ATOM      4 CL   UNL     1      -5.617   0.028 125.551  0.00  0.00    +0.000 Cl
ATOM      5  C   UNL     1      -6.706  -1.884 124.165  0.00  0.00    +0.000 A 
ATOM      6  C   UNL     1      -7.780  -2.542 123.595  0.00  0.00    +0.000 A 
ATOM      7  C   UNL     1      -8.849  -1.794 123.117  0.00  0.00    +0.000 A 
ATOM      8  C   UNL     1      -8.805  -0.384 123.141  0.00  0.00    +0.000 A 
ATOM      9 CL   UNL     1     -10.191   0.443 122.518  0.00  0.00    +0.000 Cl
ENDBRANCH   1   2
BRANCH   1  11
ATOM     10  C   UNL     1      -6.293   3.637 123.919  0.00  0.00    +0.000 C 
ATOM     11  C   UNL     1      -6.789   2.458 123.101  0.00  0.00    +0.000 C 
BRANCH  11  12
ATOM     12  C   UNL     1      -7.371   3.145 121.854  0.00  0.00    +0.000 C 
ATOM     13  N   UNL     1      -8.663   3.412 121.759  0.00  0.00    +0.000 NA
ATOM     14  C   UNL     1      -8.826   3.902 120.354  0.00  0.00    +0.000 C 
ATOM     15  C   UNL     1      -7.418   4.246 119.856  0.00  0.00    +0.000 C 
ATOM     16  N   UNL     1      -6.643   3.410 120.730  0.00  0.00    +0.000 N 
ATOM     17  H   UNL     1      -5.629   3.378 120.717  0.00  0.00    +0.000 HD
ENDBRANCH  11  12
ENDBRANCH   1  11
TORSDOF 3
ENDMDL
MODEL 5
REMARK VINA RESULT:      -5.7      8.071      9.617
REMARK  Name = Lofexidine
REMARK  4 active torsions:
REMARK  status: ('A' for Active; 'I' for Inactive)
REMARK    1  A    between atoms: C_1  and  C_2
REMARK    2  A    between atoms: C_2  and  O_3
REMARK    3  A    between atoms: C_2  and  C_12
REMARK    4  A    between atoms: O_3  and  C_4
REMARK                            x       y       z     vdW  Elec       q    Type
REMARK                         _______ _______ _______ _____ _____    ______ ____
ROOT
ATOM      1  O   UNL     1     -10.746   5.232 129.335  0.00  0.00    +0.000 OA
ENDROOT
BRANCH   1   2
ATOM      2  C   UNL     1     -11.399   6.452 129.287  0.00  0.00    +0.000 A 
ATOM      3  C   UNL     1     -12.059   7.050 130.383  0.00  0.00    +0.000 A 
ATOM      4 CL   UNL     1     -11.919   6.561 132.041  0.00  0.00    +0.000 Cl
ATOM      5  C   UNL     1     -12.710   8.286 130.263  0.00  0.00    +0.000 A 
ATOM      6  C   UNL     1     -12.541   9.062 129.131  0.00  0.00    +0.000 A 
ATOM      7  C   UNL     1     -11.768   8.570 128.087  0.00  0.00    +0.000 A 
ATOM      8  C   UNL     1     -11.230   7.267 128.146  0.00  0.00    +0.000 A 
ATOM      9 CL   UNL     1     -10.286   6.759 126.789  0.00  0.00    +0.000 Cl
ENDBRANCH   1   2
BRANCH   1  11
ATOM     10  C   UNL     1      -8.325   4.833 129.229  0.00  0.00    +0.000 C 
ATOM     11  C   UNL     1      -9.522   5.165 130.102  0.00  0.00    +0.000 C 
BRANCH  11  12
ATOM     12  C   UNL     1      -9.530   4.000 131.106  0.00  0.00    +0.000 C 
ATOM     13  N   UNL     1      -9.853   2.774 130.731  0.00  0.00    +0.000 NA
ATOM     14  C   UNL     1      -9.906   2.007 132.016  0.00  0.00    +0.000 C 
ATOM     15  C   UNL     1      -9.180   2.867 133.056  0.00  0.00    +0.000 C 
ATOM     16  N   UNL     1      -9.332   4.160 132.448  0.00  0.00    +0.000 N 
ATOM     17  H   UNL     1      -8.950   5.012 132.845  0.00  0.00    +0.000 HD
ENDBRANCH  11  12
ENDBRANCH   1  11
TORSDOF 3
ENDMDL
MODEL 6
REMARK VINA RESULT:      -5.7      5.081      8.025
REMARK  Name = Lofexidine
REMARK  4 active torsions:
REMARK  status: ('A' for Active; 'I' for Inactive)
REMARK    1  A    between atoms: C_1  and  C_2
REMARK    2  A    between atoms: C_2  and  O_3
REMARK    3  A    between atoms: C_2  and  C_12
REMARK    4  A    between atoms: O_3  and  C_4
REMARK                            x       y       z     vdW  Elec       q    Type
REMARK                         _______ _______ _______ _____ _____    ______ ____
ROOT
ATOM      1  O   UNL     1      -7.925  -3.224 125.217  0.00  0.00    +0.000 OA
ENDROOT
BRANCH   1   2
ATOM      2  C   UNL     1      -7.401  -2.688 126.381  0.00  0.00    +0.000 A 
ATOM      3  C   UNL     1      -7.939  -2.895 127.670  0.00  0.00    +0.000 A 
ATOM      4 CL   UNL     1      -9.130  -4.082 128.093  0.00  0.00    +0.000 Cl
ATOM      5  C   UNL     1      -7.362  -2.314 128.808  0.00  0.00    +0.000 A 
ATOM      6  C   UNL     1      -6.124  -1.702 128.735  0.00  0.00    +0.000 A 
ATOM      7  C   UNL     1      -5.490  -1.615 127.502  0.00  0.00    +0.000 A 
ATOM      8  C   UNL     1      -6.132  -2.070 126.332  0.00  0.00    +0.000 A 
ATOM      9 CL   UNL     1      -5.248  -1.909 124.853  0.00  0.00    +0.000 Cl
ENDBRANCH   1   2
BRANCH   1  11
ATOM     10  C   UNL     1      -9.510  -3.191 123.341  0.00  0.00    +0.000 C 
ATOM     11  C   UNL     1      -9.144  -2.637 124.707  0.00  0.00    +0.000 C 
BRANCH  11  12
ATOM     12  C   UNL     1      -8.991  -1.134 124.423  0.00  0.00    +0.000 C 
ATOM     13  N   UNL     1      -9.682  -0.234 125.102  0.00  0.00    +0.000 NA
ATOM     14  C   UNL     1      -9.375   1.056 124.405  0.00  0.00    +0.000 C 
ATOM     15  C   UNL     1      -8.134   0.790 123.547  0.00  0.00    +0.000 C 
ATOM     16  N   UNL     1      -8.245  -0.633 123.394  0.00  0.00    +0.000 N 
ATOM     17  H   UNL     1      -7.570  -1.195 122.886  0.00  0.00    +0.000 HD
ENDBRANCH  11  12
ENDBRANCH   1  11
TORSDOF 3
ENDMDL
MODEL 7
REMARK VINA RESULT:      -5.6      3.620      6.365
REMARK  Name = Lofexidine
REMARK  4 active torsions:
REMARK  status: ('A' for Active; 'I' for Inactive)
REMARK    1  A    between atoms: C_1  and  C_2
REMARK    2  A    between atoms: C_2  and  O_3
REMARK    3  A    between atoms: C_2  and  C_12
REMARK    4  A    between atoms: O_3  and  C_4
REMARK                            x       y       z     vdW  Elec       q    Type
REMARK                         _______ _______ _______ _____ _____    ______ ____
ROOT
ATOM      1  O   UNL     1      -7.437   0.601 123.228  0.00  0.00    +0.000 OA
ENDROOT
BRANCH   1   2
ATOM      2  C   UNL     1      -7.618  -0.747 123.490  0.00  0.00    +0.000 A 
ATOM      3  C   UNL     1      -6.750  -1.531 124.281  0.00  0.00    +0.000 A 
ATOM      4 CL   UNL     1      -5.501  -0.926 125.321  0.00  0.00    +0.000 Cl
ATOM      5  C   UNL     1      -6.988  -2.895 124.500  0.00  0.00    +0.000 A 
ATOM      6  C   UNL     1      -8.192  -3.467 124.133  0.00  0.00    +0.000 A 
ATOM      7  C   UNL     1      -9.138  -2.683 123.484  0.00  0.00    +0.000 A 
ATOM      8  C   UNL     1      -8.845  -1.348 123.136  0.00  0.00    +0.000 A 
ATOM      9 CL   UNL     1     -10.098  -0.468 122.329  0.00  0.00    +0.000 Cl
ENDBRANCH   1   2
BRANCH   1  11
ATOM     10  C   UNL     1      -9.023   2.290 124.040  0.00  0.00    +0.000 C 
ATOM     11  C   UNL     1      -7.733   1.530 124.294  0.00  0.00    +0.000 C 
BRANCH  11  12
ATOM     12  C   UNL     1      -6.696   2.662 124.384  0.00  0.00    +0.000 C 
ATOM     13  N   UNL     1      -5.713   2.622 125.267  0.00  0.00    +0.000 NA
ATOM     14  C   UNL     1      -5.061   3.964 125.140  0.00  0.00    +0.000 C 
ATOM     15  C   UNL     1      -5.553   4.552 123.812  0.00  0.00    +0.000 C 
ATOM     16  N   UNL     1      -6.780   3.820 123.664  0.00  0.00    +0.000 N 
ATOM     17  H   UNL     1      -7.398   3.923 122.867  0.00  0.00    +0.000 HD
ENDBRANCH  11  12
ENDBRANCH   1  11
TORSDOF 3
ENDMDL
MODEL 8
REMARK VINA RESULT:      -5.6      3.580      7.021
REMARK  Name = Lofexidine
REMARK  4 active torsions:
REMARK  status: ('A' for Active; 'I' for Inactive)
REMARK    1  A    between atoms: C_1  and  C_2
REMARK    2  A    between atoms: C_2  and  O_3
REMARK    3  A    between atoms: C_2  and  C_12
REMARK    4  A    between atoms: O_3  and  C_4
REMARK                            x       y       z     vdW  Elec       q    Type
REMARK                         _______ _______ _______ _____ _____    ______ ____
ROOT
ATOM      1  O   UNL     1      -8.136  -0.566 123.808  0.00  0.00    +0.000 OA
ENDROOT
BRANCH   1   2
ATOM      2  C   UNL     1      -8.362  -1.365 124.917  0.00  0.00    +0.000 A 
ATOM      3  C   UNL     1      -9.131  -2.549 124.906  0.00  0.00    +0.000 A 
ATOM      4 CL   UNL     1      -9.664  -3.399 123.491  0.00  0.00    +0.000 Cl
ATOM      5  C   UNL     1      -9.328  -3.307 126.068  0.00  0.00    +0.000 A 
ATOM      6  C   UNL     1      -8.597  -3.043 127.212  0.00  0.00    +0.000 A 
ATOM      7  C   UNL     1      -7.712  -1.972 127.212  0.00  0.00    +0.000 A 
ATOM      8  C   UNL     1      -7.617  -1.121 126.091  0.00  0.00    +0.000 A 
ATOM      9 CL   UNL     1      -6.483   0.181 126.204  0.00  0.00    +0.000 Cl
ENDBRANCH   1   2
BRANCH   1  11
ATOM     10  C   UNL     1     -10.103   0.275 122.602  0.00  0.00    +0.000 C 
ATOM     11  C   UNL     1      -9.013   0.568 123.618  0.00  0.00    +0.000 C 
BRANCH  11  12
ATOM     12  C   UNL     1      -8.285   1.765 122.984  0.00  0.00    +0.000 C 
ATOM     13  N   UNL     1      -8.936   2.654 122.253  0.00  0.00    +0.000 NA
ATOM     14  C   UNL     1      -7.852   3.524 121.696  0.00  0.00    +0.000 C 
ATOM     15  C   UNL     1      -6.604   3.242 122.539  0.00  0.00    +0.000 C 
ATOM     16  N   UNL     1      -6.929   1.928 123.020  0.00  0.00    +0.000 N 
ATOM     17  H   UNL     1      -6.333   1.400 123.649  0.00  0.00    +0.000 HD
ENDBRANCH  11  12
ENDBRANCH   1  11
TORSDOF 3
ENDMDL
MODEL 9
REMARK VINA RESULT:      -5.6      3.091      6.418
REMARK  Name = Lofexidine
REMARK  4 active torsions:
REMARK  status: ('A' for Active; 'I' for Inactive)
REMARK    1  A    between atoms: C_1  and  C_2
REMARK    2  A    between atoms: C_2  and  O_3
REMARK    3  A    between atoms: C_2  and  C_12
REMARK    4  A    between atoms: O_3  and  C_4
REMARK                            x       y       z     vdW  Elec       q    Type
REMARK                         _______ _______ _______ _____ _____    ______ ____
ROOT
ATOM      1  O   UNL     1      -7.526   0.828 124.042  0.00  0.00    +0.000 OA
ENDROOT
BRANCH   1   2
ATOM      2  C   UNL     1      -8.052  -0.431 124.277  0.00  0.00    +0.000 A 
ATOM      3  C   UNL     1      -7.746  -1.580 123.515  0.00  0.00    +0.000 A 
ATOM      4 CL   UNL     1      -6.448  -1.725 122.374  0.00  0.00    +0.000 Cl
ATOM      5  C   UNL     1      -8.322  -2.826 123.802  0.00  0.00    +0.000 A 
ATOM      6  C   UNL     1      -9.036  -3.018 124.971  0.00  0.00    +0.000 A 
ATOM      7  C   UNL     1      -9.229  -1.940 125.825  0.00  0.00    +0.000 A 
ATOM      8  C   UNL     1      -8.773  -0.653 125.470  0.00  0.00    +0.000 A 
ATOM      9 CL   UNL     1      -9.070   0.614 126.611  0.00  0.00    +0.000 Cl
ENDBRANCH   1   2
BRANCH   1  11
ATOM     10  C   UNL     1      -9.638   1.230 122.856  0.00  0.00    +0.000 C 
ATOM     11  C   UNL     1      -8.427   1.840 123.540  0.00  0.00    +0.000 C 
BRANCH  11  12
ATOM     12  C   UNL     1      -7.796   2.671 122.410  0.00  0.00    +0.000 C 
ATOM     13  N   UNL     1      -6.484   2.751 122.270  0.00  0.00    +0.000 NA
ATOM     14  C   UNL     1      -6.299   3.774 121.192  0.00  0.00    +0.000 C 
ATOM     15  C   UNL     1      -7.661   3.919 120.505  0.00  0.00    +0.000 C 
ATOM     16  N   UNL     1      -8.517   3.468 121.567  0.00  0.00    +0.000 N 
ATOM     17  H   UNL     1      -9.525   3.400 121.481  0.00  0.00    +0.000 HD
ENDBRANCH  11  12
ENDBRANCH   1  11
TORSDOF 3
ENDMDL
