MODEL 1
REMARK VINA RESULT:      -7.2      0.000      0.000
REMARK  Name = Lomefloxacin
REMARK  6 active torsions:
REMARK  status: ('A' for Active; 'I' for Inactive)
REMARK    1  A    between atoms: C_1  and  C_2
REMARK    2  A    between atoms: C_2  and  N_3
REMARK    3  A    between atoms: C_5  and  C_6
REMARK    4  A    between atoms: C_6  and  O_7
REMARK    5  A    between atoms: C_15  and  N_16
REMARK    6  A    between atoms: C_20  and  C_21
REMARK                            x       y       z     vdW  Elec       q    Type
REMARK                         _______ _______ _______ _____ _____    ______ ____
ROOT
ATOM      1  N   UNL     1      -7.432   2.963 123.899  0.00  0.00    +0.000 N 
ATOM      2  C   UNL     1      -8.562   2.358 123.352  0.00  0.00    +0.000 A 
ATOM      3  C   UNL     1      -9.466   1.611 124.008  0.00  0.00    +0.000 A 
ATOM      4  C   UNL     1      -9.222   1.401 125.449  0.00  0.00    +0.000 A 
ATOM      5  O   UNL     1     -10.004   0.721 126.110  0.00  0.00    +0.000 OA
ATOM      6  C   UNL     1      -8.024   2.023 126.064  0.00  0.00    +0.000 A 
ATOM      7  C   UNL     1      -7.773   1.798 127.422  0.00  0.00    +0.000 A 
ATOM      8  C   UNL     1      -6.639   2.348 128.017  0.00  0.00    +0.000 A 
ATOM      9  F   UNL     1      -6.449   2.128 129.328  0.00  0.00    +0.000 F 
ATOM     10  C   UNL     1      -5.749   3.159 127.309  0.00  0.00    +0.000 A 
ATOM     11  C   UNL     1      -6.055   3.387 125.955  0.00  0.00    +0.000 A 
ATOM     12  F   UNL     1      -5.197   4.177 125.286  0.00  0.00    +0.000 F 
ATOM     13  C   UNL     1      -7.159   2.809 125.283  0.00  0.00    +0.000 A 
ENDROOT
BRANCH  10  14
ATOM     14  N   UNL     1      -4.635   3.739 127.882  0.00  0.00    +0.000 N 
ATOM     15  C   UNL     1      -3.340   3.053 127.884  0.00  0.00    +0.000 C 
ATOM     16  C   UNL     1      -2.296   3.978 127.218  0.00  0.00    +0.000 C 
ATOM     17  N   UNL     1      -2.197   5.295 127.878  0.00  0.00    +0.000 NA
ATOM     18  C   UNL     1      -3.531   5.952 127.875  0.00  0.00    +0.000 C 
ATOM     19  C   UNL     1      -3.414   7.278 128.620  0.00  0.00    +0.000 C 
ATOM     20  C   UNL     1      -4.635   5.063 128.511  0.00  0.00    +0.000 C 
ATOM     21  H   UNL     1      -1.534   5.877 127.369  0.00  0.00    +0.000 HD
ENDBRANCH  10  14
BRANCH   1  23
ATOM     22  C   UNL     1      -6.791   3.546 121.575  0.00  0.00    +0.000 C 
ATOM     23  C   UNL     1      -6.418   3.631 123.055  0.00  0.00    +0.000 C 
ENDBRANCH   1  23
BRANCH   3  24
ATOM     24  C   UNL     1     -10.623   1.030 123.289  0.00  0.00    +0.000 C 
ATOM     25  O   UNL     1     -10.507   0.324 122.294  0.00  0.00    +0.000 OA
BRANCH  24  26
ATOM     26  O   UNL     1     -11.833   1.329 123.809  0.00  0.00    +0.000 OA
ATOM     27  H   UNL     1     -11.819   2.020 124.516  0.00  0.00    +0.000 HD
ENDBRANCH  24  26
ENDBRANCH   3  24
TORSDOF 4
ENDMDL
MODEL 2
REMARK VINA RESULT:      -6.9      6.984      8.186
REMARK  Name = Lomefloxacin
REMARK  6 active torsions:
REMARK  status: ('A' for Active; 'I' for Inactive)
REMARK    1  A    between atoms: C_1  and  C_2
REMARK    2  A    between atoms: C_2  and  N_3
REMARK    3  A    between atoms: C_5  and  C_6
REMARK    4  A    between atoms: C_6  and  O_7
REMARK    5  A    between atoms: C_15  and  N_16
REMARK    6  A    between atoms: C_20  and  C_21
REMARK                            x       y       z     vdW  Elec       q    Type
REMARK                         _______ _______ _______ _____ _____    ______ ____
ROOT
ATOM      1  N   UNL     1      -7.930   5.376 133.428  0.00  0.00    +0.000 N 
ATOM      2  C   UNL     1      -9.233   5.487 132.947  0.00  0.00    +0.000 A 
ATOM      3  C   UNL     1      -9.616   6.090 131.809  0.00  0.00    +0.000 A 
ATOM      4  C   UNL     1      -8.546   6.708 131.001  0.00  0.00    +0.000 A 
ATOM      5  O   UNL     1      -8.825   7.285 129.952  0.00  0.00    +0.000 OA
ATOM      6  C   UNL     1      -7.147   6.617 131.487  0.00  0.00    +0.000 A 
ATOM      7  C   UNL     1      -6.135   7.230 130.740  0.00  0.00    +0.000 A 
ATOM      8  C   UNL     1      -4.817   7.182 131.189  0.00  0.00    +0.000 A 
ATOM      9  F   UNL     1      -3.874   7.762 130.430  0.00  0.00    +0.000 F 
ATOM     10  C   UNL     1      -4.454   6.503 132.355  0.00  0.00    +0.000 A 
ATOM     11  C   UNL     1      -5.497   5.873 133.059  0.00  0.00    +0.000 A 
ATOM     12  F   UNL     1      -5.135   5.213 134.174  0.00  0.00    +0.000 F 
ATOM     13  C   UNL     1      -6.861   5.936 132.683  0.00  0.00    +0.000 A 
ENDROOT
BRANCH  10  14
ATOM     14  N   UNL     1      -3.153   6.416 132.806  0.00  0.00    +0.000 N 
ATOM     15  C   UNL     1      -2.314   5.259 132.481  0.00  0.00    +0.000 C 
ATOM     16  C   UNL     1      -1.029   5.766 131.789  0.00  0.00    +0.000 C 
ATOM     17  N   UNL     1      -0.286   6.743 132.611  0.00  0.00    +0.000 NA
ATOM     18  C   UNL     1      -1.172   7.890 132.938  0.00  0.00    +0.000 C 
ATOM     19  C   UNL     1      -0.402   8.849 133.840  0.00  0.00    +0.000 C 
ATOM     20  C   UNL     1      -2.498   7.446 133.616  0.00  0.00    +0.000 C 
ATOM     21  H   UNL     1       0.521   7.078 132.087  0.00  0.00    +0.000 HD
ENDBRANCH  10  14
BRANCH   1  23
ATOM     22  C   UNL     1      -7.835   5.893 135.852  0.00  0.00    +0.000 C 
ATOM     23  C   UNL     1      -7.638   4.830 134.771  0.00  0.00    +0.000 C 
ENDBRANCH   1  23
BRANCH   3  24
ATOM     24  C   UNL     1     -11.046   6.131 131.425  0.00  0.00    +0.000 C 
ATOM     25  O   UNL     1     -11.922   6.581 132.154  0.00  0.00    +0.000 OA
BRANCH  24  26
ATOM     26  O   UNL     1     -11.328   5.633 130.201  0.00  0.00    +0.000 OA
ATOM     27  H   UNL     1     -10.601   5.731 129.539  0.00  0.00    +0.000 HD
ENDBRANCH  24  26
ENDBRANCH   3  24
TORSDOF 4
ENDMDL
MODEL 3
REMARK VINA RESULT:      -6.8      4.718      6.008
REMARK  Name = Lomefloxacin
REMARK  6 active torsions:
REMARK  status: ('A' for Active; 'I' for Inactive)
REMARK    1  A    between atoms: C_1  and  C_2
REMARK    2  A    between atoms: C_2  and  N_3
REMARK    3  A    between atoms: C_5  and  C_6
REMARK    4  A    between atoms: C_6  and  O_7
REMARK    5  A    between atoms: C_15  and  N_16
REMARK    6  A    between atoms: C_20  and  C_21
REMARK                            x       y       z     vdW  Elec       q    Type
REMARK                         _______ _______ _______ _____ _____    ______ ____
ROOT
ATOM      1  N   UNL     1      -7.263  -1.356 125.310  0.00  0.00    +0.000 N 
ATOM      2  C   UNL     1      -8.168  -0.523 124.656  0.00  0.00    +0.000 A 
ATOM      3  C   UNL     1      -8.861   0.490 125.203  0.00  0.00    +0.000 A 
ATOM      4  C   UNL     1      -8.648   0.729 126.644  0.00  0.00    +0.000 A 
ATOM      5  O   UNL     1      -9.255   1.634 127.212  0.00  0.00    +0.000 OA
ATOM      6  C   UNL     1      -7.697  -0.144 127.376  0.00  0.00    +0.000 A 
ATOM      7  C   UNL     1      -7.518   0.058 128.748  0.00  0.00    +0.000 A 
ATOM      8  C   UNL     1      -6.652  -0.767 129.463  0.00  0.00    +0.000 A 
ATOM      9  F   UNL     1      -6.491  -0.523 130.773  0.00  0.00    +0.000 F 
ATOM     10  C   UNL     1      -5.914  -1.780 128.846  0.00  0.00    +0.000 A 
ATOM     11  C   UNL     1      -6.098  -1.929 127.460  0.00  0.00    +0.000 A 
ATOM     12  F   UNL     1      -5.375  -2.901 126.874  0.00  0.00    +0.000 F 
ATOM     13  C   UNL     1      -7.006  -1.160 126.692  0.00  0.00    +0.000 A 
ENDROOT
BRANCH  10  14
ATOM     14  N   UNL     1      -5.028  -2.591 129.526  0.00  0.00    +0.000 N 
ATOM     15  C   UNL     1      -3.618  -2.217 129.672  0.00  0.00    +0.000 C 
ATOM     16  C   UNL     1      -3.271  -2.200 131.178  0.00  0.00    +0.000 C 
ATOM     17  N   UNL     1      -3.547  -3.490 131.842  0.00  0.00    +0.000 NA
ATOM     18  C   UNL     1      -4.978  -3.846 131.655  0.00  0.00    +0.000 C 
ATOM     19  C   UNL     1      -5.219  -5.211 132.293  0.00  0.00    +0.000 C 
ATOM     20  C   UNL     1      -5.400  -3.858 130.160  0.00  0.00    +0.000 C 
ATOM     21  H   UNL     1      -3.348  -3.405 132.837  0.00  0.00    +0.000 HD
ENDBRANCH  10  14
BRANCH   1  23
ATOM     22  C   UNL     1      -7.713  -3.650 124.483  0.00  0.00    +0.000 C 
ATOM     23  C   UNL     1      -6.674  -2.541 124.650  0.00  0.00    +0.000 C 
ENDBRANCH   1  23
BRANCH   3  24
ATOM     24  C   UNL     1      -9.793   1.293 124.379  0.00  0.00    +0.000 C 
ATOM     25  O   UNL     1     -10.572   0.796 123.573  0.00  0.00    +0.000 OA
BRANCH  24  26
ATOM     26  O   UNL     1      -9.730   2.628 124.574  0.00  0.00    +0.000 OA
ATOM     27  H   UNL     1      -8.982   3.079 124.110  0.00  0.00    +0.000 HD
ENDBRANCH  24  26
ENDBRANCH   3  24
TORSDOF 4
ENDMDL
MODEL 4
REMARK VINA RESULT:      -6.7      4.195      5.690
REMARK  Name = Lomefloxacin
REMARK  6 active torsions:
REMARK  status: ('A' for Active; 'I' for Inactive)
REMARK    1  A    between atoms: C_1  and  C_2
REMARK    2  A    between atoms: C_2  and  N_3
REMARK    3  A    between atoms: C_5  and  C_6
REMARK    4  A    between atoms: C_6  and  O_7
REMARK    5  A    between atoms: C_15  and  N_16
REMARK    6  A    between atoms: C_20  and  C_21
REMARK                            x       y       z     vdW  Elec       q    Type
REMARK                         _______ _______ _______ _____ _____    ______ ____
ROOT
ATOM      1  N   UNL     1      -8.246  -1.506 124.716  0.00  0.00    +0.000 N 
ATOM      2  C   UNL     1      -8.963  -0.751 123.790  0.00  0.00    +0.000 A 
ATOM      3  C   UNL     1      -9.373   0.520 123.941  0.00  0.00    +0.000 A 
ATOM      4  C   UNL     1      -9.041   1.169 125.224  0.00  0.00    +0.000 A 
ATOM      5  O   UNL     1      -9.392   2.328 125.434  0.00  0.00    +0.000 OA
ATOM      6  C   UNL     1      -8.286   0.393 126.238  0.00  0.00    +0.000 A 
ATOM      7  C   UNL     1      -7.998   0.994 127.468  0.00  0.00    +0.000 A 
ATOM      8  C   UNL     1      -7.315   0.276 128.448  0.00  0.00    +0.000 A 
ATOM      9  F   UNL     1      -7.038   0.899 129.604  0.00  0.00    +0.000 F 
ATOM     10  C   UNL     1      -6.864  -1.029 128.232  0.00  0.00    +0.000 A 
ATOM     11  C   UNL     1      -7.145  -1.585 126.971  0.00  0.00    +0.000 A 
ATOM     12  F   UNL     1      -6.698  -2.838 126.771  0.00  0.00    +0.000 F 
ATOM     13  C   UNL     1      -7.885  -0.926 125.959  0.00  0.00    +0.000 A 
ENDROOT
BRANCH  10  14
ATOM     14  N   UNL     1      -6.160  -1.751 129.174  0.00  0.00    +0.000 N 
ATOM     15  C   UNL     1      -6.847  -2.442 130.269  0.00  0.00    +0.000 C 
ATOM     16  C   UNL     1      -6.453  -3.935 130.228  0.00  0.00    +0.000 C 
ATOM     17  N   UNL     1      -4.993  -4.142 130.306  0.00  0.00    +0.000 NA
ATOM     18  C   UNL     1      -4.328  -3.412 129.196  0.00  0.00    +0.000 C 
ATOM     19  C   UNL     1      -2.820  -3.588 129.340  0.00  0.00    +0.000 C 
ATOM     20  C   UNL     1      -4.702  -1.904 129.165  0.00  0.00    +0.000 C 
ATOM     21  H   UNL     1      -4.789  -5.137 130.225  0.00  0.00    +0.000 HD
ENDBRANCH  10  14
BRANCH   1  23
ATOM     22  C   UNL     1      -9.166  -3.630 123.825  0.00  0.00    +0.000 C 
ATOM     23  C   UNL     1      -7.984  -2.947 124.513  0.00  0.00    +0.000 C 
ENDBRANCH   1  23
BRANCH   3  24
ATOM     24  C   UNL     1     -10.131   1.197 122.864  0.00  0.00    +0.000 C 
ATOM     25  O   UNL     1      -9.639   2.049 122.133  0.00  0.00    +0.000 OA
BRANCH  24  26
ATOM     26  O   UNL     1     -11.419   0.809 122.734  0.00  0.00    +0.000 OA
ATOM     27  H   UNL     1     -12.052   1.542 122.538  0.00  0.00    +0.000 HD
ENDBRANCH  24  26
ENDBRANCH   3  24
TORSDOF 4
ENDMDL
MODEL 5
REMARK VINA RESULT:      -6.7      4.336      5.757
REMARK  Name = Lomefloxacin
REMARK  6 active torsions:
REMARK  status: ('A' for Active; 'I' for Inactive)
REMARK    1  A    between atoms: C_1  and  C_2
REMARK    2  A    between atoms: C_2  and  N_3
REMARK    3  A    between atoms: C_5  and  C_6
REMARK    4  A    between atoms: C_6  and  O_7
REMARK    5  A    between atoms: C_15  and  N_16
REMARK    6  A    between atoms: C_20  and  C_21
REMARK                            x       y       z     vdW  Elec       q    Type
REMARK                         _______ _______ _______ _____ _____    ______ ____
ROOT
ATOM      1  N   UNL     1      -8.447  -1.729 125.404  0.00  0.00    +0.000 N 
ATOM      2  C   UNL     1      -9.003  -1.031 124.334  0.00  0.00    +0.000 A 
ATOM      3  C   UNL     1      -9.285   0.283 124.297  0.00  0.00    +0.000 A 
ATOM      4  C   UNL     1      -8.988   1.053 125.521  0.00  0.00    +0.000 A 
ATOM      5  O   UNL     1      -9.228   2.258 125.561  0.00  0.00    +0.000 OA
ATOM      6  C   UNL     1      -8.404   0.341 126.684  0.00  0.00    +0.000 A 
ATOM      7  C   UNL     1      -8.152   1.062 127.856  0.00  0.00    +0.000 A 
ATOM      8  C   UNL     1      -7.630   0.410 128.972  0.00  0.00    +0.000 A 
ATOM      9  F   UNL     1      -7.381   1.143 130.068  0.00  0.00    +0.000 F 
ATOM     10  C   UNL     1      -7.307  -0.949 128.953  0.00  0.00    +0.000 A 
ATOM     11  C   UNL     1      -7.544  -1.630 127.745  0.00  0.00    +0.000 A 
ATOM     12  F   UNL     1      -7.219  -2.935 127.735  0.00  0.00    +0.000 F 
ATOM     13  C   UNL     1      -8.126  -1.034 126.600  0.00  0.00    +0.000 A 
ENDROOT
BRANCH  10  14
ATOM     14  N   UNL     1      -6.761  -1.611 130.034  0.00  0.00    +0.000 N 
ATOM     15  C   UNL     1      -5.315  -1.607 130.275  0.00  0.00    +0.000 C 
ATOM     16  C   UNL     1      -5.058  -1.062 131.697  0.00  0.00    +0.000 C 
ATOM     17  N   UNL     1      -5.765  -1.832 132.740  0.00  0.00    +0.000 NA
ATOM     18  C   UNL     1      -7.223  -1.833 132.453  0.00  0.00    +0.000 C 
ATOM     19  C   UNL     1      -7.919  -2.689 133.506  0.00  0.00    +0.000 C 
ATOM     20  C   UNL     1      -7.550  -2.349 131.025  0.00  0.00    +0.000 C 
ATOM     21  H   UNL     1      -5.599  -1.400 133.648  0.00  0.00    +0.000 HD
ENDBRANCH  10  14
BRANCH   1  23
ATOM     22  C   UNL     1      -7.312  -3.665 124.350  0.00  0.00    +0.000 C 
ATOM     23  C   UNL     1      -8.326  -3.202 125.396  0.00  0.00    +0.000 C 
ENDBRANCH   1  23
BRANCH   3  24
ATOM     24  C   UNL     1      -9.877   0.889 123.083  0.00  0.00    +0.000 C 
ATOM     25  O   UNL     1     -10.799   0.375 122.460  0.00  0.00    +0.000 OA
BRANCH  24  26
ATOM     26  O   UNL     1      -9.330   2.063 122.700  0.00  0.00    +0.000 OA
ATOM     27  H   UNL     1      -9.980   2.797 122.567  0.00  0.00    +0.000 HD
ENDBRANCH  24  26
ENDBRANCH   3  24
TORSDOF 4
ENDMDL
MODEL 6
REMARK VINA RESULT:      -6.7      3.604      7.534
REMARK  Name = Lomefloxacin
REMARK  6 active torsions:
REMARK  status: ('A' for Active; 'I' for Inactive)
REMARK    1  A    between atoms: C_1  and  C_2
REMARK    2  A    between atoms: C_2  and  N_3
REMARK    3  A    between atoms: C_5  and  C_6
REMARK    4  A    between atoms: C_6  and  O_7
REMARK    5  A    between atoms: C_15  and  N_16
REMARK    6  A    between atoms: C_20  and  C_21
REMARK                            x       y       z     vdW  Elec       q    Type
REMARK                         _______ _______ _______ _____ _____    ______ ____
ROOT
ATOM      1  N   UNL     1      -7.328   3.127 128.664  0.00  0.00    +0.000 N 
ATOM      2  C   UNL     1      -6.381   3.986 129.217  0.00  0.00    +0.000 A 
ATOM      3  C   UNL     1      -5.359   4.572 128.570  0.00  0.00    +0.000 A 
ATOM      4  C   UNL     1      -5.224   4.257 127.134  0.00  0.00    +0.000 A 
ATOM      5  O   UNL     1      -4.307   4.751 126.481  0.00  0.00    +0.000 OA
ATOM      6  C   UNL     1      -6.210   3.339 126.512  0.00  0.00    +0.000 A 
ATOM      7  C   UNL     1      -6.066   3.013 125.160  0.00  0.00    +0.000 A 
ATOM      8  C   UNL     1      -6.962   2.131 124.560  0.00  0.00    +0.000 A 
ATOM      9  F   UNL     1      -6.802   1.864 123.254  0.00  0.00    +0.000 F 
ATOM     10  C   UNL     1      -8.040   1.580 125.258  0.00  0.00    +0.000 A 
ATOM     11  C   UNL     1      -8.169   1.959 126.606  0.00  0.00    +0.000 A 
ATOM     12  F   UNL     1      -9.216   1.431 127.265  0.00  0.00    +0.000 F 
ATOM     13  C   UNL     1      -7.257   2.804 127.284  0.00  0.00    +0.000 A 
ENDROOT
BRANCH  10  14
ATOM     14  N   UNL     1      -8.959   0.728 124.679  0.00  0.00    +0.000 N 
ATOM     15  C   UNL     1     -10.140   1.246 123.983  0.00  0.00    +0.000 C 
ATOM     16  C   UNL     1     -10.146   0.683 122.544  0.00  0.00    +0.000 C 
ATOM     17  N   UNL     1     -10.117  -0.793 122.509  0.00  0.00    +0.000 NA
ATOM     18  C   UNL     1      -8.920  -1.283 123.241  0.00  0.00    +0.000 C 
ATOM     19  C   UNL     1      -8.951  -2.808 123.246  0.00  0.00    +0.000 C 
ATOM     20  C   UNL     1      -8.841  -0.733 124.692  0.00  0.00    +0.000 C 
ATOM     21  H   UNL     1     -10.072  -1.106 121.541  0.00  0.00    +0.000 HD
ENDBRANCH  10  14
BRANCH   1  23
ATOM     22  C   UNL     1      -9.349   3.379 130.079  0.00  0.00    +0.000 C 
ATOM     23  C   UNL     1      -8.317   2.412 129.500  0.00  0.00    +0.000 C 
ENDBRANCH   1  23
BRANCH   3  24
ATOM     24  C   UNL     1      -4.427   5.466 129.293  0.00  0.00    +0.000 C 
ATOM     25  O   UNL     1      -3.843   5.135 130.319  0.00  0.00    +0.000 OA
BRANCH  24  26
ATOM     26  O   UNL     1      -4.256   6.687 128.742  0.00  0.00    +0.000 OA
ATOM     27  H   UNL     1      -4.185   6.689 127.756  0.00  0.00    +0.000 HD
ENDBRANCH  24  26
ENDBRANCH   3  24
TORSDOF 4
ENDMDL
MODEL 7
REMARK VINA RESULT:      -6.6      3.881      4.970
REMARK  Name = Lomefloxacin
REMARK  6 active torsions:
REMARK  status: ('A' for Active; 'I' for Inactive)
REMARK    1  A    between atoms: C_1  and  C_2
REMARK    2  A    between atoms: C_2  and  N_3
REMARK    3  A    between atoms: C_5  and  C_6
REMARK    4  A    between atoms: C_6  and  O_7
REMARK    5  A    between atoms: C_15  and  N_16
REMARK    6  A    between atoms: C_20  and  C_21
REMARK                            x       y       z     vdW  Elec       q    Type
REMARK                         _______ _______ _______ _____ _____    ______ ____
ROOT
ATOM      1  N   UNL     1      -8.361   0.229 125.901  0.00  0.00    +0.000 N 
ATOM      2  C   UNL     1      -8.637  -0.519 124.758  0.00  0.00    +0.000 A 
ATOM      3  C   UNL     1      -8.728  -1.857 124.682  0.00  0.00    +0.000 A 
ATOM      4  C   UNL     1      -8.496  -2.603 125.935  0.00  0.00    +0.000 A 
ATOM      5  O   UNL     1      -8.555  -3.831 125.937  0.00  0.00    +0.000 OA
ATOM      6  C   UNL     1      -8.191  -1.840 127.170  0.00  0.00    +0.000 A 
ATOM      7  C   UNL     1      -7.938  -2.546 128.351  0.00  0.00    +0.000 A 
ATOM      8  C   UNL     1      -7.621  -1.853 129.518  0.00  0.00    +0.000 A 
ATOM      9  F   UNL     1      -7.410  -2.568 130.634  0.00  0.00    +0.000 F 
ATOM     10  C   UNL     1      -7.584  -0.457 129.565  0.00  0.00    +0.000 A 
ATOM     11  C   UNL     1      -7.876   0.215 128.365  0.00  0.00    +0.000 A 
ATOM     12  F   UNL     1      -7.847   1.559 128.424  0.00  0.00    +0.000 F 
ATOM     13  C   UNL     1      -8.147  -0.435 127.136  0.00  0.00    +0.000 A 
ENDROOT
BRANCH  10  14
ATOM     14  N   UNL     1      -7.302   0.253 130.714  0.00  0.00    +0.000 N 
ATOM     15  C   UNL     1      -5.931   0.653 131.042  0.00  0.00    +0.000 C 
ATOM     16  C   UNL     1      -5.900   2.186 131.233  0.00  0.00    +0.000 C 
ATOM     17  N   UNL     1      -6.847   2.651 132.266  0.00  0.00    +0.000 NA
ATOM     18  C   UNL     1      -8.222   2.211 131.913  0.00  0.00    +0.000 C 
ATOM     19  C   UNL     1      -9.167   2.646 133.029  0.00  0.00    +0.000 C 
ATOM     20  C   UNL     1      -8.317   0.677 131.683  0.00  0.00    +0.000 C 
ATOM     21  H   UNL     1      -6.820   3.668 132.314  0.00  0.00    +0.000 HD
ENDBRANCH  10  14
BRANCH   1  23
ATOM     22  C   UNL     1      -8.923   2.327 124.703  0.00  0.00    +0.000 C 
ATOM     23  C   UNL     1      -8.127   1.688 125.841  0.00  0.00    +0.000 C 
ENDBRANCH   1  23
BRANCH   3  24
ATOM     24  C   UNL     1      -9.029  -2.517 123.391  0.00  0.00    +0.000 C 
ATOM     25  O   UNL     1      -8.382  -2.315 122.370  0.00  0.00    +0.000 OA
BRANCH  24  26
ATOM     26  O   UNL     1     -10.077  -3.369 123.410  0.00  0.00    +0.000 OA
ATOM     27  H   UNL     1     -10.748  -3.182 124.112  0.00  0.00    +0.000 HD
ENDBRANCH  24  26
ENDBRANCH   3  24
TORSDOF 4
ENDMDL
MODEL 8
REMARK VINA RESULT:      -6.4      5.119      6.879
REMARK  Name = Lomefloxacin
REMARK  6 active torsions:
REMARK  status: ('A' for Active; 'I' for Inactive)
REMARK    1  A    between atoms: C_1  and  C_2
REMARK    2  A    between atoms: C_2  and  N_3
REMARK    3  A    between atoms: C_5  and  C_6
REMARK    4  A    between atoms: C_6  and  O_7
REMARK    5  A    between atoms: C_15  and  N_16
REMARK    6  A    between atoms: C_20  and  C_21
REMARK                            x       y       z     vdW  Elec       q    Type
REMARK                         _______ _______ _______ _____ _____    ______ ____
ROOT
ATOM      1  N   UNL     1      -8.093   0.882 129.048  0.00  0.00    +0.000 N 
ATOM      2  C   UNL     1      -7.670  -0.441 129.148  0.00  0.00    +0.000 A 
ATOM      3  C   UNL     1      -7.641  -1.189 130.264  0.00  0.00    +0.000 A 
ATOM      4  C   UNL     1      -8.090  -0.530 131.507  0.00  0.00    +0.000 A 
ATOM      5  O   UNL     1      -8.083  -1.152 132.568  0.00  0.00    +0.000 OA
ATOM      6  C   UNL     1      -8.540   0.882 131.440  0.00  0.00    +0.000 A 
ATOM      7  C   UNL     1      -8.935   1.518 132.621  0.00  0.00    +0.000 A 
ATOM      8  C   UNL     1      -9.335   2.853 132.589  0.00  0.00    +0.000 A 
ATOM      9  F   UNL     1      -9.729   3.418 133.741  0.00  0.00    +0.000 F 
ATOM     10  C   UNL     1      -9.395   3.581 131.398  0.00  0.00    +0.000 A 
ATOM     11  C   UNL     1      -9.022   2.894 130.228  0.00  0.00    +0.000 A 
ATOM     12  F   UNL     1      -9.093   3.601 129.086  0.00  0.00    +0.000 F 
ATOM     13  C   UNL     1      -8.552   1.558 130.208  0.00  0.00    +0.000 A 
ENDROOT
BRANCH  10  14
ATOM     14  N   UNL     1      -9.816   4.894 131.334  0.00  0.00    +0.000 N 
ATOM     15  C   UNL     1      -8.920   5.995 131.697  0.00  0.00    +0.000 C 
ATOM     16  C   UNL     1      -8.832   6.968 130.500  0.00  0.00    +0.000 C 
ATOM     17  N   UNL     1     -10.154   7.479 130.082  0.00  0.00    +0.000 NA
ATOM     18  C   UNL     1     -11.041   6.336 129.743  0.00  0.00    +0.000 C 
ATOM     19  C   UNL     1     -12.416   6.887 129.379  0.00  0.00    +0.000 C 
ATOM     20  C   UNL     1     -11.154   5.304 130.898  0.00  0.00    +0.000 C 
ATOM     21  H   UNL     1     -10.041   8.073 129.262  0.00  0.00    +0.000 HD
ENDBRANCH  10  14
BRANCH   1  23
ATOM     22  C   UNL     1      -8.773   1.066 126.669  0.00  0.00    +0.000 C 
ATOM     23  C   UNL     1      -7.934   1.660 127.800  0.00  0.00    +0.000 C 
ENDBRANCH   1  23
BRANCH   3  24
ATOM     24  C   UNL     1      -7.162  -2.589 130.218  0.00  0.00    +0.000 C 
ATOM     25  O   UNL     1      -7.634  -3.433 129.465  0.00  0.00    +0.000 OA
BRANCH  24  26
ATOM     26  O   UNL     1      -6.157  -2.882 131.071  0.00  0.00    +0.000 OA
ATOM     27  H   UNL     1      -6.446  -3.105 131.989  0.00  0.00    +0.000 HD
ENDBRANCH  24  26
ENDBRANCH   3  24
TORSDOF 4
ENDMDL
MODEL 9
REMARK VINA RESULT:      -6.4      4.371      5.965
REMARK  Name = Lomefloxacin
REMARK  6 active torsions:
REMARK  status: ('A' for Active; 'I' for Inactive)
REMARK    1  A    between atoms: C_1  and  C_2
REMARK    2  A    between atoms: C_2  and  N_3
REMARK    3  A    between atoms: C_5  and  C_6
REMARK    4  A    between atoms: C_6  and  O_7
REMARK    5  A    between atoms: C_15  and  N_16
REMARK    6  A    between atoms: C_20  and  C_21
REMARK                            x       y       z     vdW  Elec       q    Type
REMARK                         _______ _______ _______ _____ _____    ______ ____
ROOT
ATOM      1  N   UNL     1      -7.872   0.843 126.391  0.00  0.00    +0.000 N 
ATOM      2  C   UNL     1      -8.390   1.258 125.166  0.00  0.00    +0.000 A 
ATOM      3  C   UNL     1      -9.034   0.492 124.269  0.00  0.00    +0.000 A 
ATOM      4  C   UNL     1      -9.191  -0.935 124.617  0.00  0.00    +0.000 A 
ATOM      5  O   UNL     1      -9.762  -1.696 123.840  0.00  0.00    +0.000 OA
ATOM      6  C   UNL     1      -8.643  -1.415 125.910  0.00  0.00    +0.000 A 
ATOM      7  C   UNL     1      -8.761  -2.772 126.227  0.00  0.00    +0.000 A 
ATOM      8  C   UNL     1      -8.230  -3.253 127.423  0.00  0.00    +0.000 A 
ATOM      9  F   UNL     1      -8.387  -4.557 127.699  0.00  0.00    +0.000 F 
ATOM     10  C   UNL     1      -7.609  -2.412 128.350  0.00  0.00    +0.000 A 
ATOM     11  C   UNL     1      -7.541  -1.049 128.008  0.00  0.00    +0.000 A 
ATOM     12  F   UNL     1      -6.950  -0.247 128.912  0.00  0.00    +0.000 F 
ATOM     13  C   UNL     1      -8.010  -0.514 126.784  0.00  0.00    +0.000 A 
ENDROOT
BRANCH  10  14
ATOM     14  N   UNL     1      -7.102  -2.858 129.554  0.00  0.00    +0.000 N 
ATOM     15  C   UNL     1      -5.712  -3.305 129.671  0.00  0.00    +0.000 C 
ATOM     16  C   UNL     1      -5.025  -2.479 130.782  0.00  0.00    +0.000 C 
ATOM     17  N   UNL     1      -5.722  -2.576 132.080  0.00  0.00    +0.000 NA
ATOM     18  C   UNL     1      -7.133  -2.136 131.918  0.00  0.00    +0.000 C 
ATOM     19  C   UNL     1      -7.845  -2.310 133.256  0.00  0.00    +0.000 C 
ATOM     20  C   UNL     1      -7.876  -2.912 130.797  0.00  0.00    +0.000 C 
ATOM     21  H   UNL     1      -5.257  -1.976 132.758  0.00  0.00    +0.000 HD
ENDBRANCH  10  14
BRANCH   1  23
ATOM     22  C   UNL     1      -5.687   2.002 126.574  0.00  0.00    +0.000 C 
ATOM     23  C   UNL     1      -7.042   1.734 127.230  0.00  0.00    +0.000 C 
ENDBRANCH   1  23
BRANCH   3  24
ATOM     24  C   UNL     1      -9.532   1.075 123.003  0.00  0.00    +0.000 C 
ATOM     25  O   UNL     1      -9.010   2.043 122.462  0.00  0.00    +0.000 OA
BRANCH  24  26
ATOM     26  O   UNL     1     -10.613   0.463 122.472  0.00  0.00    +0.000 OA
ATOM     27  H   UNL     1     -10.419  -0.391 122.012  0.00  0.00    +0.000 HD
ENDBRANCH  24  26
ENDBRANCH   3  24
TORSDOF 4
ENDMDL
