MODEL 1
REMARK VINA RESULT:      -8.8      0.000      0.000
REMARK  Name = Lomitapide
REMARK  12 active torsions:
REMARK  status: ('A' for Active; 'I' for Inactive)
REMARK    1  A    between atoms: C_2  and  C_5
REMARK    2  A    between atoms: C_5  and  N_6
REMARK    3  A    between atoms: C_7  and  C_9
REMARK    4  A    between atoms: C_9  and  C_10
REMARK    5  A    between atoms: C_10  and  C_11
REMARK    6  A    between atoms: C_11  and  C_12
REMARK    7  A    between atoms: C_12  and  C_13
REMARK    8  A    between atoms: C_13  and  N_14
REMARK    9  A    between atoms: C_17  and  N_20
REMARK   10  A    between atoms: C_21  and  C_23
REMARK   11  A    between atoms: C_24  and  C_29
REMARK   12  A    between atoms: C_32  and  C_35
REMARK                            x       y       z     vdW  Elec       q    Type
REMARK                         _______ _______ _______ _____ _____    ______ ____
ROOT
ATOM      1  C   UNL     1      -7.515   0.471 127.089  0.00  0.00    +0.000 C 
ENDROOT
BRANCH   1   2
ATOM      2  N   UNL     1      -6.821   1.632 126.518  0.00  0.00    +0.000 NA
ATOM      3  C   UNL     1      -7.286   2.874 127.152  0.00  0.00    +0.000 C 
ATOM      4  C   UNL     1      -6.616   4.076 126.492  0.00  0.00    +0.000 C 
ATOM      5  C   UNL     1      -5.084   3.982 126.580  0.00  0.00    +0.000 C 
ATOM      6  C   UNL     1      -4.631   2.650 125.999  0.00  0.00    +0.000 C 
ATOM      7  C   UNL     1      -5.366   1.500 126.659  0.00  0.00    +0.000 C 
BRANCH   5   8
ATOM      8  N   UNL     1      -4.595   4.149 127.952  0.00  0.00    +0.000 N 
ATOM      9  C   UNL     1      -4.364   5.401 128.478  0.00  0.00    +0.000 C 
ATOM     10  O   UNL     1      -4.467   6.442 127.830  0.00  0.00    +0.000 OA
ATOM     11  H   UNL     1      -4.517   3.336 128.551  0.00  0.00    +0.000 HD
BRANCH   9  12
ATOM     12  C   UNL     1      -3.971   5.465 129.905  0.00  0.00    +0.000 A 
ATOM     13  C   UNL     1      -4.911   5.819 130.896  0.00  0.00    +0.000 A 
ATOM     14  C   UNL     1      -4.435   6.069 132.198  0.00  0.00    +0.000 A 
ATOM     15  C   UNL     1      -3.099   5.859 132.534  0.00  0.00    +0.000 A 
ATOM     16  C   UNL     1      -2.196   5.457 131.557  0.00  0.00    +0.000 A 
ATOM     17  C   UNL     1      -2.623   5.277 130.240  0.00  0.00    +0.000 A 
BRANCH  13  18
ATOM     18  C   UNL     1      -6.368   5.800 130.692  0.00  0.00    +0.000 A 
ATOM     19  C   UNL     1      -7.163   6.893 131.062  0.00  0.00    +0.000 A 
ATOM     20  C   UNL     1      -8.552   6.788 131.080  0.00  0.00    +0.000 A 
ATOM     21  C   UNL     1      -9.184   5.624 130.619  0.00  0.00    +0.000 A 
ATOM     22  C   UNL     1      -8.400   4.536 130.221  0.00  0.00    +0.000 A 
ATOM     23  C   UNL     1      -7.008   4.623 130.267  0.00  0.00    +0.000 A 
BRANCH  21  24
ATOM     24  C   UNL     1     -10.684   5.593 130.498  0.00  0.00    +0.000 C 
ATOM     25  F   UNL     1     -11.314   5.875 131.672  0.00  0.00    +0.000 F 
ATOM     26  F   UNL     1     -11.140   6.507 129.598  0.00  0.00    +0.000 F 
ATOM     27  F   UNL     1     -11.174   4.389 130.088  0.00  0.00    +0.000 F 
ENDBRANCH  21  24
ENDBRANCH  13  18
ENDBRANCH   9  12
ENDBRANCH   5   8
ENDBRANCH   1   2
BRANCH   1  28
ATOM     28  C   UNL     1      -6.722  -0.090 128.268  0.00  0.00    +0.000 C 
BRANCH  28  29
ATOM     29  C   UNL     1      -7.323   0.329 129.583  0.00  0.00    +0.000 C 
BRANCH  29  30
ATOM     30  C   UNL     1      -6.278   1.103 130.395  0.00  0.00    +0.000 C 
BRANCH  30  31
ATOM     31  C   UNL     1      -6.413   0.881 131.911  0.00  0.00    +0.000 C 
ATOM     32  C   UNL     1      -7.566   1.716 132.487  0.00  0.00    +0.000 A 
ATOM     33  C   UNL     1      -8.917   1.658 132.161  0.00  0.00    +0.000 A 
ATOM     34  C   UNL     1      -9.788   2.541 132.796  0.00  0.00    +0.000 A 
ATOM     35  C   UNL     1      -9.303   3.479 133.719  0.00  0.00    +0.000 A 
ATOM     36  C   UNL     1      -7.938   3.552 134.024  0.00  0.00    +0.000 A 
ATOM     37  C   UNL     1      -7.071   2.661 133.411  0.00  0.00    +0.000 A 
ATOM     38  C   UNL     1      -5.633   2.514 133.519  0.00  0.00    +0.000 A 
ATOM     39  C   UNL     1      -4.707   3.218 134.270  0.00  0.00    +0.000 A 
ATOM     40  C   UNL     1      -3.355   2.870 134.172  0.00  0.00    +0.000 A 
ATOM     41  C   UNL     1      -2.931   1.850 133.307  0.00  0.00    +0.000 A 
ATOM     42  C   UNL     1      -3.852   1.176 132.513  0.00  0.00    +0.000 A 
ATOM     43  C   UNL     1      -5.205   1.482 132.655  0.00  0.00    +0.000 A 
BRANCH  31  45
ATOM     44  N   UNL     1      -5.763  -1.505 131.564  0.00  0.00    +0.000 N 
ATOM     45  C   UNL     1      -6.644  -0.630 132.156  0.00  0.00    +0.000 C 
ATOM     46  O   UNL     1      -7.623  -1.062 132.768  0.00  0.00    +0.000 OA
ATOM     47  H   UNL     1      -4.892  -1.165 131.183  0.00  0.00    +0.000 HD
BRANCH  44  48
ATOM     48  C   UNL     1      -5.869  -2.947 131.746  0.00  0.00    +0.000 C 
BRANCH  48  50
ATOM     49  F   UNL     1      -7.673  -3.540 130.312  0.00  0.00    +0.000 F 
ATOM     50  C   UNL     1      -6.345  -3.676 130.493  0.00  0.00    +0.000 C 
ATOM     51  F   UNL     1      -6.064  -4.997 130.569  0.00  0.00    +0.000 F 
ATOM     52  F   UNL     1      -5.720  -3.198 129.391  0.00  0.00    +0.000 F 
ENDBRANCH  48  50
ENDBRANCH  44  48
ENDBRANCH  31  45
ENDBRANCH  30  31
ENDBRANCH  29  30
ENDBRANCH  28  29
ENDBRANCH   1  28
TORSDOF 12
ENDMDL
MODEL 2
REMARK VINA RESULT:      -8.8      2.488      3.925
REMARK  Name = Lomitapide
REMARK  12 active torsions:
REMARK  status: ('A' for Active; 'I' for Inactive)
REMARK    1  A    between atoms: C_2  and  C_5
REMARK    2  A    between atoms: C_5  and  N_6
REMARK    3  A    between atoms: C_7  and  C_9
REMARK    4  A    between atoms: C_9  and  C_10
REMARK    5  A    between atoms: C_10  and  C_11
REMARK    6  A    between atoms: C_11  and  C_12
REMARK    7  A    between atoms: C_12  and  C_13
REMARK    8  A    between atoms: C_13  and  N_14
REMARK    9  A    between atoms: C_17  and  N_20
REMARK   10  A    between atoms: C_21  and  C_23
REMARK   11  A    between atoms: C_24  and  C_29
REMARK   12  A    between atoms: C_32  and  C_35
REMARK                            x       y       z     vdW  Elec       q    Type
REMARK                         _______ _______ _______ _____ _____    ______ ____
ROOT
ATOM      1  C   UNL     1      -5.490   0.516 127.303  0.00  0.00    +0.000 C 
ENDROOT
BRANCH   1   2
ATOM      2  N   UNL     1      -5.386   1.908 126.847  0.00  0.00    +0.000 NA
ATOM      3  C   UNL     1      -6.082   2.810 127.775  0.00  0.00    +0.000 C 
ATOM      4  C   UNL     1      -6.035   4.240 127.244  0.00  0.00    +0.000 C 
ATOM      5  C   UNL     1      -4.586   4.713 127.039  0.00  0.00    +0.000 C 
ATOM      6  C   UNL     1      -3.858   3.718 126.146  0.00  0.00    +0.000 C 
ATOM      7  C   UNL     1      -3.983   2.312 126.698  0.00  0.00    +0.000 C 
BRANCH   5   8
ATOM      8  N   UNL     1      -3.877   4.897 128.308  0.00  0.00    +0.000 N 
ATOM      9  C   UNL     1      -3.780   6.138 128.897  0.00  0.00    +0.000 C 
ATOM     10  O   UNL     1      -4.197   7.173 128.376  0.00  0.00    +0.000 OA
ATOM     11  H   UNL     1      -3.534   4.083 128.805  0.00  0.00    +0.000 HD
BRANCH   9  12
ATOM     12  C   UNL     1      -3.132   6.198 130.228  0.00  0.00    +0.000 A 
ATOM     13  C   UNL     1      -3.906   6.177 131.406  0.00  0.00    +0.000 A 
ATOM     14  C   UNL     1      -3.258   6.451 132.627  0.00  0.00    +0.000 A 
ATOM     15  C   UNL     1      -1.876   6.618 132.692  0.00  0.00    +0.000 A 
ATOM     16  C   UNL     1      -1.120   6.581 131.526  0.00  0.00    +0.000 A 
ATOM     17  C   UNL     1      -1.745   6.392 130.292  0.00  0.00    +0.000 A 
BRANCH  13  18
ATOM     18  C   UNL     1      -5.312   5.746 131.460  0.00  0.00    +0.000 A 
ATOM     19  C   UNL     1      -6.354   6.682 131.479  0.00  0.00    +0.000 A 
ATOM     20  C   UNL     1      -7.661   6.285 131.758  0.00  0.00    +0.000 A 
ATOM     21  C   UNL     1      -7.975   4.927 131.911  0.00  0.00    +0.000 A 
ATOM     22  C   UNL     1      -6.946   3.981 131.866  0.00  0.00    +0.000 A 
ATOM     23  C   UNL     1      -5.629   4.390 131.653  0.00  0.00    +0.000 A 
BRANCH  21  24
ATOM     24  C   UNL     1      -9.414   4.511 132.052  0.00  0.00    +0.000 C 
ATOM     25  F   UNL     1      -9.925   3.980 130.907  0.00  0.00    +0.000 F 
ATOM     26  F   UNL     1      -9.576   3.559 133.012  0.00  0.00    +0.000 F 
ATOM     27  F   UNL     1     -10.247   5.533 132.396  0.00  0.00    +0.000 F 
ENDBRANCH  21  24
ENDBRANCH  13  18
ENDBRANCH   9  12
ENDBRANCH   5   8
ENDBRANCH   1   2
BRANCH   1  28
ATOM     28  C   UNL     1      -4.940   0.385 128.723  0.00  0.00    +0.000 C 
BRANCH  28  29
ATOM     29  C   UNL     1      -4.907  -1.053 129.168  0.00  0.00    +0.000 C 
BRANCH  29  30
ATOM     30  C   UNL     1      -5.968  -1.847 128.398  0.00  0.00    +0.000 C 
BRANCH  30  31
ATOM     31  C   UNL     1      -7.099  -2.367 129.301  0.00  0.00    +0.000 C 
ATOM     32  C   UNL     1      -7.662  -1.241 130.180  0.00  0.00    +0.000 A 
ATOM     33  C   UNL     1      -8.265  -0.054 129.778  0.00  0.00    +0.000 A 
ATOM     34  C   UNL     1      -8.676   0.845 130.760  0.00  0.00    +0.000 A 
ATOM     35  C   UNL     1      -8.459   0.564 132.117  0.00  0.00    +0.000 A 
ATOM     36  C   UNL     1      -7.826  -0.620 132.517  0.00  0.00    +0.000 A 
ATOM     37  C   UNL     1      -7.435  -1.526 131.544  0.00  0.00    +0.000 A 
ATOM     38  C   UNL     1      -6.759  -2.803 131.657  0.00  0.00    +0.000 A 
ATOM     39  C   UNL     1      -6.311  -3.491 132.773  0.00  0.00    +0.000 A 
ATOM     40  C   UNL     1      -5.665  -4.721 132.591  0.00  0.00    +0.000 A 
ATOM     41  C   UNL     1      -5.443  -5.238 131.307  0.00  0.00    +0.000 A 
ATOM     42  C   UNL     1      -5.845  -4.525 130.183  0.00  0.00    +0.000 A 
ATOM     43  C   UNL     1      -6.541  -3.331 130.366  0.00  0.00    +0.000 A 
BRANCH  31  45
ATOM     44  N   UNL     1      -8.217  -2.569 127.076  0.00  0.00    +0.000 N 
ATOM     45  C   UNL     1      -8.201  -2.966 128.393  0.00  0.00    +0.000 C 
ATOM     46  O   UNL     1      -9.098  -3.692 128.828  0.00  0.00    +0.000 OA
ATOM     47  H   UNL     1      -7.418  -2.092 126.683  0.00  0.00    +0.000 HD
BRANCH  44  48
ATOM     48  C   UNL     1      -9.194  -3.086 126.126  0.00  0.00    +0.000 C 
BRANCH  48  50
ATOM     49  F   UNL     1      -8.022  -4.742 124.882  0.00  0.00    +0.000 F 
ATOM     50  C   UNL     1      -8.572  -3.514 124.801  0.00  0.00    +0.000 C 
ATOM     51  F   UNL     1      -7.607  -2.646 124.419  0.00  0.00    +0.000 F 
ATOM     52  F   UNL     1      -9.502  -3.535 123.817  0.00  0.00    +0.000 F 
ENDBRANCH  48  50
ENDBRANCH  44  48
ENDBRANCH  31  45
ENDBRANCH  30  31
ENDBRANCH  29  30
ENDBRANCH  28  29
ENDBRANCH   1  28
TORSDOF 12
ENDMDL
MODEL 3
REMARK VINA RESULT:      -8.8      3.491      5.914
REMARK  Name = Lomitapide
REMARK  12 active torsions:
REMARK  status: ('A' for Active; 'I' for Inactive)
REMARK    1  A    between atoms: C_2  and  C_5
REMARK    2  A    between atoms: C_5  and  N_6
REMARK    3  A    between atoms: C_7  and  C_9
REMARK    4  A    between atoms: C_9  and  C_10
REMARK    5  A    between atoms: C_10  and  C_11
REMARK    6  A    between atoms: C_11  and  C_12
REMARK    7  A    between atoms: C_12  and  C_13
REMARK    8  A    between atoms: C_13  and  N_14
REMARK    9  A    between atoms: C_17  and  N_20
REMARK   10  A    between atoms: C_21  and  C_23
REMARK   11  A    between atoms: C_24  and  C_29
REMARK   12  A    between atoms: C_32  and  C_35
REMARK                            x       y       z     vdW  Elec       q    Type
REMARK                         _______ _______ _______ _____ _____    ______ ____
ROOT
ATOM      1  C   UNL     1      -4.578   3.392 125.741  0.00  0.00    +0.000 C 
ENDROOT
BRANCH   1   2
ATOM      2  N   UNL     1      -3.793   4.259 126.628  0.00  0.00    +0.000 NA
ATOM      3  C   UNL     1      -4.599   5.403 127.079  0.00  0.00    +0.000 C 
ATOM      4  C   UNL     1      -3.744   6.336 127.933  0.00  0.00    +0.000 C 
ATOM      5  C   UNL     1      -3.153   5.600 129.146  0.00  0.00    +0.000 C 
ATOM      6  C   UNL     1      -2.397   4.370 128.663  0.00  0.00    +0.000 C 
ATOM      7  C   UNL     1      -3.280   3.510 127.782  0.00  0.00    +0.000 C 
BRANCH   5   8
ATOM      8  N   UNL     1      -4.177   5.235 130.128  0.00  0.00    +0.000 N 
ATOM      9  C   UNL     1      -3.835   4.839 131.401  0.00  0.00    +0.000 C 
ATOM     10  O   UNL     1      -2.673   4.686 131.777  0.00  0.00    +0.000 OA
ATOM     11  H   UNL     1      -5.154   5.366 129.894  0.00  0.00    +0.000 HD
BRANCH   9  12
ATOM     12  C   UNL     1      -4.948   4.592 132.348  0.00  0.00    +0.000 A 
ATOM     13  C   UNL     1      -5.561   3.324 132.423  0.00  0.00    +0.000 A 
ATOM     14  C   UNL     1      -6.744   3.206 133.180  0.00  0.00    +0.000 A 
ATOM     15  C   UNL     1      -7.232   4.272 133.932  0.00  0.00    +0.000 A 
ATOM     16  C   UNL     1      -6.583   5.502 133.890  0.00  0.00    +0.000 A 
ATOM     17  C   UNL     1      -5.455   5.671 133.086  0.00  0.00    +0.000 A 
BRANCH  13  18
ATOM     18  C   UNL     1      -4.968   2.090 131.883  0.00  0.00    +0.000 A 
ATOM     19  C   UNL     1      -4.815   1.906 130.503  0.00  0.00    +0.000 A 
ATOM     20  C   UNL     1      -4.468   0.658 129.987  0.00  0.00    +0.000 A 
ATOM     21  C   UNL     1      -4.156  -0.405 130.846  0.00  0.00    +0.000 A 
ATOM     22  C   UNL     1      -4.279  -0.225 132.227  0.00  0.00    +0.000 A 
ATOM     23  C   UNL     1      -4.690   1.008 132.737  0.00  0.00    +0.000 A 
BRANCH  21  24
ATOM     24  C   UNL     1      -3.631  -1.693 130.269  0.00  0.00    +0.000 C 
ATOM     25  F   UNL     1      -2.271  -1.741 130.234  0.00  0.00    +0.000 F 
ATOM     26  F   UNL     1      -4.026  -2.774 130.997  0.00  0.00    +0.000 F 
ATOM     27  F   UNL     1      -4.049  -1.930 128.994  0.00  0.00    +0.000 F 
ENDBRANCH  21  24
ENDBRANCH  13  18
ENDBRANCH   9  12
ENDBRANCH   5   8
ENDBRANCH   1   2
BRANCH   1  28
ATOM     28  C   UNL     1      -4.567   1.956 126.262  0.00  0.00    +0.000 C 
BRANCH  28  29
ATOM     29  C   UNL     1      -5.933   1.330 126.175  0.00  0.00    +0.000 C 
BRANCH  29  30
ATOM     30  C   UNL     1      -5.966   0.061 127.034  0.00  0.00    +0.000 C 
BRANCH  30  31
ATOM     31  C   UNL     1      -7.370  -0.265 127.569  0.00  0.00    +0.000 C 
ATOM     32  C   UNL     1      -7.913   0.886 128.428  0.00  0.00    +0.000 A 
ATOM     33  C   UNL     1      -8.149   2.204 128.051  0.00  0.00    +0.000 A 
ATOM     34  C   UNL     1      -8.619   3.093 129.015  0.00  0.00    +0.000 A 
ATOM     35  C   UNL     1      -8.819   2.668 130.338  0.00  0.00    +0.000 A 
ATOM     36  C   UNL     1      -8.553   1.347 130.719  0.00  0.00    +0.000 A 
ATOM     37  C   UNL     1      -8.106   0.455 129.758  0.00  0.00    +0.000 A 
ATOM     38  C   UNL     1      -7.742  -0.945 129.862  0.00  0.00    +0.000 A 
ATOM     39  C   UNL     1      -7.740  -1.798 130.953  0.00  0.00    +0.000 A 
ATOM     40  C   UNL     1      -7.319  -3.121 130.772  0.00  0.00    +0.000 A 
ATOM     41  C   UNL     1      -6.877  -3.575 129.522  0.00  0.00    +0.000 A 
ATOM     42  C   UNL     1      -6.829  -2.707 128.436  0.00  0.00    +0.000 A 
ATOM     43  C   UNL     1      -7.304  -1.407 128.602  0.00  0.00    +0.000 A 
BRANCH  31  45
ATOM     44  N   UNL     1      -7.840  -1.420 125.405  0.00  0.00    +0.000 N 
ATOM     45  C   UNL     1      -8.294  -0.537 126.356  0.00  0.00    +0.000 C 
ATOM     46  O   UNL     1      -9.350   0.073 126.176  0.00  0.00    +0.000 OA
ATOM     47  H   UNL     1      -7.053  -2.021 125.607  0.00  0.00    +0.000 HD
BRANCH  44  48
ATOM     48  C   UNL     1      -8.635  -1.769 124.234  0.00  0.00    +0.000 C 
BRANCH  48  50
ATOM     49  F   UNL     1      -8.312  -4.121 124.391  0.00  0.00    +0.000 F 
ATOM     50  C   UNL     1      -9.254  -3.160 124.322  0.00  0.00    +0.000 C 
ATOM     51  F   UNL     1     -10.032  -3.410 123.244  0.00  0.00    +0.000 F 
ATOM     52  F   UNL     1     -10.043  -3.267 125.417  0.00  0.00    +0.000 F 
ENDBRANCH  48  50
ENDBRANCH  44  48
ENDBRANCH  31  45
ENDBRANCH  30  31
ENDBRANCH  29  30
ENDBRANCH  28  29
ENDBRANCH   1  28
TORSDOF 12
ENDMDL
MODEL 4
REMARK VINA RESULT:      -8.8      3.362      5.938
REMARK  Name = Lomitapide
REMARK  12 active torsions:
REMARK  status: ('A' for Active; 'I' for Inactive)
REMARK    1  A    between atoms: C_2  and  C_5
REMARK    2  A    between atoms: C_5  and  N_6
REMARK    3  A    between atoms: C_7  and  C_9
REMARK    4  A    between atoms: C_9  and  C_10
REMARK    5  A    between atoms: C_10  and  C_11
REMARK    6  A    between atoms: C_11  and  C_12
REMARK    7  A    between atoms: C_12  and  C_13
REMARK    8  A    between atoms: C_13  and  N_14
REMARK    9  A    between atoms: C_17  and  N_20
REMARK   10  A    between atoms: C_21  and  C_23
REMARK   11  A    between atoms: C_24  and  C_29
REMARK   12  A    between atoms: C_32  and  C_35
REMARK                            x       y       z     vdW  Elec       q    Type
REMARK                         _______ _______ _______ _____ _____    ______ ____
ROOT
ATOM      1  C   UNL     1      -3.805   1.936 131.762  0.00  0.00    +0.000 C 
ENDROOT
BRANCH   1   2
ATOM      2  N   UNL     1      -4.588   2.370 132.926  0.00  0.00    +0.000 NA
ATOM      3  C   UNL     1      -4.686   3.836 132.964  0.00  0.00    +0.000 C 
ATOM      4  C   UNL     1      -5.432   4.274 134.222  0.00  0.00    +0.000 C 
ATOM      5  C   UNL     1      -6.837   3.652 134.284  0.00  0.00    +0.000 C 
ATOM      6  C   UNL     1      -6.719   2.139 134.153  0.00  0.00    +0.000 C 
ATOM      7  C   UNL     1      -5.927   1.769 132.916  0.00  0.00    +0.000 C 
BRANCH   5   8
ATOM      8  N   UNL     1      -7.733   4.199 133.262  0.00  0.00    +0.000 N 
ATOM      9  C   UNL     1      -8.355   5.415 133.436  0.00  0.00    +0.000 C 
ATOM     10  O   UNL     1      -8.274   6.079 134.470  0.00  0.00    +0.000 OA
ATOM     11  H   UNL     1      -7.822   3.718 132.375  0.00  0.00    +0.000 HD
BRANCH   9  12
ATOM     12  C   UNL     1      -9.157   5.925 132.301  0.00  0.00    +0.000 A 
ATOM     13  C   UNL     1      -8.529   6.420 131.139  0.00  0.00    +0.000 A 
ATOM     14  C   UNL     1      -9.329   7.084 130.187  0.00  0.00    +0.000 A 
ATOM     15  C   UNL     1     -10.713   7.148 130.323  0.00  0.00    +0.000 A 
ATOM     16  C   UNL     1     -11.324   6.606 131.449  0.00  0.00    +0.000 A 
ATOM     17  C   UNL     1     -10.550   6.012 132.447  0.00  0.00    +0.000 A 
BRANCH  13  18
ATOM     18  C   UNL     1      -7.124   6.160 130.790  0.00  0.00    +0.000 A 
ATOM     19  C   UNL     1      -6.108   7.046 131.175  0.00  0.00    +0.000 A 
ATOM     20  C   UNL     1      -4.821   6.921 130.655  0.00  0.00    +0.000 A 
ATOM     21  C   UNL     1      -4.491   5.839 129.826  0.00  0.00    +0.000 A 
ATOM     22  C   UNL     1      -5.490   4.933 129.457  0.00  0.00    +0.000 A 
ATOM     23  C   UNL     1      -6.793   5.100 129.927  0.00  0.00    +0.000 A 
BRANCH  21  24
ATOM     24  C   UNL     1      -3.059   5.638 129.407  0.00  0.00    +0.000 C 
ATOM     25  F   UNL     1      -2.302   6.759 129.558  0.00  0.00    +0.000 F 
ATOM     26  F   UNL     1      -2.446   4.669 130.141  0.00  0.00    +0.000 F 
ATOM     27  F   UNL     1      -2.919   5.263 128.104  0.00  0.00    +0.000 F 
ENDBRANCH  21  24
ENDBRANCH  13  18
ENDBRANCH   9  12
ENDBRANCH   5   8
ENDBRANCH   1   2
BRANCH   1  28
ATOM     28  C   UNL     1      -4.691   1.883 130.519  0.00  0.00    +0.000 C 
BRANCH  28  29
ATOM     29  C   UNL     1      -4.720   0.502 129.923  0.00  0.00    +0.000 C 
BRANCH  29  30
ATOM     30  C   UNL     1      -5.525   0.528 128.619  0.00  0.00    +0.000 C 
BRANCH  30  31
ATOM     31  C   UNL     1      -6.858  -0.232 128.723  0.00  0.00    +0.000 C 
ATOM     32  C   UNL     1      -7.832   0.492 129.665  0.00  0.00    +0.000 A 
ATOM     33  C   UNL     1      -8.350   1.777 129.545  0.00  0.00    +0.000 A 
ATOM     34  C   UNL     1      -9.201   2.242 130.544  0.00  0.00    +0.000 A 
ATOM     35  C   UNL     1      -9.501   1.439 131.655  0.00  0.00    +0.000 A 
ATOM     36  C   UNL     1      -8.955   0.156 131.785  0.00  0.00    +0.000 A 
ATOM     37  C   UNL     1      -8.125  -0.319 130.782  0.00  0.00    +0.000 A 
ATOM     38  C   UNL     1      -7.418  -1.578 130.655  0.00  0.00    +0.000 A 
ATOM     39  C   UNL     1      -7.370  -2.675 131.499  0.00  0.00    +0.000 A 
ATOM     40  C   UNL     1      -6.582  -3.773 131.132  0.00  0.00    +0.000 A 
ATOM     41  C   UNL     1      -5.825  -3.758 129.952  0.00  0.00    +0.000 A 
ATOM     42  C   UNL     1      -5.831  -2.637 129.129  0.00  0.00    +0.000 A 
ATOM     43  C   UNL     1      -6.662  -1.570 129.463  0.00  0.00    +0.000 A 
BRANCH  31  45
ATOM     44  N   UNL     1      -8.255  -1.444 127.045  0.00  0.00    +0.000 N 
ATOM     45  C   UNL     1      -7.452  -0.356 127.298  0.00  0.00    +0.000 C 
ATOM     46  O   UNL     1      -7.154   0.416 126.385  0.00  0.00    +0.000 OA
ATOM     47  H   UNL     1      -8.612  -1.998 127.810  0.00  0.00    +0.000 HD
BRANCH  44  48
ATOM     48  C   UNL     1      -8.886  -1.651 125.747  0.00  0.00    +0.000 C 
BRANCH  48  50
ATOM     49  F   UNL     1      -7.598  -3.270 124.572  0.00  0.00    +0.000 F 
ATOM     50  C   UNL     1      -8.754  -3.082 125.238  0.00  0.00    +0.000 C 
ATOM     51  F   UNL     1      -9.774  -3.393 124.405  0.00  0.00    +0.000 F 
ATOM     52  F   UNL     1      -8.794  -3.965 126.264  0.00  0.00    +0.000 F 
ENDBRANCH  48  50
ENDBRANCH  44  48
ENDBRANCH  31  45
ENDBRANCH  30  31
ENDBRANCH  29  30
ENDBRANCH  28  29
ENDBRANCH   1  28
TORSDOF 12
ENDMDL
MODEL 5
REMARK VINA RESULT:      -8.7      3.633      6.682
REMARK  Name = Lomitapide
REMARK  12 active torsions:
REMARK  status: ('A' for Active; 'I' for Inactive)
REMARK    1  A    between atoms: C_2  and  C_5
REMARK    2  A    between atoms: C_5  and  N_6
REMARK    3  A    between atoms: C_7  and  C_9
REMARK    4  A    between atoms: C_9  and  C_10
REMARK    5  A    between atoms: C_10  and  C_11
REMARK    6  A    between atoms: C_11  and  C_12
REMARK    7  A    between atoms: C_12  and  C_13
REMARK    8  A    between atoms: C_13  and  N_14
REMARK    9  A    between atoms: C_17  and  N_20
REMARK   10  A    between atoms: C_21  and  C_23
REMARK   11  A    between atoms: C_24  and  C_29
REMARK   12  A    between atoms: C_32  and  C_35
REMARK                            x       y       z     vdW  Elec       q    Type
REMARK                         _______ _______ _______ _____ _____    ______ ____
ROOT
ATOM      1  C   UNL     1      -6.112  -2.925 128.950  0.00  0.00    +0.000 C 
ENDROOT
BRANCH   1   2
ATOM      2  N   UNL     1      -5.227  -2.729 130.104  0.00  0.00    +0.000 NA
ATOM      3  C   UNL     1      -4.462  -1.481 129.963  0.00  0.00    +0.000 C 
ATOM      4  C   UNL     1      -3.489  -1.333 131.129  0.00  0.00    +0.000 C 
ATOM      5  C   UNL     1      -4.226  -1.348 132.479  0.00  0.00    +0.000 C 
ATOM      6  C   UNL     1      -5.081  -2.605 132.567  0.00  0.00    +0.000 C 
ATOM      7  C   UNL     1      -5.988  -2.722 131.359  0.00  0.00    +0.000 C 
BRANCH   5   8
ATOM      8  N   UNL     1      -5.039  -0.145 132.681  0.00  0.00    +0.000 N 
ATOM      9  C   UNL     1      -4.459   1.059 133.013  0.00  0.00    +0.000 C 
ATOM     10  O   UNL     1      -3.257   1.196 133.241  0.00  0.00    +0.000 OA
ATOM     11  H   UNL     1      -6.031  -0.180 132.481  0.00  0.00    +0.000 HD
BRANCH   9  12
ATOM     12  C   UNL     1      -5.357   2.234 133.093  0.00  0.00    +0.000 A 
ATOM     13  C   UNL     1      -5.254   3.285 132.157  0.00  0.00    +0.000 A 
ATOM     14  C   UNL     1      -5.982   4.465 132.406  0.00  0.00    +0.000 A 
ATOM     15  C   UNL     1      -6.871   4.556 133.474  0.00  0.00    +0.000 A 
ATOM     16  C   UNL     1      -7.002   3.490 134.358  0.00  0.00    +0.000 A 
ATOM     17  C   UNL     1      -6.235   2.338 134.182  0.00  0.00    +0.000 A 
BRANCH  13  18
ATOM     18  C   UNL     1      -4.553   3.172 130.868  0.00  0.00    +0.000 A 
ATOM     19  C   UNL     1      -3.844   4.257 130.335  0.00  0.00    +0.000 A 
ATOM     20  C   UNL     1      -3.376   4.224 129.023  0.00  0.00    +0.000 A 
ATOM     21  C   UNL     1      -3.507   3.061 128.249  0.00  0.00    +0.000 A 
ATOM     22  C   UNL     1      -4.190   1.962 128.781  0.00  0.00    +0.000 A 
ATOM     23  C   UNL     1      -4.714   2.024 130.073  0.00  0.00    +0.000 A 
BRANCH  21  24
ATOM     24  C   UNL     1      -2.855   2.995 126.894  0.00  0.00    +0.000 C 
ATOM     25  F   UNL     1      -1.520   2.742 126.963  0.00  0.00    +0.000 F 
ATOM     26  F   UNL     1      -3.386   2.007 126.123  0.00  0.00    +0.000 F 
ATOM     27  F   UNL     1      -2.983   4.143 126.170  0.00  0.00    +0.000 F 
ENDBRANCH  21  24
ENDBRANCH  13  18
ENDBRANCH   9  12
ENDBRANCH   5   8
ENDBRANCH   1   2
BRANCH   1  28
ATOM     28  C   UNL     1      -5.551  -2.203 127.726  0.00  0.00    +0.000 C 
BRANCH  28  29
ATOM     29  C   UNL     1      -6.629  -1.458 126.985  0.00  0.00    +0.000 C 
BRANCH  29  30
ATOM     30  C   UNL     1      -6.130  -0.049 126.645  0.00  0.00    +0.000 C 
BRANCH  30  31
ATOM     31  C   UNL     1      -7.274   0.961 126.457  0.00  0.00    +0.000 C 
ATOM     32  C   UNL     1      -6.780   2.223 125.734  0.00  0.00    +0.000 A 
ATOM     33  C   UNL     1      -6.222   2.324 124.464  0.00  0.00    +0.000 A 
ATOM     34  C   UNL     1      -5.814   3.580 124.020  0.00  0.00    +0.000 A 
ATOM     35  C   UNL     1      -5.941   4.704 124.850  0.00  0.00    +0.000 A 
ATOM     36  C   UNL     1      -6.478   4.593 126.138  0.00  0.00    +0.000 A 
ATOM     37  C   UNL     1      -6.905   3.349 126.576  0.00  0.00    +0.000 A 
ATOM     38  C   UNL     1      -7.478   2.937 127.842  0.00  0.00    +0.000 A 
ATOM     39  C   UNL     1      -7.769   3.667 128.982  0.00  0.00    +0.000 A 
ATOM     40  C   UNL     1      -8.313   3.002 130.087  0.00  0.00    +0.000 A 
ATOM     41  C   UNL     1      -8.534   1.618 130.062  0.00  0.00    +0.000 A 
ATOM     42  C   UNL     1      -8.195   0.873 128.938  0.00  0.00    +0.000 A 
ATOM     43  C   UNL     1      -7.709   1.544 127.817  0.00  0.00    +0.000 A 
BRANCH  31  45
ATOM     44  N   UNL     1      -8.028  -0.490 124.570  0.00  0.00    +0.000 N 
ATOM     45  C   UNL     1      -8.402   0.267 125.656  0.00  0.00    +0.000 C 
ATOM     46  O   UNL     1      -9.597   0.448 125.898  0.00  0.00    +0.000 OA
ATOM     47  H   UNL     1      -7.060  -0.754 124.447  0.00  0.00    +0.000 HD
BRANCH  44  48
ATOM     48  C   UNL     1      -9.002  -1.207 123.757  0.00  0.00    +0.000 C 
BRANCH  48  50
ATOM     49  F   UNL     1      -7.902  -3.293 124.076  0.00  0.00    +0.000 F 
ATOM     50  C   UNL     1      -9.105  -2.687 124.111  0.00  0.00    +0.000 C 
ATOM     51  F   UNL     1      -9.926  -3.332 123.252  0.00  0.00    +0.000 F 
ATOM     52  F   UNL     1      -9.620  -2.850 125.353  0.00  0.00    +0.000 F 
ENDBRANCH  48  50
ENDBRANCH  44  48
ENDBRANCH  31  45
ENDBRANCH  30  31
ENDBRANCH  29  30
ENDBRANCH  28  29
ENDBRANCH   1  28
TORSDOF 12
ENDMDL
MODEL 6
REMARK VINA RESULT:      -8.7      3.197      6.254
REMARK  Name = Lomitapide
REMARK  12 active torsions:
REMARK  status: ('A' for Active; 'I' for Inactive)
REMARK    1  A    between atoms: C_2  and  C_5
REMARK    2  A    between atoms: C_5  and  N_6
REMARK    3  A    between atoms: C_7  and  C_9
REMARK    4  A    between atoms: C_9  and  C_10
REMARK    5  A    between atoms: C_10  and  C_11
REMARK    6  A    between atoms: C_11  and  C_12
REMARK    7  A    between atoms: C_12  and  C_13
REMARK    8  A    between atoms: C_13  and  N_14
REMARK    9  A    between atoms: C_17  and  N_20
REMARK   10  A    between atoms: C_21  and  C_23
REMARK   11  A    between atoms: C_24  and  C_29
REMARK   12  A    between atoms: C_32  and  C_35
REMARK                            x       y       z     vdW  Elec       q    Type
REMARK                         _______ _______ _______ _____ _____    ______ ____
ROOT
ATOM      1  C   UNL     1      -9.968   3.038 130.354  0.00  0.00    +0.000 C 
ENDROOT
BRANCH   1   2
ATOM      2  N   UNL     1      -9.443   4.074 131.253  0.00  0.00    +0.000 NA
ATOM      3  C   UNL     1      -8.093   3.721 131.715  0.00  0.00    +0.000 C 
ATOM      4  C   UNL     1      -7.595   4.766 132.710  0.00  0.00    +0.000 C 
ATOM      5  C   UNL     1      -7.587   6.172 132.089  0.00  0.00    +0.000 C 
ATOM      6  C   UNL     1      -8.971   6.482 131.537  0.00  0.00    +0.000 C 
ATOM      7  C   UNL     1      -9.431   5.387 130.596  0.00  0.00    +0.000 C 
BRANCH   5   8
ATOM      8  N   UNL     1      -6.564   6.314 131.049  0.00  0.00    +0.000 N 
ATOM      9  C   UNL     1      -5.238   6.492 131.373  0.00  0.00    +0.000 C 
ATOM     10  O   UNL     1      -4.831   6.626 132.528  0.00  0.00    +0.000 OA
ATOM     11  H   UNL     1      -6.824   6.185 130.078  0.00  0.00    +0.000 HD
BRANCH   9  12
ATOM     12  C   UNL     1      -4.271   6.521 130.251  0.00  0.00    +0.000 A 
ATOM     13  C   UNL     1      -3.488   5.389 129.946  0.00  0.00    +0.000 A 
ATOM     14  C   UNL     1      -2.442   5.541 129.013  0.00  0.00    +0.000 A 
ATOM     15  C   UNL     1      -2.259   6.735 128.319  0.00  0.00    +0.000 A 
ATOM     16  C   UNL     1      -3.076   7.826 128.593  0.00  0.00    +0.000 A 
ATOM     17  C   UNL     1      -4.069   7.729 129.569  0.00  0.00    +0.000 A 
BRANCH  13  18
ATOM     18  C   UNL     1      -3.782   4.030 130.428  0.00  0.00    +0.000 A 
ATOM     19  C   UNL     1      -4.706   3.213 129.764  0.00  0.00    +0.000 A 
ATOM     20  C   UNL     1      -5.151   2.026 130.343  0.00  0.00    +0.000 A 
ATOM     21  C   UNL     1      -4.595   1.571 131.548  0.00  0.00    +0.000 A 
ATOM     22  C   UNL     1      -3.651   2.365 132.206  0.00  0.00    +0.000 A 
ATOM     23  C   UNL     1      -3.258   3.586 131.655  0.00  0.00    +0.000 A 
BRANCH  21  24
ATOM     24  C   UNL     1      -4.975   0.212 132.072  0.00  0.00    +0.000 C 
ATOM     25  F   UNL     1      -6.167  -0.229 131.582  0.00  0.00    +0.000 F 
ATOM     26  F   UNL     1      -4.057  -0.736 131.736  0.00  0.00    +0.000 F 
ATOM     27  F   UNL     1      -5.084   0.160 133.429  0.00  0.00    +0.000 F 
ENDBRANCH  21  24
ENDBRANCH  13  18
ENDBRANCH   9  12
ENDBRANCH   5   8
ENDBRANCH   1   2
BRANCH   1  28
ATOM     28  C   UNL     1      -8.877   2.019 130.031  0.00  0.00    +0.000 C 
BRANCH  28  29
ATOM     29  C   UNL     1      -8.300   2.249 128.660  0.00  0.00    +0.000 C 
BRANCH  29  30
ATOM     30  C   UNL     1      -8.995   1.324 127.654  0.00  0.00    +0.000 C 
BRANCH  30  31
ATOM     31  C   UNL     1      -8.005   0.545 126.773  0.00  0.00    +0.000 C 
ATOM     32  C   UNL     1      -7.252  -0.512 127.594  0.00  0.00    +0.000 A 
ATOM     33  C   UNL     1      -7.779  -1.592 128.296  0.00  0.00    +0.000 A 
ATOM     34  C   UNL     1      -6.901  -2.412 129.003  0.00  0.00    +0.000 A 
ATOM     35  C   UNL     1      -5.526  -2.132 129.023  0.00  0.00    +0.000 A 
ATOM     36  C   UNL     1      -5.005  -1.028 128.337  0.00  0.00    +0.000 A 
ATOM     37  C   UNL     1      -5.871  -0.223 127.616  0.00  0.00    +0.000 A 
ATOM     38  C   UNL     1      -5.624   0.973 126.835  0.00  0.00    +0.000 A 
ATOM     39  C   UNL     1      -4.446   1.657 126.580  0.00  0.00    +0.000 A 
ATOM     40  C   UNL     1      -4.496   2.813 125.792  0.00  0.00    +0.000 A 
ATOM     41  C   UNL     1      -5.714   3.296 125.292  0.00  0.00    +0.000 A 
ATOM     42  C   UNL     1      -6.904   2.641 125.589  0.00  0.00    +0.000 A 
ATOM     43  C   UNL     1      -6.847   1.457 126.323  0.00  0.00    +0.000 A 
BRANCH  31  45
ATOM     44  N   UNL     1      -8.130  -1.006 124.819  0.00  0.00    +0.000 N 
ATOM     45  C   UNL     1      -8.803  -0.112 125.620  0.00  0.00    +0.000 C 
ATOM     46  O   UNL     1      -9.961   0.210 125.346  0.00  0.00    +0.000 OA
ATOM     47  H   UNL     1      -7.238  -1.375 125.114  0.00  0.00    +0.000 HD
BRANCH  44  48
ATOM     48  C   UNL     1      -8.786  -1.701 123.719  0.00  0.00    +0.000 C 
BRANCH  48  50
ATOM     49  F   UNL     1     -10.079  -3.623 123.176  0.00  0.00    +0.000 F 
ATOM     50  C   UNL     1      -9.210  -3.122 124.075  0.00  0.00    +0.000 C 
ATOM     51  F   UNL     1      -9.798  -3.158 125.293  0.00  0.00    +0.000 F 
ATOM     52  F   UNL     1      -8.137  -3.946 124.126  0.00  0.00    +0.000 F 
ENDBRANCH  48  50
ENDBRANCH  44  48
ENDBRANCH  31  45
ENDBRANCH  30  31
ENDBRANCH  29  30
ENDBRANCH  28  29
ENDBRANCH   1  28
TORSDOF 12
ENDMDL
MODEL 7
REMARK VINA RESULT:      -8.6      3.675      6.460
REMARK  Name = Lomitapide
REMARK  12 active torsions:
REMARK  status: ('A' for Active; 'I' for Inactive)
REMARK    1  A    between atoms: C_2  and  C_5
REMARK    2  A    between atoms: C_5  and  N_6
REMARK    3  A    between atoms: C_7  and  C_9
REMARK    4  A    between atoms: C_9  and  C_10
REMARK    5  A    between atoms: C_10  and  C_11
REMARK    6  A    between atoms: C_11  and  C_12
REMARK    7  A    between atoms: C_12  and  C_13
REMARK    8  A    between atoms: C_13  and  N_14
REMARK    9  A    between atoms: C_17  and  N_20
REMARK   10  A    between atoms: C_21  and  C_23
REMARK   11  A    between atoms: C_24  and  C_29
REMARK   12  A    between atoms: C_32  and  C_35
REMARK                            x       y       z     vdW  Elec       q    Type
REMARK                         _______ _______ _______ _____ _____    ______ ____
ROOT
ATOM      1  C   UNL     1      -3.354   0.163 132.633  0.00  0.00    +0.000 C 
ENDROOT
BRANCH   1   2
ATOM      2  N   UNL     1      -3.286   1.374 133.460  0.00  0.00    +0.000 NA
ATOM      3  C   UNL     1      -3.242   2.575 132.613  0.00  0.00    +0.000 C 
ATOM      4  C   UNL     1      -3.089   3.819 133.484  0.00  0.00    +0.000 C 
ATOM      5  C   UNL     1      -4.236   3.934 134.502  0.00  0.00    +0.000 C 
ATOM      6  C   UNL     1      -4.320   2.645 135.308  0.00  0.00    +0.000 C 
ATOM      7  C   UNL     1      -4.420   1.445 134.388  0.00  0.00    +0.000 C 
BRANCH   5   8
ATOM      8  N   UNL     1      -5.519   4.238 133.862  0.00  0.00    +0.000 N 
ATOM      9  C   UNL     1      -5.986   5.530 133.780  0.00  0.00    +0.000 C 
ATOM     10  O   UNL     1      -5.420   6.493 134.297  0.00  0.00    +0.000 OA
ATOM     11  H   UNL     1      -6.023   3.496 133.390  0.00  0.00    +0.000 HD
BRANCH   9  12
ATOM     12  C   UNL     1      -7.242   5.741 133.022  0.00  0.00    +0.000 A 
ATOM     13  C   UNL     1      -7.213   6.251 131.708  0.00  0.00    +0.000 A 
ATOM     14  C   UNL     1      -8.436   6.629 131.119  0.00  0.00    +0.000 A 
ATOM     15  C   UNL     1      -9.651   6.398 131.760  0.00  0.00    +0.000 A 
ATOM     16  C   UNL     1      -9.665   5.843 133.035  0.00  0.00    +0.000 A 
ATOM     17  C   UNL     1      -8.465   5.532 133.676  0.00  0.00    +0.000 A 
BRANCH  13  18
ATOM     18  C   UNL     1      -6.010   6.276 130.861  0.00  0.00    +0.000 A 
ATOM     19  C   UNL     1      -5.496   5.099 130.301  0.00  0.00    +0.000 A 
ATOM     20  C   UNL     1      -4.241   5.089 129.695  0.00  0.00    +0.000 A 
ATOM     21  C   UNL     1      -3.520   6.281 129.532  0.00  0.00    +0.000 A 
ATOM     22  C   UNL     1      -4.036   7.468 130.063  0.00  0.00    +0.000 A 
ATOM     23  C   UNL     1      -5.263   7.460 130.729  0.00  0.00    +0.000 A 
BRANCH  21  24
ATOM     24  C   UNL     1      -2.244   6.272 128.735  0.00  0.00    +0.000 C 
ATOM     25  F   UNL     1      -1.143   6.523 129.496  0.00  0.00    +0.000 F 
ATOM     26  F   UNL     1      -2.023   5.066 128.143  0.00  0.00    +0.000 F 
ATOM     27  F   UNL     1      -2.222   7.190 127.728  0.00  0.00    +0.000 F 
ENDBRANCH  21  24
ENDBRANCH  13  18
ENDBRANCH   9  12
ENDBRANCH   5   8
ENDBRANCH   1   2
BRANCH   1  28
ATOM     28  C   UNL     1      -4.664   0.134 131.847  0.00  0.00    +0.000 C 
BRANCH  28  29
ATOM     29  C   UNL     1      -4.413   0.108 130.363  0.00  0.00    +0.000 C 
BRANCH  29  30
ATOM     30  C   UNL     1      -5.128   1.294 129.706  0.00  0.00    +0.000 C 
BRANCH  30  31
ATOM     31  C   UNL     1      -6.533   0.937 129.193  0.00  0.00    +0.000 C 
ATOM     32  C   UNL     1      -7.604   1.272 130.241  0.00  0.00    +0.000 A 
ATOM     33  C   UNL     1      -7.909   2.511 130.794  0.00  0.00    +0.000 A 
ATOM     34  C   UNL     1      -8.909   2.575 131.762  0.00  0.00    +0.000 A 
ATOM     35  C   UNL     1      -9.568   1.410 132.182  0.00  0.00    +0.000 A 
ATOM     36  C   UNL     1      -9.238   0.160 131.642  0.00  0.00    +0.000 A 
ATOM     37  C   UNL     1      -8.259   0.096 130.664  0.00  0.00    +0.000 A 
ATOM     38  C   UNL     1      -7.710  -1.038 129.948  0.00  0.00    +0.000 A 
ATOM     39  C   UNL     1      -8.007  -2.389 130.031  0.00  0.00    +0.000 A 
ATOM     40  C   UNL     1      -7.300  -3.285 129.221  0.00  0.00    +0.000 A 
ATOM     41  C   UNL     1      -6.287  -2.839 128.361  0.00  0.00    +0.000 A 
ATOM     42  C   UNL     1      -5.950  -1.491 128.313  0.00  0.00    +0.000 A 
ATOM     43  C   UNL     1      -6.694  -0.591 129.075  0.00  0.00    +0.000 A 
BRANCH  31  45
ATOM     44  N   UNL     1      -5.700   2.372 127.326  0.00  0.00    +0.000 N 
ATOM     45  C   UNL     1      -6.777   1.720 127.879  0.00  0.00    +0.000 C 
ATOM     46  O   UNL     1      -7.898   1.853 127.384  0.00  0.00    +0.000 OA
ATOM     47  H   UNL     1      -4.764   2.159 127.641  0.00  0.00    +0.000 HD
BRANCH  44  48
ATOM     48  C   UNL     1      -5.807   3.120 126.079  0.00  0.00    +0.000 C 
BRANCH  48  50
ATOM     49  F   UNL     1      -4.471   4.294 124.499  0.00  0.00    +0.000 F 
ATOM     50  C   UNL     1      -4.602   4.013 125.810  0.00  0.00    +0.000 C 
ATOM     51  F   UNL     1      -3.460   3.421 126.229  0.00  0.00    +0.000 F 
ATOM     52  F   UNL     1      -4.711   5.185 126.480  0.00  0.00    +0.000 F 
ENDBRANCH  48  50
ENDBRANCH  44  48
ENDBRANCH  31  45
ENDBRANCH  30  31
ENDBRANCH  29  30
ENDBRANCH  28  29
ENDBRANCH   1  28
TORSDOF 12
ENDMDL
MODEL 8
REMARK VINA RESULT:      -8.5      3.329      6.697
REMARK  Name = Lomitapide
REMARK  12 active torsions:
REMARK  status: ('A' for Active; 'I' for Inactive)
REMARK    1  A    between atoms: C_2  and  C_5
REMARK    2  A    between atoms: C_5  and  N_6
REMARK    3  A    between atoms: C_7  and  C_9
REMARK    4  A    between atoms: C_9  and  C_10
REMARK    5  A    between atoms: C_10  and  C_11
REMARK    6  A    between atoms: C_11  and  C_12
REMARK    7  A    between atoms: C_12  and  C_13
REMARK    8  A    between atoms: C_13  and  N_14
REMARK    9  A    between atoms: C_17  and  N_20
REMARK   10  A    between atoms: C_21  and  C_23
REMARK   11  A    between atoms: C_24  and  C_29
REMARK   12  A    between atoms: C_32  and  C_35
REMARK                            x       y       z     vdW  Elec       q    Type
REMARK                         _______ _______ _______ _____ _____    ______ ____
ROOT
ATOM      1  C   UNL     1      -9.264   1.147 131.877  0.00  0.00    +0.000 C 
ENDROOT
BRANCH   1   2
ATOM      2  N   UNL     1      -8.964   2.287 132.753  0.00  0.00    +0.000 NA
ATOM      3  C   UNL     1      -7.539   2.301 133.112  0.00  0.00    +0.000 C 
ATOM      4  C   UNL     1      -7.260   3.443 134.087  0.00  0.00    +0.000 C 
ATOM      5  C   UNL     1      -7.666   4.800 133.490  0.00  0.00    +0.000 C 
ATOM      6  C   UNL     1      -9.119   4.735 133.043  0.00  0.00    +0.000 C 
ATOM      7  C   UNL     1      -9.344   3.555 132.119  0.00  0.00    +0.000 C 
BRANCH   5   8
ATOM      8  N   UNL     1      -6.794   5.202 132.383  0.00  0.00    +0.000 N 
ATOM      9  C   UNL     1      -5.606   5.860 132.613  0.00  0.00    +0.000 C 
ATOM     10  O   UNL     1      -5.235   6.223 133.730  0.00  0.00    +0.000 OA
ATOM     11  H   UNL     1      -7.024   4.909 131.441  0.00  0.00    +0.000 HD
BRANCH   9  12
ATOM     12  C   UNL     1      -4.750   6.130 131.435  0.00  0.00    +0.000 A 
ATOM     13  C   UNL     1      -3.695   5.258 131.096  0.00  0.00    +0.000 A 
ATOM     14  C   UNL     1      -2.788   5.673 130.100  0.00  0.00    +0.000 A 
ATOM     15  C   UNL     1      -2.989   6.851 129.384  0.00  0.00    +0.000 A 
ATOM     16  C   UNL     1      -4.066   7.673 129.694  0.00  0.00    +0.000 A 
ATOM     17  C   UNL     1      -4.936   7.327 130.729  0.00  0.00    +0.000 A 
BRANCH  13  18
ATOM     18  C   UNL     1      -3.565   3.885 131.609  0.00  0.00    +0.000 A 
ATOM     19  C   UNL     1      -4.340   2.842 131.086  0.00  0.00    +0.000 A 
ATOM     20  C   UNL     1      -4.382   1.601 131.719  0.00  0.00    +0.000 A 
ATOM     21  C   UNL     1      -3.562   1.338 132.825  0.00  0.00    +0.000 A 
ATOM     22  C   UNL     1      -2.762   2.364 133.340  0.00  0.00    +0.000 A 
ATOM     23  C   UNL     1      -2.774   3.625 132.742  0.00  0.00    +0.000 A 
BRANCH  21  24
ATOM     24  C   UNL     1      -3.507  -0.055 133.393  0.00  0.00    +0.000 C 
ATOM     25  F   UNL     1      -2.585  -0.842 132.772  0.00  0.00    +0.000 F 
ATOM     26  F   UNL     1      -3.172  -0.054 134.712  0.00  0.00    +0.000 F 
ATOM     27  F   UNL     1      -4.690  -0.726 133.310  0.00  0.00    +0.000 F 
ENDBRANCH  21  24
ENDBRANCH  13  18
ENDBRANCH   9  12
ENDBRANCH   5   8
ENDBRANCH   1   2
BRANCH   1  28
ATOM     28  C   UNL     1      -8.759   1.423 130.461  0.00  0.00    +0.000 C 
BRANCH  28  29
ATOM     29  C   UNL     1      -7.931   0.279 129.941  0.00  0.00    +0.000 C 
BRANCH  29  30
ATOM     30  C   UNL     1      -6.986   0.792 128.849  0.00  0.00    +0.000 C 
BRANCH  30  31
ATOM     31  C   UNL     1      -6.383  -0.338 127.999  0.00  0.00    +0.000 C 
ATOM     32  C   UNL     1      -7.483  -1.139 127.287  0.00  0.00    +0.000 A 
ATOM     33  C   UNL     1      -8.420  -0.682 126.366  0.00  0.00    +0.000 A 
ATOM     34  C   UNL     1      -9.353  -1.589 125.868  0.00  0.00    +0.000 A 
ATOM     35  C   UNL     1      -9.359  -2.920 126.311  0.00  0.00    +0.000 A 
ATOM     36  C   UNL     1      -8.431  -3.368 127.260  0.00  0.00    +0.000 A 
ATOM     37  C   UNL     1      -7.487  -2.475 127.741  0.00  0.00    +0.000 A 
ATOM     38  C   UNL     1      -6.432  -2.649 128.720  0.00  0.00    +0.000 A 
ATOM     39  C   UNL     1      -6.058  -3.761 129.456  0.00  0.00    +0.000 A 
ATOM     40  C   UNL     1      -4.993  -3.644 130.358  0.00  0.00    +0.000 A 
ATOM     41  C   UNL     1      -4.333  -2.421 130.543  0.00  0.00    +0.000 A 
ATOM     42  C   UNL     1      -4.740  -1.290 129.843  0.00  0.00    +0.000 A 
ATOM     43  C   UNL     1      -5.759  -1.421 128.902  0.00  0.00    +0.000 A 
BRANCH  31  45
ATOM     44  N   UNL     1      -5.065   1.615 127.169  0.00  0.00    +0.000 N 
ATOM     45  C   UNL     1      -5.408   0.297 126.977  0.00  0.00    +0.000 C 
ATOM     46  O   UNL     1      -5.020  -0.300 125.970  0.00  0.00    +0.000 OA
ATOM     47  H   UNL     1      -5.263   2.064 128.052  0.00  0.00    +0.000 HD
BRANCH  44  48
ATOM     48  C   UNL     1      -4.138   2.308 126.284  0.00  0.00    +0.000 C 
BRANCH  48  50
ATOM     49  F   UNL     1      -3.304   4.364 127.143  0.00  0.00    +0.000 F 
ATOM     50  C   UNL     1      -3.035   3.048 127.033  0.00  0.00    +0.000 C 
ATOM     51  F   UNL     1      -1.848   2.914 126.398  0.00  0.00    +0.000 F 
ATOM     52  F   UNL     1      -2.879   2.547 128.281  0.00  0.00    +0.000 F 
ENDBRANCH  48  50
ENDBRANCH  44  48
ENDBRANCH  31  45
ENDBRANCH  30  31
ENDBRANCH  29  30
ENDBRANCH  28  29
ENDBRANCH   1  28
TORSDOF 12
ENDMDL
MODEL 9
REMARK VINA RESULT:      -8.5      3.432      6.227
REMARK  Name = Lomitapide
REMARK  12 active torsions:
REMARK  status: ('A' for Active; 'I' for Inactive)
REMARK    1  A    between atoms: C_2  and  C_5
REMARK    2  A    between atoms: C_5  and  N_6
REMARK    3  A    between atoms: C_7  and  C_9
REMARK    4  A    between atoms: C_9  and  C_10
REMARK    5  A    between atoms: C_10  and  C_11
REMARK    6  A    between atoms: C_11  and  C_12
REMARK    7  A    between atoms: C_12  and  C_13
REMARK    8  A    between atoms: C_13  and  N_14
REMARK    9  A    between atoms: C_17  and  N_20
REMARK   10  A    between atoms: C_21  and  C_23
REMARK   11  A    between atoms: C_24  and  C_29
REMARK   12  A    between atoms: C_32  and  C_35
REMARK                            x       y       z     vdW  Elec       q    Type
REMARK                         _______ _______ _______ _____ _____    ______ ____
ROOT
ATOM      1  C   UNL     1      -4.590  -0.205 131.457  0.00  0.00    +0.000 C 
ENDROOT
BRANCH   1   2
ATOM      2  N   UNL     1      -4.661   0.724 132.592  0.00  0.00    +0.000 NA
ATOM      3  C   UNL     1      -4.326   2.090 132.164  0.00  0.00    +0.000 C 
ATOM      4  C   UNL     1      -4.325   3.026 133.369  0.00  0.00    +0.000 C 
ATOM      5  C   UNL     1      -5.685   3.019 134.085  0.00  0.00    +0.000 C 
ATOM      6  C   UNL     1      -6.054   1.585 134.441  0.00  0.00    +0.000 C 
ATOM      7  C   UNL     1      -5.989   0.695 133.216  0.00  0.00    +0.000 C 
BRANCH   5   8
ATOM      8  N   UNL     1      -6.738   3.649 133.284  0.00  0.00    +0.000 N 
ATOM      9  C   UNL     1      -7.044   4.983 133.431  0.00  0.00    +0.000 C 
ATOM     10  O   UNL     1      -6.528   5.710 134.280  0.00  0.00    +0.000 OA
ATOM     11  H   UNL     1      -7.183   3.116 132.546  0.00  0.00    +0.000 HD
BRANCH   9  12
ATOM     12  C   UNL     1      -8.051   5.546 132.502  0.00  0.00    +0.000 A 
ATOM     13  C   UNL     1      -7.652   6.233 131.337  0.00  0.00    +0.000 A 
ATOM     14  C   UNL     1      -8.640   6.926 130.608  0.00  0.00    +0.000 A 
ATOM     15  C   UNL     1      -9.987   6.840 130.951  0.00  0.00    +0.000 A 
ATOM     16  C   UNL     1     -10.370   6.112 132.072  0.00  0.00    +0.000 A 
ATOM     17  C   UNL     1      -9.406   5.481 132.860  0.00  0.00    +0.000 A 
BRANCH  13  18
ATOM     18  C   UNL     1      -6.303   6.153 130.756  0.00  0.00    +0.000 A 
ATOM     19  C   UNL     1      -5.387   7.202 130.909  0.00  0.00    +0.000 A 
ATOM     20  C   UNL     1      -4.203   7.225 130.175  0.00  0.00    +0.000 A 
ATOM     21  C   UNL     1      -3.853   6.143 129.354  0.00  0.00    +0.000 A 
ATOM     22  C   UNL     1      -4.748   5.077 129.215  0.00  0.00    +0.000 A 
ATOM     23  C   UNL     1      -5.963   5.090 129.901  0.00  0.00    +0.000 A 
BRANCH  21  24
ATOM     24  C   UNL     1      -2.500   6.119 128.697  0.00  0.00    +0.000 C 
ATOM     25  F   UNL     1      -2.388   7.023 127.684  0.00  0.00    +0.000 F 
ATOM     26  F   UNL     1      -1.503   6.414 129.575  0.00  0.00    +0.000 F 
ATOM     27  F   UNL     1      -2.176   4.910 128.158  0.00  0.00    +0.000 F 
ENDBRANCH  21  24
ENDBRANCH  13  18
ENDBRANCH   9  12
ENDBRANCH   5   8
ENDBRANCH   1   2
BRANCH   1  28
ATOM     28  C   UNL     1      -3.880   0.458 130.277  0.00  0.00    +0.000 C 
BRANCH  28  29
ATOM     29  C   UNL     1      -4.864   0.938 129.244  0.00  0.00    +0.000 C 
BRANCH  29  30
ATOM     30  C   UNL     1      -5.595  -0.267 128.641  0.00  0.00    +0.000 C 
BRANCH  30  31
ATOM     31  C   UNL     1      -6.984   0.092 128.088  0.00  0.00    +0.000 C 
ATOM     32  C   UNL     1      -6.889   1.216 127.047  0.00  0.00    +0.000 A 
ATOM     33  C   UNL     1      -6.195   1.216 125.842  0.00  0.00    +0.000 A 
ATOM     34  C   UNL     1      -6.224   2.371 125.062  0.00  0.00    +0.000 A 
ATOM     35  C   UNL     1      -6.916   3.509 125.503  0.00  0.00    +0.000 A 
ATOM     36  C   UNL     1      -7.591   3.513 126.730  0.00  0.00    +0.000 A 
ATOM     37  C   UNL     1      -7.582   2.360 127.498  0.00  0.00    +0.000 A 
ATOM     38  C   UNL     1      -8.170   2.081 128.793  0.00  0.00    +0.000 A 
ATOM     39  C   UNL     1      -8.916   2.885 129.638  0.00  0.00    +0.000 A 
ATOM     40  C   UNL     1      -9.354   2.356 130.858  0.00  0.00    +0.000 A 
ATOM     41  C   UNL     1      -9.021   1.050 131.242  0.00  0.00    +0.000 A 
ATOM     42  C   UNL     1      -8.229   0.257 130.419  0.00  0.00    +0.000 A 
ATOM     43  C   UNL     1      -7.844   0.762 129.178  0.00  0.00    +0.000 A 
BRANCH  31  45
ATOM     44  N   UNL     1      -8.595  -1.019 126.535  0.00  0.00    +0.000 N 
ATOM     45  C   UNL     1      -7.599  -1.188 127.469  0.00  0.00    +0.000 C 
ATOM     46  O   UNL     1      -7.299  -2.321 127.852  0.00  0.00    +0.000 OA
ATOM     47  H   UNL     1      -8.749  -0.112 126.120  0.00  0.00    +0.000 HD
BRANCH  44  48
ATOM     48  C   UNL     1      -9.229  -2.151 125.871  0.00  0.00    +0.000 C 
BRANCH  48  50
ATOM     49  F   UNL     1      -7.728  -1.597 124.110  0.00  0.00    +0.000 F 
ATOM     50  C   UNL     1      -8.505  -2.582 124.600  0.00  0.00    +0.000 C 
ATOM     51  F   UNL     1      -9.389  -2.938 123.639  0.00  0.00    +0.000 F 
ATOM     52  F   UNL     1      -7.718  -3.658 124.836  0.00  0.00    +0.000 F 
ENDBRANCH  48  50
ENDBRANCH  44  48
ENDBRANCH  31  45
ENDBRANCH  30  31
ENDBRANCH  29  30
ENDBRANCH  28  29
ENDBRANCH   1  28
TORSDOF 12
ENDMDL
