MODEL 1
REMARK VINA RESULT:      -5.8      0.000      0.000
REMARK  Name = Lomustine
REMARK  4 active torsions:
REMARK  status: ('A' for Active; 'I' for Inactive)
REMARK    1  A    between atoms: C_2  and  C_3
REMARK    2  A    between atoms: C_3  and  N_4
REMARK    3  A    between atoms: N_4  and  N_5
REMARK    4  A    between atoms: N_9  and  C_10
REMARK                            x       y       z     vdW  Elec       q    Type
REMARK                         _______ _______ _______ _____ _____    ______ ____
ROOT
ATOM      1  N   UNL     1     -11.220   7.715 129.757  0.00  0.00    +0.000 N 
ATOM      2  C   UNL     1     -11.345   6.684 130.690  0.00  0.00    +0.000 C 
ATOM      3  O   UNL     1     -12.362   6.573 131.383  0.00  0.00    +0.000 OA
ATOM      4  N   UNL     1     -10.283   5.803 130.806  0.00  0.00    +0.000 N 
ATOM      5  H   UNL     1      -9.479   5.903 130.200  0.00  0.00    +0.000 HD
ENDROOT
BRANCH   4   6
ATOM      6  C   UNL     1     -10.282   4.684 131.748  0.00  0.00    +0.000 C 
ATOM      7  C   UNL     1      -9.947   3.368 131.030  0.00  0.00    +0.000 C 
ATOM      8  C   UNL     1      -9.731   2.199 131.979  0.00  0.00    +0.000 C 
ATOM      9  C   UNL     1      -8.723   2.545 133.068  0.00  0.00    +0.000 C 
ATOM     10  C   UNL     1      -9.174   3.770 133.854  0.00  0.00    +0.000 C 
ATOM     11  C   UNL     1      -9.360   4.974 132.941  0.00  0.00    +0.000 C 
ENDBRANCH   4   6
BRANCH   1  12
ATOM     12  N   UNL     1     -10.051   7.770 128.990  0.00  0.00    +0.000 NA
ATOM     13  O   UNL     1      -9.991   7.027 128.012  0.00  0.00    +0.000 OA
ENDBRANCH   1  12
BRANCH   1  14
ATOM     14  C   UNL     1     -12.347   8.658 129.666  0.00  0.00    +0.000 C 
BRANCH  14  16
ATOM     15 CL   UNL     1     -13.726   6.976 127.987  0.00  0.00    +0.000 Cl
ATOM     16  C   UNL     1     -13.211   8.626 128.414  0.00  0.00    +0.000 C 
ENDBRANCH  14  16
ENDBRANCH   1  14
TORSDOF 4
ENDMDL
MODEL 2
REMARK VINA RESULT:      -5.4      1.760      2.695
REMARK  Name = Lomustine
REMARK  4 active torsions:
REMARK  status: ('A' for Active; 'I' for Inactive)
REMARK    1  A    between atoms: C_2  and  C_3
REMARK    2  A    between atoms: C_3  and  N_4
REMARK    3  A    between atoms: N_4  and  N_5
REMARK    4  A    between atoms: N_9  and  C_10
REMARK                            x       y       z     vdW  Elec       q    Type
REMARK                         _______ _______ _______ _____ _____    ______ ____
ROOT
ATOM      1  N   UNL     1     -12.324   6.487 130.301  0.00  0.00    +0.000 N 
ATOM      2  C   UNL     1     -11.104   5.856 130.551  0.00  0.00    +0.000 C 
ATOM      3  O   UNL     1     -10.377   5.486 129.623  0.00  0.00    +0.000 OA
ATOM      4  N   UNL     1     -10.753   5.660 131.876  0.00  0.00    +0.000 N 
ATOM      5  H   UNL     1     -11.356   6.003 132.612  0.00  0.00    +0.000 HD
ENDROOT
BRANCH   4   6
ATOM      6  C   UNL     1      -9.507   5.006 132.276  0.00  0.00    +0.000 C 
ATOM      7  C   UNL     1      -8.536   6.019 132.900  0.00  0.00    +0.000 C 
ATOM      8  C   UNL     1      -7.304   5.376 133.519  0.00  0.00    +0.000 C 
ATOM      9  C   UNL     1      -7.686   4.260 134.486  0.00  0.00    +0.000 C 
ATOM     10  C   UNL     1      -8.524   3.200 133.783  0.00  0.00    +0.000 C 
ATOM     11  C   UNL     1      -9.789   3.801 133.184  0.00  0.00    +0.000 C 
ENDBRANCH   4   6
BRANCH   1  12
ATOM     12  N   UNL     1     -13.088   6.899 131.399  0.00  0.00    +0.000 NA
ATOM     13  O   UNL     1     -12.955   8.066 131.763  0.00  0.00    +0.000 OA
ENDBRANCH   1  12
BRANCH   1  14
ATOM     14  C   UNL     1     -12.694   6.664 128.887  0.00  0.00    +0.000 C 
BRANCH  14  16
ATOM     15 CL   UNL     1     -10.899   8.420 127.773  0.00  0.00    +0.000 Cl
ATOM     16  C   UNL     1     -12.566   8.052 128.279  0.00  0.00    +0.000 C 
ENDBRANCH  14  16
ENDBRANCH   1  14
TORSDOF 4
ENDMDL
MODEL 3
REMARK VINA RESULT:      -5.3      2.102      2.923
REMARK  Name = Lomustine
REMARK  4 active torsions:
REMARK  status: ('A' for Active; 'I' for Inactive)
REMARK    1  A    between atoms: C_2  and  C_3
REMARK    2  A    between atoms: C_3  and  N_4
REMARK    3  A    between atoms: N_4  and  N_5
REMARK    4  A    between atoms: N_9  and  C_10
REMARK                            x       y       z     vdW  Elec       q    Type
REMARK                         _______ _______ _______ _____ _____    ______ ____
ROOT
ATOM      1  N   UNL     1     -10.743   6.195 131.008  0.00  0.00    +0.000 N 
ATOM      2  C   UNL     1     -10.754   4.852 130.630  0.00  0.00    +0.000 C 
ATOM      3  O   UNL     1     -11.676   4.390 129.948  0.00  0.00    +0.000 OA
ATOM      4  N   UNL     1      -9.697   4.066 131.057  0.00  0.00    +0.000 N 
ATOM      5  H   UNL     1      -8.943   4.483 131.586  0.00  0.00    +0.000 HD
ENDROOT
BRANCH   4   6
ATOM      6  C   UNL     1      -9.589   2.643 130.736  0.00  0.00    +0.000 C 
ATOM      7  C   UNL     1      -8.393   2.382 129.810  0.00  0.00    +0.000 C 
ATOM      8  C   UNL     1      -8.102   0.904 129.598  0.00  0.00    +0.000 C 
ATOM      9  C   UNL     1      -7.985   0.164 130.926  0.00  0.00    +0.000 C 
ATOM     10  C   UNL     1      -9.257   0.327 131.748  0.00  0.00    +0.000 C 
ATOM     11  C   UNL     1      -9.559   1.795 132.016  0.00  0.00    +0.000 C 
ENDBRANCH   4   6
BRANCH   1  12
ATOM     12  N   UNL     1      -9.659   6.658 131.763  0.00  0.00    +0.000 NA
ATOM     13  O   UNL     1      -9.672   6.406 132.967  0.00  0.00    +0.000 OA
ENDBRANCH   1  12
BRANCH   1  14
ATOM     14  C   UNL     1     -11.888   7.011 130.569  0.00  0.00    +0.000 C 
BRANCH  14  16
ATOM     15 CL   UNL     1     -12.838   9.393 129.583  0.00  0.00    +0.000 Cl
ATOM     16  C   UNL     1     -11.648   8.071 129.505  0.00  0.00    +0.000 C 
ENDBRANCH  14  16
ENDBRANCH   1  14
TORSDOF 4
ENDMDL
MODEL 4
REMARK VINA RESULT:      -5.2      3.291      6.033
REMARK  Name = Lomustine
REMARK  4 active torsions:
REMARK  status: ('A' for Active; 'I' for Inactive)
REMARK    1  A    between atoms: C_2  and  C_3
REMARK    2  A    between atoms: C_3  and  N_4
REMARK    3  A    between atoms: N_4  and  N_5
REMARK    4  A    between atoms: N_9  and  C_10
REMARK                            x       y       z     vdW  Elec       q    Type
REMARK                         _______ _______ _______ _____ _____    ______ ____
ROOT
ATOM      1  N   UNL     1      -9.591   4.100 132.472  0.00  0.00    +0.000 N 
ATOM      2  C   UNL     1      -9.888   5.422 132.138  0.00  0.00    +0.000 C 
ATOM      3  O   UNL     1      -9.789   6.328 132.973  0.00  0.00    +0.000 OA
ATOM      4  N   UNL     1     -10.302   5.668 130.840  0.00  0.00    +0.000 N 
ATOM      5  H   UNL     1     -10.342   4.909 130.172  0.00  0.00    +0.000 HD
ENDROOT
BRANCH   4   6
ATOM      6  C   UNL     1     -10.651   7.006 130.361  0.00  0.00    +0.000 C 
ATOM      7  C   UNL     1     -10.177   7.207 128.914  0.00  0.00    +0.000 C 
ATOM      8  C   UNL     1     -10.681   8.498 128.285  0.00  0.00    +0.000 C 
ATOM      9  C   UNL     1     -12.192   8.635 128.431  0.00  0.00    +0.000 C 
ATOM     10  C   UNL     1     -12.600   8.582 129.898  0.00  0.00    +0.000 C 
ATOM     11  C   UNL     1     -12.149   7.283 130.551  0.00  0.00    +0.000 C 
ENDBRANCH   4   6
BRANCH   1  12
ATOM     12  N   UNL     1      -9.705   3.127 131.473  0.00  0.00    +0.000 NA
ATOM     13  O   UNL     1      -8.802   3.076 130.640  0.00  0.00    +0.000 OA
ENDBRANCH   1  12
BRANCH   1  14
ATOM     14  C   UNL     1      -9.178   3.851 133.864  0.00  0.00    +0.000 C 
BRANCH  14  16
ATOM     15 CL   UNL     1      -7.029   5.162 134.964  0.00  0.00    +0.000 Cl
ATOM     16  C   UNL     1      -7.692   3.719 134.159  0.00  0.00    +0.000 C 
ENDBRANCH  14  16
ENDBRANCH   1  14
TORSDOF 4
ENDMDL
MODEL 5
REMARK VINA RESULT:      -5.1      2.877      5.782
REMARK  Name = Lomustine
REMARK  4 active torsions:
REMARK  status: ('A' for Active; 'I' for Inactive)
REMARK    1  A    between atoms: C_2  and  C_3
REMARK    2  A    between atoms: C_3  and  N_4
REMARK    3  A    between atoms: N_4  and  N_5
REMARK    4  A    between atoms: N_9  and  C_10
REMARK                            x       y       z     vdW  Elec       q    Type
REMARK                         _______ _______ _______ _____ _____    ______ ____
ROOT
ATOM      1  N   UNL     1      -8.837   3.840 130.593  0.00  0.00    +0.000 N 
ATOM      2  C   UNL     1     -10.048   4.435 130.234  0.00  0.00    +0.000 C 
ATOM      3  O   UNL     1     -11.079   3.763 130.122  0.00  0.00    +0.000 OA
ATOM      4  N   UNL     1     -10.038   5.800 130.005  0.00  0.00    +0.000 N 
ATOM      5  H   UNL     1      -9.183   6.326 130.137  0.00  0.00    +0.000 HD
ENDROOT
BRANCH   4   6
ATOM      6  C   UNL     1     -11.235   6.546 129.617  0.00  0.00    +0.000 C 
ATOM      7  C   UNL     1     -11.962   7.092 130.855  0.00  0.00    +0.000 C 
ATOM      8  C   UNL     1     -13.100   8.044 130.518  0.00  0.00    +0.000 C 
ATOM      9  C   UNL     1     -12.639   9.150 129.576  0.00  0.00    +0.000 C 
ATOM     10  C   UNL     1     -12.063   8.562 128.294  0.00  0.00    +0.000 C 
ATOM     11  C   UNL     1     -10.892   7.634 128.589  0.00  0.00    +0.000 C 
ENDBRANCH   4   6
BRANCH   1  12
ATOM     12  N   UNL     1      -7.712   4.662 130.722  0.00  0.00    +0.000 NA
ATOM     13  O   UNL     1      -7.253   5.143 129.688  0.00  0.00    +0.000 OA
ENDBRANCH   1  12
BRANCH   1  14
ATOM     14  C   UNL     1      -8.859   2.383 130.807  0.00  0.00    +0.000 C 
BRANCH  14  16
ATOM     15 CL   UNL     1      -9.201   3.085 133.441  0.00  0.00    +0.000 Cl
ATOM     16  C   UNL     1      -9.334   1.862 132.155  0.00  0.00    +0.000 C 
ENDBRANCH  14  16
ENDBRANCH   1  14
TORSDOF 4
ENDMDL
MODEL 6
REMARK VINA RESULT:      -5.0      2.121      2.799
REMARK  Name = Lomustine
REMARK  4 active torsions:
REMARK  status: ('A' for Active; 'I' for Inactive)
REMARK    1  A    between atoms: C_2  and  C_3
REMARK    2  A    between atoms: C_3  and  N_4
REMARK    3  A    between atoms: N_4  and  N_5
REMARK    4  A    between atoms: N_9  and  C_10
REMARK                            x       y       z     vdW  Elec       q    Type
REMARK                         _______ _______ _______ _____ _____    ______ ____
ROOT
ATOM      1  N   UNL     1     -10.508   7.062 129.820  0.00  0.00    +0.000 N 
ATOM      2  C   UNL     1      -9.334   6.868 130.551  0.00  0.00    +0.000 C 
ATOM      3  O   UNL     1      -8.320   7.532 130.313  0.00  0.00    +0.000 OA
ATOM      4  N   UNL     1      -9.359   5.901 131.541  0.00  0.00    +0.000 N 
ATOM      5  H   UNL     1     -10.215   5.398 131.732  0.00  0.00    +0.000 HD
ENDROOT
BRANCH   4   6
ATOM      6  C   UNL     1      -8.197   5.593 132.375  0.00  0.00    +0.000 C 
ATOM      7  C   UNL     1      -8.539   5.746 133.864  0.00  0.00    +0.000 C 
ATOM      8  C   UNL     1      -7.440   5.249 134.792  0.00  0.00    +0.000 C 
ATOM      9  C   UNL     1      -7.008   3.832 134.434  0.00  0.00    +0.000 C 
ATOM     10  C   UNL     1      -6.533   3.762 132.988  0.00  0.00    +0.000 C 
ATOM     11  C   UNL     1      -7.623   4.213 132.025  0.00  0.00    +0.000 C 
ENDBRANCH   4   6
BRANCH   1  12
ATOM     12  N   UNL     1     -11.627   6.291 130.155  0.00  0.00    +0.000 NA
ATOM     13  O   UNL     1     -11.686   5.159 129.678  0.00  0.00    +0.000 OA
ENDBRANCH   1  12
BRANCH   1  14
ATOM     14  C   UNL     1     -10.458   8.075 128.753  0.00  0.00    +0.000 C 
BRANCH  14  16
ATOM     15 CL   UNL     1     -12.815   9.425 129.166  0.00  0.00    +0.000 Cl
ATOM     16  C   UNL     1     -11.763   8.480 128.085  0.00  0.00    +0.000 C 
ENDBRANCH  14  16
ENDBRANCH   1  14
TORSDOF 4
ENDMDL
MODEL 7
REMARK VINA RESULT:      -5.0      2.914      5.702
REMARK  Name = Lomustine
REMARK  4 active torsions:
REMARK  status: ('A' for Active; 'I' for Inactive)
REMARK    1  A    between atoms: C_2  and  C_3
REMARK    2  A    between atoms: C_3  and  N_4
REMARK    3  A    between atoms: N_4  and  N_5
REMARK    4  A    between atoms: N_9  and  C_10
REMARK                            x       y       z     vdW  Elec       q    Type
REMARK                         _______ _______ _______ _____ _____    ______ ____
ROOT
ATOM      1  N   UNL     1      -8.472   5.687 130.953  0.00  0.00    +0.000 N 
ATOM      2  C   UNL     1      -9.512   6.020 130.082  0.00  0.00    +0.000 C 
ATOM      3  O   UNL     1     -10.239   5.146 129.597  0.00  0.00    +0.000 OA
ATOM      4  N   UNL     1      -9.683   7.361 129.786  0.00  0.00    +0.000 N 
ATOM      5  H   UNL     1      -9.090   8.053 130.226  0.00  0.00    +0.000 HD
ENDROOT
BRANCH   4   6
ATOM      6  C   UNL     1     -10.728   7.845 128.884  0.00  0.00    +0.000 C 
ATOM      7  C   UNL     1     -10.573   7.224 127.488  0.00  0.00    +0.000 C 
ATOM      8  C   UNL     1     -11.739   7.526 126.558  0.00  0.00    +0.000 C 
ATOM      9  C   UNL     1     -13.073   7.178 127.208  0.00  0.00    +0.000 C 
ATOM     10  C   UNL     1     -13.250   7.934 128.518  0.00  0.00    +0.000 C 
ATOM     11  C   UNL     1     -12.121   7.624 129.492  0.00  0.00    +0.000 C 
ENDBRANCH   4   6
BRANCH   1  12
ATOM     12  N   UNL     1      -7.700   6.726 131.483  0.00  0.00    +0.000 NA
ATOM     13  O   UNL     1      -6.946   7.311 130.707  0.00  0.00    +0.000 OA
ENDBRANCH   1  12
BRANCH   1  14
ATOM     14  C   UNL     1      -8.286   4.254 131.237  0.00  0.00    +0.000 C 
BRANCH  14  16
ATOM     15 CL   UNL     1      -9.749   2.176 132.280  0.00  0.00    +0.000 Cl
ATOM     16  C   UNL     1      -8.861   3.698 132.531  0.00  0.00    +0.000 C 
ENDBRANCH  14  16
ENDBRANCH   1  14
TORSDOF 4
ENDMDL
MODEL 8
REMARK VINA RESULT:      -4.9      3.381      6.152
REMARK  Name = Lomustine
REMARK  4 active torsions:
REMARK  status: ('A' for Active; 'I' for Inactive)
REMARK    1  A    between atoms: C_2  and  C_3
REMARK    2  A    between atoms: C_3  and  N_4
REMARK    3  A    between atoms: N_4  and  N_5
REMARK    4  A    between atoms: N_9  and  C_10
REMARK                            x       y       z     vdW  Elec       q    Type
REMARK                         _______ _______ _______ _____ _____    ______ ____
ROOT
ATOM      1  N   UNL     1      -9.114   4.099 131.368  0.00  0.00    +0.000 N 
ATOM      2  C   UNL     1      -9.385   5.441 131.095  0.00  0.00    +0.000 C 
ATOM      3  O   UNL     1      -8.718   6.343 131.612  0.00  0.00    +0.000 OA
ATOM      4  N   UNL     1     -10.431   5.711 130.229  0.00  0.00    +0.000 N 
ATOM      5  H   UNL     1     -10.936   4.948 129.798  0.00  0.00    +0.000 HD
ENDROOT
BRANCH   4   6
ATOM      6  C   UNL     1     -10.824   7.072 129.863  0.00  0.00    +0.000 C 
ATOM      7  C   UNL     1     -10.754   7.269 128.342  0.00  0.00    +0.000 C 
ATOM      8  C   UNL     1     -11.339   8.594 127.875  0.00  0.00    +0.000 C 
ATOM      9  C   UNL     1     -12.743   8.807 128.428  0.00  0.00    +0.000 C 
ATOM     10  C   UNL     1     -12.738   8.754 129.950  0.00  0.00    +0.000 C 
ATOM     11  C   UNL     1     -12.196   7.423 130.455  0.00  0.00    +0.000 C 
ENDBRANCH   4   6
BRANCH   1  12
ATOM     12  N   UNL     1      -9.895   3.128 130.732  0.00  0.00    +0.000 NA
ATOM     13  O   UNL     1      -9.737   2.992 129.520  0.00  0.00    +0.000 OA
ENDBRANCH   1  12
BRANCH   1  14
ATOM     14  C   UNL     1      -8.016   3.830 132.312  0.00  0.00    +0.000 C 
BRANCH  14  16
ATOM     15 CL   UNL     1      -6.710   2.211 134.106  0.00  0.00    +0.000 Cl
ATOM     16  C   UNL     1      -8.237   2.780 133.390  0.00  0.00    +0.000 C 
ENDBRANCH  14  16
ENDBRANCH   1  14
TORSDOF 4
ENDMDL
MODEL 9
REMARK VINA RESULT:      -4.8      3.787      6.183
REMARK  Name = Lomustine
REMARK  4 active torsions:
REMARK  status: ('A' for Active; 'I' for Inactive)
REMARK    1  A    between atoms: C_2  and  C_3
REMARK    2  A    between atoms: C_3  and  N_4
REMARK    3  A    between atoms: N_4  and  N_5
REMARK    4  A    between atoms: N_9  and  C_10
REMARK                            x       y       z     vdW  Elec       q    Type
REMARK                         _______ _______ _______ _____ _____    ______ ____
ROOT
ATOM      1  N   UNL     1      -7.354   5.394 130.624  0.00  0.00    +0.000 N 
ATOM      2  C   UNL     1      -8.618   5.506 130.042  0.00  0.00    +0.000 C 
ATOM      3  O   UNL     1      -9.137   4.547 129.460  0.00  0.00    +0.000 OA
ATOM      4  N   UNL     1      -9.252   6.732 130.139  0.00  0.00    +0.000 N 
ATOM      5  H   UNL     1      -8.812   7.487 130.650  0.00  0.00    +0.000 HD
ENDROOT
BRANCH   4   6
ATOM      6  C   UNL     1     -10.574   6.987 129.568  0.00  0.00    +0.000 C 
ATOM      7  C   UNL     1     -11.638   7.071 130.672  0.00  0.00    +0.000 C 
ATOM      8  C   UNL     1     -12.998   7.532 130.169  0.00  0.00    +0.000 C 
ATOM      9  C   UNL     1     -12.886   8.822 129.365  0.00  0.00    +0.000 C 
ATOM     10  C   UNL     1     -11.935   8.644 128.189  0.00  0.00    +0.000 C 
ATOM     11  C   UNL     1     -10.548   8.223 128.658  0.00  0.00    +0.000 C 
ENDBRANCH   4   6
BRANCH   1  12
ATOM     12  N   UNL     1      -6.832   6.512 131.285  0.00  0.00    +0.000 NA
ATOM     13  O   UNL     1      -6.468   7.453 130.583  0.00  0.00    +0.000 OA
ENDBRANCH   1  12
BRANCH   1  14
ATOM     14  C   UNL     1      -6.681   4.091 130.489  0.00  0.00    +0.000 C 
BRANCH  14  16
ATOM     15 CL   UNL     1      -3.963   4.399 130.226  0.00  0.00    +0.000 Cl
ATOM     16  C   UNL     1      -5.356   3.888 131.209  0.00  0.00    +0.000 C 
ENDBRANCH  14  16
ENDBRANCH   1  14
TORSDOF 4
ENDMDL
