MODEL 1
REMARK VINA RESULT:     -10.0      0.000      0.000
REMARK  Name = Lonafarnib
REMARK  3 active torsions:
REMARK  status: ('A' for Active; 'I' for Inactive)
REMARK    1  A    between atoms: C_7  and  C_8
REMARK    2  A    between atoms: C_8  and  C_9
REMARK    3  A    between atoms: C_14  and  C_17
REMARK                            x       y       z     vdW  Elec       q    Type
REMARK                         _______ _______ _______ _____ _____    ______ ____
ROOT
ATOM      1  C   UNL     1      -7.484  -1.239 130.809  0.00  0.00    +0.000 C 
ATOM      2  O   UNL     1      -7.334  -1.719 131.897  0.00  0.00    +0.000 OA
ATOM      3  N   UNL     1      -6.981  -0.007 130.484  0.00  0.00    +0.000 N 
ATOM      4  C   UNL     1      -5.756   0.733 130.820  0.00  0.00    +0.000 C 
ATOM      5  C   UNL     1      -5.967   1.986 131.710  0.00  0.00    +0.000 C 
ATOM      6  C   UNL     1      -7.087   2.949 131.250  0.00  0.00    +0.000 C 
ATOM      7  C   UNL     1      -8.156   1.919 131.171  0.00  0.00    +0.000 C 
ATOM      8  C   UNL     1      -8.005   0.838 130.162  0.00  0.00    +0.000 C 
ENDROOT
BRANCH   6   9
ATOM      9  C   UNL     1      -7.276   3.894 129.898  0.00  0.00    +0.000 C 
ATOM     10  C   UNL     1      -8.379   4.994 129.930  0.00  0.00    +0.000 A 
ATOM     11  C   UNL     1      -8.246   6.234 130.668  0.00  0.00    +0.000 A 
ATOM     12  C   UNL     1      -6.990   6.795 131.456  0.00  0.00    +0.000 C 
ATOM     13  C   UNL     1      -5.592   6.099 131.609  0.00  0.00    +0.000 C 
ATOM     14  C   UNL     1      -5.203   5.545 130.274  0.00  0.00    +0.000 A 
ATOM     15  C   UNL     1      -5.938   4.606 129.452  0.00  0.00    +0.000 A 
ATOM     16  C   UNL     1      -5.458   4.457 128.137  0.00  0.00    +0.000 A 
ATOM     17 BR   UNL     1      -6.321   3.402 126.807  0.00  0.00    +0.000 Br
ATOM     18  C   UNL     1      -4.303   5.140 127.714  0.00  0.00    +0.000 A 
ATOM     19  C   UNL     1      -3.587   5.960 128.578  0.00  0.00    +0.000 A 
ATOM     20 CL   UNL     1      -2.175   6.795 128.091  0.00  0.00    +0.000 Cl
ATOM     21  C   UNL     1      -4.026   6.152 129.856  0.00  0.00    +0.000 A 
ATOM     22  C   UNL     1      -9.484   6.849 131.047  0.00  0.00    +0.000 A 
ATOM     23  C   UNL     1     -10.723   6.299 130.682  0.00  0.00    +0.000 A 
ATOM     24 BR   UNL     1     -12.337   7.033 131.337  0.00  0.00    +0.000 Br
ATOM     25  C   UNL     1     -10.736   5.146 129.921  0.00  0.00    +0.000 A 
ATOM     26  N   UNL     1      -9.604   4.503 129.530  0.00  0.00    +0.000 NA
ENDBRANCH   6   9
BRANCH   1  27
ATOM     27  C   UNL     1      -8.328  -1.866 129.625  0.00  0.00    +0.000 C 
BRANCH  27  34
ATOM     28  N   UNL     1      -8.770  -3.447 124.077  0.00  0.00    +0.000 N 
ATOM     29  C   UNL     1      -7.661  -3.311 124.854  0.00  0.00    +0.000 C 
ATOM     30  O   UNL     1      -6.543  -3.451 124.376  0.00  0.00    +0.000 OA
ATOM     31  N   UNL     1      -7.916  -2.933 126.148  0.00  0.00    +0.000 N 
ATOM     32  C   UNL     1      -7.034  -1.990 126.807  0.00  0.00    +0.000 C 
ATOM     33  C   UNL     1      -6.465  -2.553 128.097  0.00  0.00    +0.000 C 
ATOM     34  C   UNL     1      -7.573  -3.049 129.039  0.00  0.00    +0.000 C 
ATOM     35  C   UNL     1      -8.481  -4.037 128.281  0.00  0.00    +0.000 C 
ATOM     36  C   UNL     1      -9.005  -3.470 126.953  0.00  0.00    +0.000 C 
ATOM     37  H   UNL     1      -8.571  -3.502 123.085  0.00  0.00    +0.000 HD
ATOM     38  H   UNL     1      -9.586  -2.908 124.325  0.00  0.00    +0.000 HD
ENDBRANCH  27  34
ENDBRANCH   1  27
TORSDOF 3
ENDMDL
MODEL 2
REMARK VINA RESULT:      -9.3      2.497      2.942
REMARK  Name = Lonafarnib
REMARK  3 active torsions:
REMARK  status: ('A' for Active; 'I' for Inactive)
REMARK    1  A    between atoms: C_7  and  C_8
REMARK    2  A    between atoms: C_8  and  C_9
REMARK    3  A    between atoms: C_14  and  C_17
REMARK                            x       y       z     vdW  Elec       q    Type
REMARK                         _______ _______ _______ _____ _____    ______ ____
ROOT
ATOM      1  C   UNL     1      -5.609  -0.708 127.968  0.00  0.00    +0.000 C 
ATOM      2  O   UNL     1      -5.844  -1.703 128.593  0.00  0.00    +0.000 OA
ATOM      3  N   UNL     1      -5.251   0.464 128.579  0.00  0.00    +0.000 N 
ATOM      4  C   UNL     1      -4.436   0.814 129.753  0.00  0.00    +0.000 C 
ATOM      5  C   UNL     1      -5.225   1.411 130.948  0.00  0.00    +0.000 C 
ATOM      6  C   UNL     1      -6.205   2.555 130.593  0.00  0.00    +0.000 C 
ATOM      7  C   UNL     1      -6.935   1.812 129.533  0.00  0.00    +0.000 C 
ATOM      8  C   UNL     1      -6.182   1.427 128.311  0.00  0.00    +0.000 C 
ENDROOT
BRANCH   6   9
ATOM      9  C   UNL     1      -5.980   4.087 129.993  0.00  0.00    +0.000 C 
ATOM     10  C   UNL     1      -7.088   5.146 130.273  0.00  0.00    +0.000 A 
ATOM     11  C   UNL     1      -7.279   5.777 131.564  0.00  0.00    +0.000 A 
ATOM     12  C   UNL     1      -6.393   5.656 132.873  0.00  0.00    +0.000 C 
ATOM     13  C   UNL     1      -5.092   4.796 133.047  0.00  0.00    +0.000 C 
ATOM     14  C   UNL     1      -4.248   4.982 131.826  0.00  0.00    +0.000 A 
ATOM     15  C   UNL     1      -4.611   4.732 130.446  0.00  0.00    +0.000 A 
ATOM     16  C   UNL     1      -3.710   5.234 129.488  0.00  0.00    +0.000 A 
ATOM     17 BR   UNL     1      -4.017   5.172 127.610  0.00  0.00    +0.000 Br
ATOM     18  C   UNL     1      -2.519   5.868 129.887  0.00  0.00    +0.000 A 
ATOM     19  C   UNL     1      -2.181   5.999 131.228  0.00  0.00    +0.000 A 
ATOM     20 CL   UNL     1      -0.735   6.758 131.740  0.00  0.00    +0.000 Cl
ATOM     21  C   UNL     1      -3.034   5.547 132.194  0.00  0.00    +0.000 A 
ATOM     22  C   UNL     1      -8.604   6.266 131.809  0.00  0.00    +0.000 A 
ATOM     23  C   UNL     1      -9.616   6.170 130.841  0.00  0.00    +0.000 A 
ATOM     24 BR   UNL     1     -11.394   6.665 131.250  0.00  0.00    +0.000 Br
ATOM     25  C   UNL     1      -9.310   5.607 129.617  0.00  0.00    +0.000 A 
ATOM     26  N   UNL     1      -8.079   5.116 129.314  0.00  0.00    +0.000 NA
ENDBRANCH   6   9
BRANCH   1  27
ATOM     27  C   UNL     1      -5.751  -0.540 126.400  0.00  0.00    +0.000 C 
BRANCH  27  34
ATOM     28  N   UNL     1     -10.564   1.622 124.027  0.00  0.00    +0.000 N 
ATOM     29  C   UNL     1      -9.785   0.586 123.615  0.00  0.00    +0.000 C 
ATOM     30  O   UNL     1     -10.015   0.013 122.558  0.00  0.00    +0.000 OA
ATOM     31  N   UNL     1      -8.714   0.322 124.430  0.00  0.00    +0.000 N 
ATOM     32  C   UNL     1      -7.440  -0.050 123.843  0.00  0.00    +0.000 C 
ATOM     33  C   UNL     1      -6.944  -1.386 124.366  0.00  0.00    +0.000 C 
ATOM     34  C   UNL     1      -6.892  -1.413 125.901  0.00  0.00    +0.000 C 
ATOM     35  C   UNL     1      -8.266  -1.001 126.465  0.00  0.00    +0.000 C 
ATOM     36  C   UNL     1      -8.777   0.327 125.885  0.00  0.00    +0.000 C 
ATOM     37  H   UNL     1     -11.209   1.956 123.319  0.00  0.00    +0.000 HD
ATOM     38  H   UNL     1     -10.134   2.339 124.592  0.00  0.00    +0.000 HD
ENDBRANCH  27  34
ENDBRANCH   1  27
TORSDOF 3
ENDMDL
MODEL 3
REMARK VINA RESULT:      -9.2      2.406      3.002
REMARK  Name = Lonafarnib
REMARK  3 active torsions:
REMARK  status: ('A' for Active; 'I' for Inactive)
REMARK    1  A    between atoms: C_7  and  C_8
REMARK    2  A    between atoms: C_8  and  C_9
REMARK    3  A    between atoms: C_14  and  C_17
REMARK                            x       y       z     vdW  Elec       q    Type
REMARK                         _______ _______ _______ _____ _____    ______ ____
ROOT
ATOM      1  C   UNL     1      -7.416  -0.670 129.704  0.00  0.00    +0.000 C 
ATOM      2  O   UNL     1      -8.216  -1.507 130.015  0.00  0.00    +0.000 OA
ATOM      3  N   UNL     1      -7.445   0.592 130.236  0.00  0.00    +0.000 N 
ATOM      4  C   UNL     1      -7.761   1.152 131.558  0.00  0.00    +0.000 C 
ATOM      5  C   UNL     1      -9.054   2.007 131.619  0.00  0.00    +0.000 C 
ATOM      6  C   UNL     1      -9.195   3.081 130.514  0.00  0.00    +0.000 C 
ATOM      7  C   UNL     1      -8.981   2.157 129.370  0.00  0.00    +0.000 C 
ATOM      8  C   UNL     1      -7.652   1.506 129.242  0.00  0.00    +0.000 C 
ENDROOT
BRANCH   6   9
ATOM      9  C   UNL     1      -8.324   4.449 130.154  0.00  0.00    +0.000 C 
ATOM     10  C   UNL     1      -9.117   5.742 129.801  0.00  0.00    +0.000 A 
ATOM     11  C   UNL     1      -9.805   6.550 130.789  0.00  0.00    +0.000 A 
ATOM     12  C   UNL     1      -9.809   6.403 132.367  0.00  0.00    +0.000 C 
ATOM     13  C   UNL     1      -9.052   5.317 133.209  0.00  0.00    +0.000 C 
ATOM     14  C   UNL     1      -7.673   5.173 132.646  0.00  0.00    +0.000 A 
ATOM     15  C   UNL     1      -7.296   4.842 131.288  0.00  0.00    +0.000 A 
ATOM     16  C   UNL     1      -5.935   5.025 130.981  0.00  0.00    +0.000 A 
ATOM     17 BR   UNL     1      -5.203   4.803 129.237  0.00  0.00    +0.000 Br
ATOM     18  C   UNL     1      -5.026   5.438 131.972  0.00  0.00    +0.000 A 
ATOM     19  C   UNL     1      -5.431   5.656 133.283  0.00  0.00    +0.000 A 
ATOM     20 CL   UNL     1      -4.345   6.150 134.509  0.00  0.00    +0.000 Cl
ATOM     21  C   UNL     1      -6.745   5.512 133.623  0.00  0.00    +0.000 A 
ATOM     22  C   UNL     1     -10.893   7.331 130.281  0.00  0.00    +0.000 A 
ATOM     23  C   UNL     1     -11.225   7.335 128.917  0.00  0.00    +0.000 A 
ATOM     24 BR   UNL     1     -12.768   8.237 128.300  0.00  0.00    +0.000 Br
ATOM     25  C   UNL     1     -10.463   6.577 128.048  0.00  0.00    +0.000 A 
ATOM     26  N   UNL     1      -9.421   5.806 128.457  0.00  0.00    +0.000 NA
ENDBRANCH   6   9
BRANCH   1  27
ATOM     27  C   UNL     1      -6.286  -0.826 128.607  0.00  0.00    +0.000 C 
BRANCH  27  34
ATOM     28  N   UNL     1      -7.822   0.794 123.269  0.00  0.00    +0.000 N 
ATOM     29  C   UNL     1      -7.024  -0.235 123.667  0.00  0.00    +0.000 C 
ATOM     30  O   UNL     1      -6.443  -0.929 122.844  0.00  0.00    +0.000 OA
ATOM     31  N   UNL     1      -6.881  -0.349 125.026  0.00  0.00    +0.000 N 
ATOM     32  C   UNL     1      -5.592  -0.708 125.584  0.00  0.00    +0.000 C 
ATOM     33  C   UNL     1      -5.676  -1.951 126.453  0.00  0.00    +0.000 C 
ATOM     34  C   UNL     1      -6.748  -1.811 127.544  0.00  0.00    +0.000 C 
ATOM     35  C   UNL     1      -8.090  -1.419 126.893  0.00  0.00    +0.000 C 
ATOM     36  C   UNL     1      -7.974  -0.192 125.976  0.00  0.00    +0.000 C 
ATOM     37  H   UNL     1      -7.745   1.013 122.282  0.00  0.00    +0.000 HD
ATOM     38  H   UNL     1      -7.904   1.590 123.883  0.00  0.00    +0.000 HD
ENDBRANCH  27  34
ENDBRANCH   1  27
TORSDOF 3
ENDMDL
MODEL 4
REMARK VINA RESULT:      -9.1      1.326      1.507
REMARK  Name = Lonafarnib
REMARK  3 active torsions:
REMARK  status: ('A' for Active; 'I' for Inactive)
REMARK    1  A    between atoms: C_7  and  C_8
REMARK    2  A    between atoms: C_8  and  C_9
REMARK    3  A    between atoms: C_14  and  C_17
REMARK                            x       y       z     vdW  Elec       q    Type
REMARK                         _______ _______ _______ _____ _____    ______ ____
ROOT
ATOM      1  C   UNL     1      -7.516  -1.619 130.899  0.00  0.00    +0.000 C 
ATOM      2  O   UNL     1      -7.649  -2.280 131.890  0.00  0.00    +0.000 OA
ATOM      3  N   UNL     1      -6.777  -0.465 130.892  0.00  0.00    +0.000 N 
ATOM      4  C   UNL     1      -5.538  -0.025 131.549  0.00  0.00    +0.000 C 
ATOM      5  C   UNL     1      -5.716   1.092 132.611  0.00  0.00    +0.000 C 
ATOM      6  C   UNL     1      -6.568   2.304 132.165  0.00  0.00    +0.000 C 
ATOM      7  C   UNL     1      -7.748   1.514 131.728  0.00  0.00    +0.000 C 
ATOM      8  C   UNL     1      -7.579   0.593 130.574  0.00  0.00    +0.000 C 
ENDROOT
BRANCH   6   9
ATOM      9  C   UNL     1      -6.351   3.467 130.999  0.00  0.00    +0.000 C 
ATOM     10  C   UNL     1      -7.432   4.582 130.876  0.00  0.00    +0.000 A 
ATOM     11  C   UNL     1      -7.557   5.678 131.817  0.00  0.00    +0.000 A 
ATOM     12  C   UNL     1      -6.614   6.058 133.033  0.00  0.00    +0.000 C 
ATOM     13  C   UNL     1      -5.318   5.300 133.487  0.00  0.00    +0.000 C 
ATOM     14  C   UNL     1      -4.527   4.962 132.263  0.00  0.00    +0.000 A 
ATOM     15  C   UNL     1      -4.955   4.198 131.110  0.00  0.00    +0.000 A 
ATOM     16  C   UNL     1      -4.091   4.253 129.999  0.00  0.00    +0.000 A 
ATOM     17 BR   UNL     1      -4.483   3.462 128.312  0.00  0.00    +0.000 Br
ATOM     18  C   UNL     1      -2.876   4.958 130.071  0.00  0.00    +0.000 A 
ATOM     19  C   UNL     1      -2.476   5.599 131.237  0.00  0.00    +0.000 A 
ATOM     20 CL   UNL     1      -0.999   6.456 131.353  0.00  0.00    +0.000 Cl
ATOM     21  C   UNL     1      -3.290   5.591 132.332  0.00  0.00    +0.000 A 
ATOM     22  C   UNL     1      -8.863   6.262 131.896  0.00  0.00    +0.000 A 
ATOM     23  C   UNL     1      -9.918   5.821 131.082  0.00  0.00    +0.000 A 
ATOM     24 BR   UNL     1     -11.670   6.489 131.325  0.00  0.00    +0.000 Br
ATOM     25  C   UNL     1      -9.674   4.811 130.171  0.00  0.00    +0.000 A 
ATOM     26  N   UNL     1      -8.465   4.204 130.044  0.00  0.00    +0.000 NA
ENDBRANCH   6   9
BRANCH   1  27
ATOM     27  C   UNL     1      -8.209  -1.888 129.502  0.00  0.00    +0.000 C 
BRANCH  27  34
ATOM     28  N   UNL     1      -9.015  -3.308 123.951  0.00  0.00    +0.000 N 
ATOM     29  C   UNL     1      -7.870  -3.299 124.686  0.00  0.00    +0.000 C 
ATOM     30  O   UNL     1      -6.790  -3.542 124.163  0.00  0.00    +0.000 OA
ATOM     31  N   UNL     1      -8.037  -2.923 125.994  0.00  0.00    +0.000 N 
ATOM     32  C   UNL     1      -7.040  -2.086 126.634  0.00  0.00    +0.000 C 
ATOM     33  C   UNL     1      -6.484  -2.729 127.892  0.00  0.00    +0.000 C 
ATOM     34  C   UNL     1      -7.600  -3.129 128.868  0.00  0.00    +0.000 C 
ATOM     35  C   UNL     1      -8.631  -4.005 128.131  0.00  0.00    +0.000 C 
ATOM     36  C   UNL     1      -9.144  -3.363 126.833  0.00  0.00    +0.000 C 
ATOM     37  H   UNL     1      -8.859  -3.363 122.951  0.00  0.00    +0.000 HD
ATOM     38  H   UNL     1      -9.763  -2.695 124.239  0.00  0.00    +0.000 HD
ENDBRANCH  27  34
ENDBRANCH   1  27
TORSDOF 3
ENDMDL
MODEL 5
REMARK VINA RESULT:      -9.0      4.556      6.275
REMARK  Name = Lonafarnib
REMARK  3 active torsions:
REMARK  status: ('A' for Active; 'I' for Inactive)
REMARK    1  A    between atoms: C_7  and  C_8
REMARK    2  A    between atoms: C_8  and  C_9
REMARK    3  A    between atoms: C_14  and  C_17
REMARK                            x       y       z     vdW  Elec       q    Type
REMARK                         _______ _______ _______ _____ _____    ______ ____
ROOT
ATOM      1  C   UNL     1      -4.184   3.293 126.512  0.00  0.00    +0.000 C 
ATOM      2  O   UNL     1      -3.033   3.458 126.222  0.00  0.00    +0.000 OA
ATOM      3  N   UNL     1      -4.701   3.728 127.704  0.00  0.00    +0.000 N 
ATOM      4  C   UNL     1      -4.485   4.905 128.559  0.00  0.00    +0.000 C 
ATOM      5  C   UNL     1      -3.806   4.612 129.923  0.00  0.00    +0.000 C 
ATOM      6  C   UNL     1      -4.416   3.444 130.733  0.00  0.00    +0.000 C 
ATOM      7  C   UNL     1      -4.332   2.437 129.643  0.00  0.00    +0.000 C 
ATOM      8  C   UNL     1      -5.154   2.661 128.426  0.00  0.00    +0.000 C 
ENDROOT
BRANCH   6   9
ATOM      9  C   UNL     1      -5.901   3.216 131.439  0.00  0.00    +0.000 C 
ATOM     10  C   UNL     1      -5.955   3.082 132.990  0.00  0.00    +0.000 A 
ATOM     11  C   UNL     1      -5.800   4.206 133.892  0.00  0.00    +0.000 A 
ATOM     12  C   UNL     1      -5.680   5.749 133.550  0.00  0.00    +0.000 C 
ATOM     13  C   UNL     1      -5.698   6.396 132.121  0.00  0.00    +0.000 C 
ATOM     14  C   UNL     1      -6.785   5.739 131.330  0.00  0.00    +0.000 A 
ATOM     15  C   UNL     1      -6.950   4.329 131.043  0.00  0.00    +0.000 A 
ATOM     16  C   UNL     1      -8.196   3.970 130.495  0.00  0.00    +0.000 A 
ATOM     17 BR   UNL     1      -8.727   2.172 130.160  0.00  0.00    +0.000 Br
ATOM     18  C   UNL     1      -9.160   4.952 130.200  0.00  0.00    +0.000 A 
ATOM     19  C   UNL     1      -8.909   6.302 130.415  0.00  0.00    +0.000 A 
ATOM     20 CL   UNL     1     -10.060   7.516 130.058  0.00  0.00    +0.000 Cl
ATOM     21  C   UNL     1      -7.724   6.696 130.965  0.00  0.00    +0.000 A 
ATOM     22  C   UNL     1      -5.329   3.869 135.204  0.00  0.00    +0.000 A 
ATOM     23  C   UNL     1      -5.085   2.539 135.581  0.00  0.00    +0.000 A 
ATOM     24 BR   UNL     1      -4.304   2.137 137.254  0.00  0.00    +0.000 Br
ATOM     25  C   UNL     1      -5.328   1.536 134.662  0.00  0.00    +0.000 A 
ATOM     26  N   UNL     1      -5.767   1.778 133.399  0.00  0.00    +0.000 NA
ENDBRANCH   6   9
BRANCH   1  27
ATOM     27  C   UNL     1      -5.254   2.499 125.656  0.00  0.00    +0.000 C 
BRANCH  27  34
ATOM     28  N   UNL     1      -6.482   4.089 120.230  0.00  0.00    +0.000 N 
ATOM     29  C   UNL     1      -7.315   3.663 121.219  0.00  0.00    +0.000 C 
ATOM     30  O   UNL     1      -8.506   3.489 120.999  0.00  0.00    +0.000 OA
ATOM     31  N   UNL     1      -6.690   3.381 122.406  0.00  0.00    +0.000 N 
ATOM     32  C   UNL     1      -7.120   2.239 123.191  0.00  0.00    +0.000 C 
ATOM     33  C   UNL     1      -7.521   2.638 124.600  0.00  0.00    +0.000 C 
ATOM     34  C   UNL     1      -6.408   3.426 125.306  0.00  0.00    +0.000 C 
ATOM     35  C   UNL     1      -5.986   4.617 124.424  0.00  0.00    +0.000 C 
ATOM     36  C   UNL     1      -5.635   4.202 122.986  0.00  0.00    +0.000 C 
ATOM     37  H   UNL     1      -6.902   4.078 119.308  0.00  0.00    +0.000 HD
ATOM     38  H   UNL     1      -5.517   3.795 120.270  0.00  0.00    +0.000 HD
ENDBRANCH  27  34
ENDBRANCH   1  27
TORSDOF 3
ENDMDL
MODEL 6
REMARK VINA RESULT:      -8.9      3.743      4.579
REMARK  Name = Lonafarnib
REMARK  3 active torsions:
REMARK  status: ('A' for Active; 'I' for Inactive)
REMARK    1  A    between atoms: C_7  and  C_8
REMARK    2  A    between atoms: C_8  and  C_9
REMARK    3  A    between atoms: C_14  and  C_17
REMARK                            x       y       z     vdW  Elec       q    Type
REMARK                         _______ _______ _______ _____ _____    ______ ____
ROOT
ATOM      1  C   UNL     1      -7.476   0.864 127.512  0.00  0.00    +0.000 C 
ATOM      2  O   UNL     1      -7.746  -0.257 127.843  0.00  0.00    +0.000 OA
ATOM      3  N   UNL     1      -6.920   1.762 128.384  0.00  0.00    +0.000 N 
ATOM      4  C   UNL     1      -5.940   1.674 129.477  0.00  0.00    +0.000 C 
ATOM      5  C   UNL     1      -6.512   1.930 130.896  0.00  0.00    +0.000 C 
ATOM      6  C   UNL     1      -7.392   3.194 131.041  0.00  0.00    +0.000 C 
ATOM      7  C   UNL     1      -8.319   2.869 129.926  0.00  0.00    +0.000 C 
ATOM      8  C   UNL     1      -7.762   2.825 128.549  0.00  0.00    +0.000 C 
ENDROOT
BRANCH   6   9
ATOM      9  C   UNL     1      -7.068   4.817 130.894  0.00  0.00    +0.000 C 
ATOM     10  C   UNL     1      -8.278   5.797 130.844  0.00  0.00    +0.000 A 
ATOM     11  C   UNL     1      -9.064   6.152 132.009  0.00  0.00    +0.000 A 
ATOM     12  C   UNL     1      -8.824   5.766 133.528  0.00  0.00    +0.000 C 
ATOM     13  C   UNL     1      -7.656   4.888 134.098  0.00  0.00    +0.000 C 
ATOM     14  C   UNL     1      -6.387   5.318 133.432  0.00  0.00    +0.000 A 
ATOM     15  C   UNL     1      -6.094   5.355 132.014  0.00  0.00    +0.000 A 
ATOM     16  C   UNL     1      -4.916   6.041 131.663  0.00  0.00    +0.000 A 
ATOM     17 BR   UNL     1      -4.374   6.363 129.866  0.00  0.00    +0.000 Br
ATOM     18  C   UNL     1      -4.077   6.580 132.655  0.00  0.00    +0.000 A 
ATOM     19  C   UNL     1      -4.365   6.435 134.007  0.00  0.00    +0.000 A 
ATOM     20 CL   UNL     1      -3.358   7.073 135.234  0.00  0.00    +0.000 Cl
ATOM     21  C   UNL     1      -5.507   5.796 134.395  0.00  0.00    +0.000 A 
ATOM     22  C   UNL     1     -10.403   6.581 131.729  0.00  0.00    +0.000 A 
ATOM     23  C   UNL     1     -10.884   6.686 130.414  0.00  0.00    +0.000 A 
ATOM     24 BR   UNL     1     -12.700   7.087 130.078  0.00  0.00    +0.000 Br
ATOM     25  C   UNL     1     -10.029   6.383 129.371  0.00  0.00    +0.000 A 
ATOM     26  N   UNL     1      -8.750   5.964 129.558  0.00  0.00    +0.000 NA
ENDBRANCH   6   9
BRANCH   1  27
ATOM     27  C   UNL     1      -7.780   1.515 126.102  0.00  0.00    +0.000 C 
BRANCH  27  34
ATOM     28  N   UNL     1      -7.421   3.909 120.847  0.00  0.00    +0.000 N 
ATOM     29  C   UNL     1      -6.502   3.877 121.850  0.00  0.00    +0.000 C 
ATOM     30  O   UNL     1      -5.441   4.478 121.743  0.00  0.00    +0.000 OA
ATOM     31  N   UNL     1      -6.908   3.201 122.972  0.00  0.00    +0.000 N 
ATOM     32  C   UNL     1      -6.558   3.713 124.283  0.00  0.00    +0.000 C 
ATOM     33  C   UNL     1      -5.801   2.687 125.108  0.00  0.00    +0.000 C 
ATOM     34  C   UNL     1      -6.564   1.357 125.202  0.00  0.00    +0.000 C 
ATOM     35  C   UNL     1      -6.917   0.870 123.782  0.00  0.00    +0.000 C 
ATOM     36  C   UNL     1      -7.635   1.940 122.944  0.00  0.00    +0.000 C 
ATOM     37  H   UNL     1      -7.214   4.588 120.123  0.00  0.00    +0.000 HD
ATOM     38  H   UNL     1      -8.395   3.832 121.100  0.00  0.00    +0.000 HD
ENDBRANCH  27  34
ENDBRANCH   1  27
TORSDOF 3
ENDMDL
MODEL 7
REMARK VINA RESULT:      -8.9      4.304      8.959
REMARK  Name = Lonafarnib
REMARK  3 active torsions:
REMARK  status: ('A' for Active; 'I' for Inactive)
REMARK    1  A    between atoms: C_7  and  C_8
REMARK    2  A    between atoms: C_8  and  C_9
REMARK    3  A    between atoms: C_14  and  C_17
REMARK                            x       y       z     vdW  Elec       q    Type
REMARK                         _______ _______ _______ _____ _____    ______ ____
ROOT
ATOM      1  C   UNL     1      -6.594   3.341 132.094  0.00  0.00    +0.000 C 
ATOM      2  O   UNL     1      -7.534   3.635 132.778  0.00  0.00    +0.000 OA
ATOM      3  N   UNL     1      -6.725   2.546 130.987  0.00  0.00    +0.000 N 
ATOM      4  C   UNL     1      -7.744   2.389 129.938  0.00  0.00    +0.000 C 
ATOM      5  C   UNL     1      -8.510   1.040 129.961  0.00  0.00    +0.000 C 
ATOM      6  C   UNL     1      -7.626  -0.225 130.067  0.00  0.00    +0.000 C 
ATOM      7  C   UNL     1      -6.875   0.210 131.273  0.00  0.00    +0.000 C 
ATOM      8  C   UNL     1      -5.997   1.402 131.152  0.00  0.00    +0.000 C 
ENDROOT
BRANCH   6   9
ATOM      9  C   UNL     1      -6.495  -0.899 129.054  0.00  0.00    +0.000 C 
ATOM     10  C   UNL     1      -5.572  -2.012 129.635  0.00  0.00    +0.000 A 
ATOM     11  C   UNL     1      -6.021  -3.367 129.888  0.00  0.00    +0.000 A 
ATOM     12  C   UNL     1      -7.415  -4.036 129.538  0.00  0.00    +0.000 C 
ATOM     13  C   UNL     1      -8.635  -3.347 128.833  0.00  0.00    +0.000 C 
ATOM     14  C   UNL     1      -8.110  -2.538 127.688  0.00  0.00    +0.000 A 
ATOM     15  C   UNL     1      -7.124  -1.478 127.726  0.00  0.00    +0.000 A 
ATOM     16  C   UNL     1      -6.636  -1.068 126.471  0.00  0.00    +0.000 A 
ATOM     17 BR   UNL     1      -5.234   0.200 126.242  0.00  0.00    +0.000 Br
ATOM     18  C   UNL     1      -7.147  -1.628 125.285  0.00  0.00    +0.000 A 
ATOM     19  C   UNL     1      -8.159  -2.579 125.309  0.00  0.00    +0.000 A 
ATOM     20 CL   UNL     1      -8.804  -3.270 123.882  0.00  0.00    +0.000 Cl
ATOM     21  C   UNL     1      -8.648  -3.024 126.504  0.00  0.00    +0.000 A 
ATOM     22  C   UNL     1      -5.278  -4.074 130.888  0.00  0.00    +0.000 A 
ATOM     23  C   UNL     1      -4.173  -3.496 131.533  0.00  0.00    +0.000 A 
ATOM     24 BR   UNL     1      -3.318  -4.382 132.967  0.00  0.00    +0.000 Br
ATOM     25  C   UNL     1      -3.790  -2.219 131.170  0.00  0.00    +0.000 A 
ATOM     26  N   UNL     1      -4.449  -1.484 130.236  0.00  0.00    +0.000 NA
ENDBRANCH   6   9
BRANCH   1  27
ATOM     27  C   UNL     1      -5.084   3.719 132.378  0.00  0.00    +0.000 C 
BRANCH  27  34
ATOM     28  N   UNL     1      -1.936   6.490 128.392  0.00  0.00    +0.000 N 
ATOM     29  C   UNL     1      -3.181   6.772 128.863  0.00  0.00    +0.000 C 
ATOM     30  O   UNL     1      -3.840   7.683 128.379  0.00  0.00    +0.000 OA
ATOM     31  N   UNL     1      -3.630   5.911 129.831  0.00  0.00    +0.000 N 
ATOM     32  C   UNL     1      -5.022   5.501 129.837  0.00  0.00    +0.000 C 
ATOM     33  C   UNL     1      -5.700   5.819 131.158  0.00  0.00    +0.000 C 
ATOM     34  C   UNL     1      -4.929   5.232 132.350  0.00  0.00    +0.000 C 
ATOM     35  C   UNL     1      -3.460   5.693 132.284  0.00  0.00    +0.000 C 
ATOM     36  C   UNL     1      -2.805   5.412 130.923  0.00  0.00    +0.000 C 
ATOM     37  H   UNL     1      -1.702   6.977 127.534  0.00  0.00    +0.000 HD
ATOM     38  H   UNL     1      -1.618   5.534 128.446  0.00  0.00    +0.000 HD
ENDBRANCH  27  34
ENDBRANCH   1  27
TORSDOF 3
ENDMDL
MODEL 8
REMARK VINA RESULT:      -8.7      2.196      2.744
REMARK  Name = Lonafarnib
REMARK  3 active torsions:
REMARK  status: ('A' for Active; 'I' for Inactive)
REMARK    1  A    between atoms: C_7  and  C_8
REMARK    2  A    between atoms: C_8  and  C_9
REMARK    3  A    between atoms: C_14  and  C_17
REMARK                            x       y       z     vdW  Elec       q    Type
REMARK                         _______ _______ _______ _____ _____    ______ ____
ROOT
ATOM      1  C   UNL     1      -6.552  -0.549 129.043  0.00  0.00    +0.000 C 
ATOM      2  O   UNL     1      -6.626  -1.502 129.766  0.00  0.00    +0.000 OA
ATOM      3  N   UNL     1      -5.737   0.515 129.328  0.00  0.00    +0.000 N 
ATOM      4  C   UNL     1      -4.406   0.667 129.934  0.00  0.00    +0.000 C 
ATOM      5  C   UNL     1      -4.389   1.362 131.321  0.00  0.00    +0.000 C 
ATOM      6  C   UNL     1      -5.194   2.680 131.414  0.00  0.00    +0.000 C 
ATOM      7  C   UNL     1      -6.468   2.123 130.890  0.00  0.00    +0.000 C 
ATOM      8  C   UNL     1      -6.490   1.643 129.484  0.00  0.00    +0.000 C 
ENDROOT
BRANCH   6   9
ATOM      9  C   UNL     1      -5.019   4.162 130.684  0.00  0.00    +0.000 C 
ATOM     10  C   UNL     1      -6.219   5.153 130.757  0.00  0.00    +0.000 A 
ATOM     11  C   UNL     1      -6.575   5.886 131.956  0.00  0.00    +0.000 A 
ATOM     12  C   UNL     1      -5.810   5.959 133.342  0.00  0.00    +0.000 C 
ATOM     13  C   UNL     1      -4.475   5.223 133.716  0.00  0.00    +0.000 C 
ATOM     14  C   UNL     1      -3.534   5.358 132.561  0.00  0.00    +0.000 A 
ATOM     15  C   UNL     1      -3.747   4.951 131.187  0.00  0.00    +0.000 A 
ATOM     16  C   UNL     1      -2.796   5.429 130.266  0.00  0.00    +0.000 A 
ATOM     17 BR   UNL     1      -2.919   5.166 128.384  0.00  0.00    +0.000 Br
ATOM     18  C   UNL     1      -1.695   6.189 130.701  0.00  0.00    +0.000 A 
ATOM     19  C   UNL     1      -1.495   6.472 132.046  0.00  0.00    +0.000 A 
ATOM     20 CL   UNL     1      -0.160   7.387 132.603  0.00  0.00    +0.000 Cl
ATOM     21  C   UNL     1      -2.402   6.048 132.974  0.00  0.00    +0.000 A 
ATOM     22  C   UNL     1      -7.947   6.291 132.033  0.00  0.00    +0.000 A 
ATOM     23  C   UNL     1      -8.854   6.026 130.996  0.00  0.00    +0.000 A 
ATOM     24 BR   UNL     1     -10.693   6.417 131.195  0.00  0.00    +0.000 Br
ATOM     25  C   UNL     1      -8.395   5.375 129.866  0.00  0.00    +0.000 A 
ATOM     26  N   UNL     1      -7.111   4.955 129.723  0.00  0.00    +0.000 NA
ENDBRANCH   6   9
BRANCH   1  27
ATOM     27  C   UNL     1      -7.408  -0.306 127.734  0.00  0.00    +0.000 C 
BRANCH  27  34
ATOM     28  N   UNL     1      -9.785  -3.460 123.506  0.00  0.00    +0.000 N 
ATOM     29  C   UNL     1      -8.961  -2.380 123.423  0.00  0.00    +0.000 C 
ATOM     30  O   UNL     1      -8.686  -1.886 122.338  0.00  0.00    +0.000 OA
ATOM     31  N   UNL     1      -8.561  -1.877 124.635  0.00  0.00    +0.000 N 
ATOM     32  C   UNL     1      -8.459  -0.441 124.817  0.00  0.00    +0.000 C 
ATOM     33  C   UNL     1      -7.070  -0.025 125.268  0.00  0.00    +0.000 C 
ATOM     34  C   UNL     1      -6.626  -0.791 126.523  0.00  0.00    +0.000 C 
ATOM     35  C   UNL     1      -6.766  -2.305 126.273  0.00  0.00    +0.000 C 
ATOM     36  C   UNL     1      -8.162  -2.701 125.767  0.00  0.00    +0.000 C 
ATOM     37  H   UNL     1     -10.252  -3.686 122.635  0.00  0.00    +0.000 HD
ATOM     38  H   UNL     1     -10.348  -3.560 124.337  0.00  0.00    +0.000 HD
ENDBRANCH  27  34
ENDBRANCH   1  27
TORSDOF 3
ENDMDL
MODEL 9
REMARK VINA RESULT:      -8.7      4.298      9.031
REMARK  Name = Lonafarnib
REMARK  3 active torsions:
REMARK  status: ('A' for Active; 'I' for Inactive)
REMARK    1  A    between atoms: C_7  and  C_8
REMARK    2  A    between atoms: C_8  and  C_9
REMARK    3  A    between atoms: C_14  and  C_17
REMARK                            x       y       z     vdW  Elec       q    Type
REMARK                         _______ _______ _______ _____ _____    ______ ____
ROOT
ATOM      1  C   UNL     1      -6.124   4.192 130.968  0.00  0.00    +0.000 C 
ATOM      2  O   UNL     1      -5.164   4.909 130.921  0.00  0.00    +0.000 OA
ATOM      3  N   UNL     1      -6.027   2.875 131.330  0.00  0.00    +0.000 N 
ATOM      4  C   UNL     1      -5.216   2.124 132.300  0.00  0.00    +0.000 C 
ATOM      5  C   UNL     1      -4.173   1.158 131.678  0.00  0.00    +0.000 C 
ATOM      6  C   UNL     1      -4.710   0.227 130.565  0.00  0.00    +0.000 C 
ATOM      7  C   UNL     1      -5.299   1.305 129.729  0.00  0.00    +0.000 C 
ATOM      8  C   UNL     1      -6.432   2.082 130.295  0.00  0.00    +0.000 C 
ENDROOT
BRANCH   6   9
ATOM      9  C   UNL     1      -5.828  -1.001 130.565  0.00  0.00    +0.000 C 
ATOM     10  C   UNL     1      -6.298  -1.555 129.186  0.00  0.00    +0.000 A 
ATOM     11  C   UNL     1      -5.483  -2.419 128.355  0.00  0.00    +0.000 A 
ATOM     12  C   UNL     1      -4.075  -3.072 128.678  0.00  0.00    +0.000 C 
ATOM     13  C   UNL     1      -3.246  -2.908 129.999  0.00  0.00    +0.000 C 
ATOM     14  C   UNL     1      -4.189  -3.032 131.155  0.00  0.00    +0.000 A 
ATOM     15  C   UNL     1      -5.376  -2.248 131.424  0.00  0.00    +0.000 A 
ATOM     16  C   UNL     1      -6.208  -2.749 132.443  0.00  0.00    +0.000 A 
ATOM     17 BR   UNL     1      -7.897  -1.996 132.898  0.00  0.00    +0.000 Br
ATOM     18  C   UNL     1      -5.841  -3.897 133.168  0.00  0.00    +0.000 A 
ATOM     19  C   UNL     1      -4.644  -4.558 132.924  0.00  0.00    +0.000 A 
ATOM     20 CL   UNL     1      -4.170  -5.951 133.797  0.00  0.00    +0.000 Cl
ATOM     21  C   UNL     1      -3.814  -4.121 131.932  0.00  0.00    +0.000 A 
ATOM     22  C   UNL     1      -5.794  -2.383 126.957  0.00  0.00    +0.000 A 
ATOM     23  C   UNL     1      -6.843  -1.596 126.454  0.00  0.00    +0.000 A 
ATOM     24 BR   UNL     1      -7.122  -1.433 124.592  0.00  0.00    +0.000 Br
ATOM     25  C   UNL     1      -7.601  -0.858 127.344  0.00  0.00    +0.000 A 
ATOM     26  N   UNL     1      -7.362  -0.836 128.681  0.00  0.00    +0.000 NA
ENDBRANCH   6   9
BRANCH   1  27
ATOM     27  C   UNL     1      -7.600   4.587 130.553  0.00  0.00    +0.000 C 
BRANCH  27  34
ATOM     28  N   UNL     1     -12.235   7.936 129.674  0.00  0.00    +0.000 N 
ATOM     29  C   UNL     1     -11.960   7.088 130.702  0.00  0.00    +0.000 C 
ATOM     30  O   UNL     1     -12.788   6.883 131.580  0.00  0.00    +0.000 OA
ATOM     31  N   UNL     1     -10.748   6.454 130.607  0.00  0.00    +0.000 N 
ATOM     32  C   UNL     1     -10.633   5.064 131.006  0.00  0.00    +0.000 C 
ATOM     33  C   UNL     1      -9.571   4.867 132.073  0.00  0.00    +0.000 C 
ATOM     34  C   UNL     1      -8.217   5.449 131.643  0.00  0.00    +0.000 C 
ATOM     35  C   UNL     1      -8.404   6.920 131.223  0.00  0.00    +0.000 C 
ATOM     36  C   UNL     1      -9.518   7.108 130.181  0.00  0.00    +0.000 C 
ATOM     37  H   UNL     1     -13.206   8.224 129.628  0.00  0.00    +0.000 HD
ATOM     38  H   UNL     1     -11.796   7.753 128.784  0.00  0.00    +0.000 HD
ENDBRANCH  27  34
ENDBRANCH   1  27
TORSDOF 3
ENDMDL
