MODEL 1
REMARK VINA RESULT:      -9.3      0.000      0.000
REMARK  Name = Loperamide
REMARK  10 active torsions:
REMARK  status: ('A' for Active; 'I' for Inactive)
REMARK    1  A    between atoms: C_1  and  N_2
REMARK    2  A    between atoms: N_2  and  C_3
REMARK    3  A    between atoms: C_4  and  C_6
REMARK    4  A    between atoms: C_6  and  C_7
REMARK    5  A    between atoms: C_6  and  C_23
REMARK    6  A    between atoms: C_6  and  C_29
REMARK    7  A    between atoms: C_7  and  C_8
REMARK    8  A    between atoms: C_8  and  N_9
REMARK    9  A    between atoms: C_12  and  O_13
REMARK   10  A    between atoms: C_12  and  C_16
REMARK                            x       y       z     vdW  Elec       q    Type
REMARK                         _______ _______ _______ _____ _____    ______ ____
ROOT
ATOM      1  C   UNL     1      -7.611  -0.887 125.537  0.00  0.00    +0.000 C 
ENDROOT
BRANCH   1   2
ATOM      2  C   UNL     1      -8.133  -1.716 126.771  0.00  0.00    +0.000 A 
ATOM      3  C   UNL     1      -7.713  -1.406 128.074  0.00  0.00    +0.000 A 
ATOM      4  C   UNL     1      -7.825  -2.301 129.131  0.00  0.00    +0.000 A 
ATOM      5  C   UNL     1      -8.456  -3.516 128.940  0.00  0.00    +0.000 A 
ATOM      6  C   UNL     1      -9.008  -3.807 127.701  0.00  0.00    +0.000 A 
ATOM      7  C   UNL     1      -8.892  -2.897 126.643  0.00  0.00    +0.000 A 
ENDBRANCH   1   2
BRANCH   1   8
ATOM      8  C   UNL     1      -6.612  -1.721 124.675  0.00  0.00    +0.000 A 
ATOM      9  C   UNL     1      -6.430  -1.407 123.325  0.00  0.00    +0.000 A 
ATOM     10  C   UNL     1      -5.699  -2.233 122.484  0.00  0.00    +0.000 A 
ATOM     11  C   UNL     1      -4.912  -3.239 123.023  0.00  0.00    +0.000 A 
ATOM     12  C   UNL     1      -4.970  -3.510 124.380  0.00  0.00    +0.000 A 
ATOM     13  C   UNL     1      -5.881  -2.824 125.171  0.00  0.00    +0.000 A 
ENDBRANCH   1   8
BRANCH   1  17
ATOM     14  C   UNL     1     -10.357   1.382 123.846  0.00  0.00    +0.000 C 
ATOM     15  N   UNL     1      -9.187   1.034 124.632  0.00  0.00    +0.000 N 
ATOM     16  C   UNL     1      -8.601   2.148 125.364  0.00  0.00    +0.000 C 
ATOM     17  C   UNL     1      -8.849  -0.332 124.692  0.00  0.00    +0.000 C 
ATOM     18  O   UNL     1      -9.515  -1.121 123.986  0.00  0.00    +0.000 OA
ENDBRANCH   1  17
BRANCH   1  19
ATOM     19  C   UNL     1      -6.844   0.340 126.004  0.00  0.00    +0.000 C 
BRANCH  19  20
ATOM     20  C   UNL     1      -5.309   0.277 126.101  0.00  0.00    +0.000 C 
BRANCH  20  21
ATOM     21  N   UNL     1      -4.865   1.440 126.868  0.00  0.00    +0.000 NA
ATOM     22  C   UNL     1      -5.685   1.743 128.038  0.00  0.00    +0.000 C 
ATOM     23  C   UNL     1      -4.912   2.630 128.964  0.00  0.00    +0.000 C 
ATOM     24  C   UNL     1      -4.525   3.918 128.260  0.00  0.00    +0.000 C 
ATOM     25  C   UNL     1      -3.881   3.623 126.885  0.00  0.00    +0.000 C 
ATOM     26  C   UNL     1      -4.657   2.625 126.041  0.00  0.00    +0.000 C 
BRANCH  24  27
ATOM     27  C   UNL     1      -3.609   4.687 129.198  0.00  0.00    +0.000 A 
ATOM     28  C   UNL     1      -3.454   4.270 130.534  0.00  0.00    +0.000 A 
ATOM     29  C   UNL     1      -2.580   4.939 131.388  0.00  0.00    +0.000 A 
ATOM     30  C   UNL     1      -1.856   6.030 130.917  0.00  0.00    +0.000 A 
ATOM     31 CL   UNL     1      -0.813   6.892 131.974  0.00  0.00    +0.000 Cl
ATOM     32  C   UNL     1      -1.976   6.442 129.596  0.00  0.00    +0.000 A 
ATOM     33  C   UNL     1      -2.848   5.775 128.748  0.00  0.00    +0.000 A 
ENDBRANCH  24  27
BRANCH  24  34
ATOM     34  O   UNL     1      -5.708   4.705 128.068  0.00  0.00    +0.000 OA
ATOM     35  H   UNL     1      -5.852   4.810 127.113  0.00  0.00    +0.000 HD
ENDBRANCH  24  34
ENDBRANCH  20  21
ENDBRANCH  19  20
ENDBRANCH   1  19
TORSDOF 8
ENDMDL
MODEL 2
REMARK VINA RESULT:      -9.1      4.213      7.124
REMARK  Name = Loperamide
REMARK  10 active torsions:
REMARK  status: ('A' for Active; 'I' for Inactive)
REMARK    1  A    between atoms: C_1  and  N_2
REMARK    2  A    between atoms: N_2  and  C_3
REMARK    3  A    between atoms: C_4  and  C_6
REMARK    4  A    between atoms: C_6  and  C_7
REMARK    5  A    between atoms: C_6  and  C_23
REMARK    6  A    between atoms: C_6  and  C_29
REMARK    7  A    between atoms: C_7  and  C_8
REMARK    8  A    between atoms: C_8  and  N_9
REMARK    9  A    between atoms: C_12  and  O_13
REMARK   10  A    between atoms: C_12  and  C_16
REMARK                            x       y       z     vdW  Elec       q    Type
REMARK                         _______ _______ _______ _____ _____    ______ ____
ROOT
ATOM      1  C   UNL     1      -6.995  -0.433 128.689  0.00  0.00    +0.000 C 
ENDROOT
BRANCH   1   2
ATOM      2  C   UNL     1      -7.654  -1.701 128.022  0.00  0.00    +0.000 A 
ATOM      3  C   UNL     1      -8.173  -1.639 126.720  0.00  0.00    +0.000 A 
ATOM      4  C   UNL     1      -9.079  -2.571 126.228  0.00  0.00    +0.000 A 
ATOM      5  C   UNL     1      -9.428  -3.663 126.999  0.00  0.00    +0.000 A 
ATOM      6  C   UNL     1      -8.832  -3.837 128.240  0.00  0.00    +0.000 A 
ATOM      7  C   UNL     1      -7.919  -2.894 128.725  0.00  0.00    +0.000 A 
ENDBRANCH   1   2
BRANCH   1   8
ATOM      8  C   UNL     1      -7.930   0.185 129.776  0.00  0.00    +0.000 A 
ATOM      9  C   UNL     1      -8.446   1.472 129.595  0.00  0.00    +0.000 A 
ATOM     10  C   UNL     1      -9.123   2.128 130.613  0.00  0.00    +0.000 A 
ATOM     11  C   UNL     1      -9.534   1.419 131.732  0.00  0.00    +0.000 A 
ATOM     12  C   UNL     1      -9.143   0.101 131.898  0.00  0.00    +0.000 A 
ATOM     13  C   UNL     1      -8.273  -0.470 130.979  0.00  0.00    +0.000 A 
ENDBRANCH   1   8
BRANCH   1  17
ATOM     14  C   UNL     1      -3.515  -0.442 130.543  0.00  0.00    +0.000 C 
ATOM     15  N   UNL     1      -4.833   0.019 130.142  0.00  0.00    +0.000 N 
ATOM     16  C   UNL     1      -5.176   1.350 130.620  0.00  0.00    +0.000 C 
ATOM     17  C   UNL     1      -5.547  -0.807 129.252  0.00  0.00    +0.000 C 
ATOM     18  O   UNL     1      -5.039  -1.912 128.960  0.00  0.00    +0.000 OA
ENDBRANCH   1  17
BRANCH   1  19
ATOM     19  C   UNL     1      -6.769   0.657 127.655  0.00  0.00    +0.000 C 
BRANCH  19  20
ATOM     20  C   UNL     1      -5.587   0.533 126.677  0.00  0.00    +0.000 C 
BRANCH  20  21
ATOM     21  N   UNL     1      -5.938   1.268 125.462  0.00  0.00    +0.000 NA
ATOM     22  C   UNL     1      -6.369   2.645 125.690  0.00  0.00    +0.000 C 
ATOM     23  C   UNL     1      -6.267   3.411 124.408  0.00  0.00    +0.000 C 
ATOM     24  C   UNL     1      -7.137   2.771 123.341  0.00  0.00    +0.000 C 
ATOM     25  C   UNL     1      -6.879   1.248 123.260  0.00  0.00    +0.000 C 
ATOM     26  C   UNL     1      -6.880   0.549 124.609  0.00  0.00    +0.000 C 
BRANCH  24  27
ATOM     27  C   UNL     1      -6.855   3.496 122.035  0.00  0.00    +0.000 A 
ATOM     28  C   UNL     1      -5.577   4.031 121.784  0.00  0.00    +0.000 A 
ATOM     29  C   UNL     1      -5.295   4.654 120.571  0.00  0.00    +0.000 A 
ATOM     30  C   UNL     1      -6.288   4.753 119.599  0.00  0.00    +0.000 A 
ATOM     31 CL   UNL     1      -5.966   5.563 118.121  0.00  0.00    +0.000 Cl
ATOM     32  C   UNL     1      -7.547   4.211 119.817  0.00  0.00    +0.000 A 
ATOM     33  C   UNL     1      -7.826   3.591 121.027  0.00  0.00    +0.000 A 
ENDBRANCH  24  27
BRANCH  24  34
ATOM     34  O   UNL     1      -8.512   3.000 123.676  0.00  0.00    +0.000 OA
ATOM     35  H   UNL     1      -8.881   2.173 124.026  0.00  0.00    +0.000 HD
ENDBRANCH  24  34
ENDBRANCH  20  21
ENDBRANCH  19  20
ENDBRANCH   1  19
TORSDOF 8
ENDMDL
MODEL 3
REMARK VINA RESULT:      -9.0      6.030      9.767
REMARK  Name = Loperamide
REMARK  10 active torsions:
REMARK  status: ('A' for Active; 'I' for Inactive)
REMARK    1  A    between atoms: C_1  and  N_2
REMARK    2  A    between atoms: N_2  and  C_3
REMARK    3  A    between atoms: C_4  and  C_6
REMARK    4  A    between atoms: C_6  and  C_7
REMARK    5  A    between atoms: C_6  and  C_23
REMARK    6  A    between atoms: C_6  and  C_29
REMARK    7  A    between atoms: C_7  and  C_8
REMARK    8  A    between atoms: C_8  and  N_9
REMARK    9  A    between atoms: C_12  and  O_13
REMARK   10  A    between atoms: C_12  and  C_16
REMARK                            x       y       z     vdW  Elec       q    Type
REMARK                         _______ _______ _______ _____ _____    ______ ____
ROOT
ATOM      1  C   UNL     1      -3.689   4.931 131.431  0.00  0.00    +0.000 C 
ENDROOT
BRANCH   1   2
ATOM      2  C   UNL     1      -2.710   6.124 131.752  0.00  0.00    +0.000 A 
ATOM      3  C   UNL     1      -1.378   5.881 132.120  0.00  0.00    +0.000 A 
ATOM      4  C   UNL     1      -0.593   6.828 132.766  0.00  0.00    +0.000 A 
ATOM      5  C   UNL     1      -1.090   8.099 132.984  0.00  0.00    +0.000 A 
ATOM      6  C   UNL     1      -2.354   8.425 132.514  0.00  0.00    +0.000 A 
ATOM      7  C   UNL     1      -3.135   7.464 131.861  0.00  0.00    +0.000 A 
ENDBRANCH   1   2
BRANCH   1   8
ATOM      8  C   UNL     1      -3.464   4.385 129.986  0.00  0.00    +0.000 A 
ATOM      9  C   UNL     1      -4.013   3.153 129.616  0.00  0.00    +0.000 A 
ATOM     10  C   UNL     1      -3.684   2.549 128.412  0.00  0.00    +0.000 A 
ATOM     11  C   UNL     1      -3.018   3.277 127.437  0.00  0.00    +0.000 A 
ATOM     12  C   UNL     1      -2.557   4.551 127.720  0.00  0.00    +0.000 A 
ATOM     13  C   UNL     1      -2.694   5.053 129.008  0.00  0.00    +0.000 A 
ENDBRANCH   1   8
BRANCH   1  17
ATOM     14  C   UNL     1      -3.640   2.911 134.817  0.00  0.00    +0.000 C 
ATOM     15  N   UNL     1      -3.838   4.029 133.913  0.00  0.00    +0.000 N 
ATOM     16  C   UNL     1      -4.179   5.282 134.571  0.00  0.00    +0.000 C 
ATOM     17  C   UNL     1      -3.554   3.800 132.552  0.00  0.00    +0.000 C 
ATOM     18  O   UNL     1      -3.255   2.633 132.216  0.00  0.00    +0.000 OA
ENDBRANCH   1  17
BRANCH   1  19
ATOM     19  C   UNL     1      -5.135   5.398 131.486  0.00  0.00    +0.000 C 
BRANCH  19  20
ATOM     20  C   UNL     1      -6.255   4.358 131.669  0.00  0.00    +0.000 C 
BRANCH  20  21
ATOM     21  N   UNL     1      -7.510   4.980 131.249  0.00  0.00    +0.000 NA
ATOM     22  C   UNL     1      -8.453   5.234 132.334  0.00  0.00    +0.000 C 
ATOM     23  C   UNL     1      -9.463   6.243 131.883  0.00  0.00    +0.000 C 
ATOM     24  C   UNL     1     -10.209   5.731 130.663  0.00  0.00    +0.000 C 
ATOM     25  C   UNL     1      -9.223   5.212 129.592  0.00  0.00    +0.000 C 
ATOM     26  C   UNL     1      -8.151   4.283 130.137  0.00  0.00    +0.000 C 
BRANCH  24  27
ATOM     27  C   UNL     1     -11.090   6.866 130.166  0.00  0.00    +0.000 A 
ATOM     28  C   UNL     1     -12.207   7.277 130.919  0.00  0.00    +0.000 A 
ATOM     29  C   UNL     1     -12.992   8.346 130.496  0.00  0.00    +0.000 A 
ATOM     30  C   UNL     1     -12.672   9.013 129.317  0.00  0.00    +0.000 A 
ATOM     31 CL   UNL     1     -13.661  10.302 128.761  0.00  0.00    +0.000 Cl
ATOM     32  C   UNL     1     -11.561   8.640 128.572  0.00  0.00    +0.000 A 
ATOM     33  C   UNL     1     -10.781   7.573 128.995  0.00  0.00    +0.000 A 
ENDBRANCH  24  27
BRANCH  24  34
ATOM     34  O   UNL     1     -11.071   4.661 131.072  0.00  0.00    +0.000 OA
ATOM     35  H   UNL     1     -10.552   4.044 131.613  0.00  0.00    +0.000 HD
ENDBRANCH  24  34
ENDBRANCH  20  21
ENDBRANCH  19  20
ENDBRANCH   1  19
TORSDOF 8
ENDMDL
MODEL 4
REMARK VINA RESULT:      -8.9      5.180      6.903
REMARK  Name = Loperamide
REMARK  10 active torsions:
REMARK  status: ('A' for Active; 'I' for Inactive)
REMARK    1  A    between atoms: C_1  and  N_2
REMARK    2  A    between atoms: N_2  and  C_3
REMARK    3  A    between atoms: C_4  and  C_6
REMARK    4  A    between atoms: C_6  and  C_7
REMARK    5  A    between atoms: C_6  and  C_23
REMARK    6  A    between atoms: C_6  and  C_29
REMARK    7  A    between atoms: C_7  and  C_8
REMARK    8  A    between atoms: C_8  and  N_9
REMARK    9  A    between atoms: C_12  and  O_13
REMARK   10  A    between atoms: C_12  and  C_16
REMARK                            x       y       z     vdW  Elec       q    Type
REMARK                         _______ _______ _______ _____ _____    ______ ____
ROOT
ATOM      1  C   UNL     1      -7.510   0.597 128.049  0.00  0.00    +0.000 C 
ENDROOT
BRANCH   1   2
ATOM      2  C   UNL     1      -7.928   0.433 126.538  0.00  0.00    +0.000 A 
ATOM      3  C   UNL     1      -6.978   0.092 125.563  0.00  0.00    +0.000 A 
ATOM      4  C   UNL     1      -7.188   0.301 124.205  0.00  0.00    +0.000 A 
ATOM      5  C   UNL     1      -8.409   0.774 123.764  0.00  0.00    +0.000 A 
ATOM      6  C   UNL     1      -9.426   0.994 124.683  0.00  0.00    +0.000 A 
ATOM      7  C   UNL     1      -9.204   0.779 126.048  0.00  0.00    +0.000 A 
ENDBRANCH   1   2
BRANCH   1   8
ATOM      8  C   UNL     1      -7.569  -0.768 128.805  0.00  0.00    +0.000 A 
ATOM      9  C   UNL     1      -7.607  -1.962 128.077  0.00  0.00    +0.000 A 
ATOM     10  C   UNL     1      -7.846  -3.178 128.700  0.00  0.00    +0.000 A 
ATOM     11  C   UNL     1      -7.784  -3.267 130.082  0.00  0.00    +0.000 A 
ATOM     12  C   UNL     1      -7.628  -2.120 130.842  0.00  0.00    +0.000 A 
ATOM     13  C   UNL     1      -7.621  -0.883 130.212  0.00  0.00    +0.000 A 
ENDBRANCH   1   8
BRANCH   1  17
ATOM     14  C   UNL     1      -4.457   3.074 127.753  0.00  0.00    +0.000 C 
ATOM     15  N   UNL     1      -5.815   2.579 127.614  0.00  0.00    +0.000 N 
ATOM     16  C   UNL     1      -6.687   3.430 126.817  0.00  0.00    +0.000 C 
ATOM     17  C   UNL     1      -6.079   1.301 128.144  0.00  0.00    +0.000 C 
ATOM     18  O   UNL     1      -5.158   0.740 128.780  0.00  0.00    +0.000 OA
ENDBRANCH   1  17
BRANCH   1  19
ATOM     19  C   UNL     1      -8.476   1.522 128.772  0.00  0.00    +0.000 C 
BRANCH  19  20
ATOM     20  C   UNL     1      -7.962   2.379 129.943  0.00  0.00    +0.000 C 
BRANCH  20  21
ATOM     21  N   UNL     1      -8.871   3.516 130.092  0.00  0.00    +0.000 NA
ATOM     22  C   UNL     1      -8.314   4.644 130.834  0.00  0.00    +0.000 C 
ATOM     23  C   UNL     1      -9.121   5.871 130.544  0.00  0.00    +0.000 C 
ATOM     24  C   UNL     1     -10.569   5.655 130.948  0.00  0.00    +0.000 C 
ATOM     25  C   UNL     1     -11.108   4.321 130.380  0.00  0.00    +0.000 C 
ATOM     26  C   UNL     1     -10.184   3.136 130.606  0.00  0.00    +0.000 C 
BRANCH  24  27
ATOM     27  C   UNL     1     -11.354   6.868 130.474  0.00  0.00    +0.000 A 
ATOM     28  C   UNL     1     -12.425   7.361 131.242  0.00  0.00    +0.000 A 
ATOM     29  C   UNL     1     -13.120   8.500 130.841  0.00  0.00    +0.000 A 
ATOM     30  C   UNL     1     -12.753   9.154 129.668  0.00  0.00    +0.000 A 
ATOM     31 CL   UNL     1     -13.633  10.529 129.139  0.00  0.00    +0.000 Cl
ATOM     32  C   UNL     1     -11.685   8.697 128.908  0.00  0.00    +0.000 A 
ATOM     33  C   UNL     1     -10.995   7.562 129.309  0.00  0.00    +0.000 A 
ENDBRANCH  24  27
BRANCH  24  34
ATOM     34  O   UNL     1     -10.643   5.623 132.379  0.00  0.00    +0.000 OA
ATOM     35  H   UNL     1     -10.022   6.283 132.729  0.00  0.00    +0.000 HD
ENDBRANCH  24  34
ENDBRANCH  20  21
ENDBRANCH  19  20
ENDBRANCH   1  19
TORSDOF 8
ENDMDL
MODEL 5
REMARK VINA RESULT:      -8.8      3.424      7.654
REMARK  Name = Loperamide
REMARK  10 active torsions:
REMARK  status: ('A' for Active; 'I' for Inactive)
REMARK    1  A    between atoms: C_1  and  N_2
REMARK    2  A    between atoms: N_2  and  C_3
REMARK    3  A    between atoms: C_4  and  C_6
REMARK    4  A    between atoms: C_6  and  C_7
REMARK    5  A    between atoms: C_6  and  C_23
REMARK    6  A    between atoms: C_6  and  C_29
REMARK    7  A    between atoms: C_7  and  C_8
REMARK    8  A    between atoms: C_8  and  N_9
REMARK    9  A    between atoms: C_12  and  O_13
REMARK   10  A    between atoms: C_12  and  C_16
REMARK                            x       y       z     vdW  Elec       q    Type
REMARK                         _______ _______ _______ _____ _____    ______ ____
ROOT
ATOM      1  C   UNL     1      -5.795   2.759 126.131  0.00  0.00    +0.000 C 
ENDROOT
BRANCH   1   2
ATOM      2  C   UNL     1      -6.078   3.156 124.632  0.00  0.00    +0.000 A 
ATOM      3  C   UNL     1      -6.852   2.328 123.804  0.00  0.00    +0.000 A 
ATOM      4  C   UNL     1      -6.824   2.417 122.417  0.00  0.00    +0.000 A 
ATOM      5  C   UNL     1      -6.086   3.413 121.807  0.00  0.00    +0.000 A 
ATOM      6  C   UNL     1      -5.414   4.339 122.592  0.00  0.00    +0.000 A 
ATOM      7  C   UNL     1      -5.451   4.242 123.988  0.00  0.00    +0.000 A 
ENDBRANCH   1   2
BRANCH   1   8
ATOM      8  C   UNL     1      -4.601   3.576 126.717  0.00  0.00    +0.000 A 
ATOM      9  C   UNL     1      -3.323   3.008 126.752  0.00  0.00    +0.000 A 
ATOM     10  C   UNL     1      -2.280   3.622 127.430  0.00  0.00    +0.000 A 
ATOM     11  C   UNL     1      -2.414   4.935 127.855  0.00  0.00    +0.000 A 
ATOM     12  C   UNL     1      -3.633   5.580 127.732  0.00  0.00    +0.000 A 
ATOM     13  C   UNL     1      -4.731   4.873 127.261  0.00  0.00    +0.000 A 
ENDBRANCH   1   8
BRANCH   1  17
ATOM     14  C   UNL     1      -8.476   2.806 129.022  0.00  0.00    +0.000 C 
ATOM     15  N   UNL     1      -7.181   2.662 128.381  0.00  0.00    +0.000 N 
ATOM     16  C   UNL     1      -6.132   2.152 129.252  0.00  0.00    +0.000 C 
ATOM     17  C   UNL     1      -7.132   2.903 126.993  0.00  0.00    +0.000 C 
ATOM     18  O   UNL     1      -8.177   3.319 126.445  0.00  0.00    +0.000 OA
ENDBRANCH   1  17
BRANCH   1  19
ATOM     19  C   UNL     1      -5.394   1.296 126.228  0.00  0.00    +0.000 C 
BRANCH  19  20
ATOM     20  C   UNL     1      -6.419   0.209 125.858  0.00  0.00    +0.000 C 
BRANCH  20  21
ATOM     21  N   UNL     1      -6.538  -0.696 127.001  0.00  0.00    +0.000 NA
ATOM     22  C   UNL     1      -6.063  -2.055 126.750  0.00  0.00    +0.000 C 
ATOM     23  C   UNL     1      -5.815  -2.739 128.059  0.00  0.00    +0.000 C 
ATOM     24  C   UNL     1      -7.091  -2.784 128.880  0.00  0.00    +0.000 C 
ATOM     25  C   UNL     1      -7.756  -1.389 128.943  0.00  0.00    +0.000 C 
ATOM     26  C   UNL     1      -7.872  -0.699 127.594  0.00  0.00    +0.000 C 
BRANCH  24  27
ATOM     27  C   UNL     1      -6.727  -3.336 130.249  0.00  0.00    +0.000 A 
ATOM     28  C   UNL     1      -5.788  -4.379 130.364  0.00  0.00    +0.000 A 
ATOM     29  C   UNL     1      -5.412  -4.859 131.616  0.00  0.00    +0.000 A 
ATOM     30  C   UNL     1      -5.972  -4.305 132.764  0.00  0.00    +0.000 A 
ATOM     31 CL   UNL     1      -5.552  -4.921 134.310  0.00  0.00    +0.000 Cl
ATOM     32  C   UNL     1      -6.881  -3.259 132.673  0.00  0.00    +0.000 A 
ATOM     33  C   UNL     1      -7.256  -2.784 131.424  0.00  0.00    +0.000 A 
ENDBRANCH  24  27
BRANCH  24  34
ATOM     34  O   UNL     1      -7.995  -3.712 128.265  0.00  0.00    +0.000 OA
ATOM     35  H   UNL     1      -7.993  -4.529 128.789  0.00  0.00    +0.000 HD
ENDBRANCH  24  34
ENDBRANCH  20  21
ENDBRANCH  19  20
ENDBRANCH   1  19
TORSDOF 8
ENDMDL
MODEL 6
REMARK VINA RESULT:      -8.8      4.006      6.512
REMARK  Name = Loperamide
REMARK  10 active torsions:
REMARK  status: ('A' for Active; 'I' for Inactive)
REMARK    1  A    between atoms: C_1  and  N_2
REMARK    2  A    between atoms: N_2  and  C_3
REMARK    3  A    between atoms: C_4  and  C_6
REMARK    4  A    between atoms: C_6  and  C_7
REMARK    5  A    between atoms: C_6  and  C_23
REMARK    6  A    between atoms: C_6  and  C_29
REMARK    7  A    between atoms: C_7  and  C_8
REMARK    8  A    between atoms: C_8  and  N_9
REMARK    9  A    between atoms: C_12  and  O_13
REMARK   10  A    between atoms: C_12  and  C_16
REMARK                            x       y       z     vdW  Elec       q    Type
REMARK                         _______ _______ _______ _____ _____    ______ ____
ROOT
ATOM      1  C   UNL     1      -6.993  -1.298 129.713  0.00  0.00    +0.000 C 
ENDROOT
BRANCH   1   2
ATOM      2  C   UNL     1      -5.458  -1.648 129.621  0.00  0.00    +0.000 A 
ATOM      3  C   UNL     1      -4.990  -2.583 128.686  0.00  0.00    +0.000 A 
ATOM      4  C   UNL     1      -3.751  -3.204 128.802  0.00  0.00    +0.000 A 
ATOM      5  C   UNL     1      -2.889  -2.834 129.816  0.00  0.00    +0.000 A 
ATOM      6  C   UNL     1      -3.257  -1.815 130.683  0.00  0.00    +0.000 A 
ATOM      7  C   UNL     1      -4.506  -1.194 130.556  0.00  0.00    +0.000 A 
ENDBRANCH   1   2
BRANCH   1   8
ATOM      8  C   UNL     1      -7.809  -2.031 128.603  0.00  0.00    +0.000 A 
ATOM      9  C   UNL     1      -8.435  -3.248 128.892  0.00  0.00    +0.000 A 
ATOM     10  C   UNL     1      -9.009  -4.019 127.892  0.00  0.00    +0.000 A 
ATOM     11  C   UNL     1      -9.210  -3.474 126.633  0.00  0.00    +0.000 A 
ATOM     12  C   UNL     1      -8.708  -2.218 126.336  0.00  0.00    +0.000 A 
ATOM     13  C   UNL     1      -7.935  -1.555 127.279  0.00  0.00    +0.000 A 
ENDBRANCH   1   8
BRANCH   1  17
ATOM     14  C   UNL     1      -7.750  -2.896 133.237  0.00  0.00    +0.000 C 
ATOM     15  N   UNL     1      -7.154  -2.742 131.922  0.00  0.00    +0.000 N 
ATOM     16  C   UNL     1      -6.343  -3.873 131.493  0.00  0.00    +0.000 C 
ATOM     17  C   UNL     1      -7.532  -1.602 131.186  0.00  0.00    +0.000 C 
ATOM     18  O   UNL     1      -8.264  -0.765 131.759  0.00  0.00    +0.000 OA
ENDBRANCH   1  17
BRANCH   1  19
ATOM     19  C   UNL     1      -7.215   0.189 129.489  0.00  0.00    +0.000 C 
BRANCH  19  20
ATOM     20  C   UNL     1      -6.004   1.098 129.213  0.00  0.00    +0.000 C 
BRANCH  20  21
ATOM     21  N   UNL     1      -6.216   1.735 127.914  0.00  0.00    +0.000 NA
ATOM     22  C   UNL     1      -5.236   2.765 127.577  0.00  0.00    +0.000 C 
ATOM     23  C   UNL     1      -5.274   3.016 126.101  0.00  0.00    +0.000 C 
ATOM     24  C   UNL     1      -6.661   3.470 125.680  0.00  0.00    +0.000 C 
ATOM     25  C   UNL     1      -7.746   2.527 126.250  0.00  0.00    +0.000 C 
ATOM     26  C   UNL     1      -7.582   2.219 127.730  0.00  0.00    +0.000 C 
BRANCH  24  27
ATOM     27  C   UNL     1      -6.669   3.543 124.162  0.00  0.00    +0.000 A 
ATOM     28  C   UNL     1      -7.807   3.135 123.440  0.00  0.00    +0.000 A 
ATOM     29  C   UNL     1      -7.842   3.243 122.052  0.00  0.00    +0.000 A 
ATOM     30  C   UNL     1      -6.741   3.756 121.372  0.00  0.00    +0.000 A 
ATOM     31 CL   UNL     1      -6.754   3.848 119.658  0.00  0.00    +0.000 Cl
ATOM     32  C   UNL     1      -5.619   4.186 122.067  0.00  0.00    +0.000 A 
ATOM     33  C   UNL     1      -5.585   4.077 123.450  0.00  0.00    +0.000 A 
ENDBRANCH  24  27
BRANCH  24  34
ATOM     34  O   UNL     1      -6.877   4.796 126.179  0.00  0.00    +0.000 OA
ATOM     35  H   UNL     1      -6.270   5.397 125.717  0.00  0.00    +0.000 HD
ENDBRANCH  24  34
ENDBRANCH  20  21
ENDBRANCH  19  20
ENDBRANCH   1  19
TORSDOF 8
ENDMDL
MODEL 7
REMARK VINA RESULT:      -8.7      4.244      5.813
REMARK  Name = Loperamide
REMARK  10 active torsions:
REMARK  status: ('A' for Active; 'I' for Inactive)
REMARK    1  A    between atoms: C_1  and  N_2
REMARK    2  A    between atoms: N_2  and  C_3
REMARK    3  A    between atoms: C_4  and  C_6
REMARK    4  A    between atoms: C_6  and  C_7
REMARK    5  A    between atoms: C_6  and  C_23
REMARK    6  A    between atoms: C_6  and  C_29
REMARK    7  A    between atoms: C_7  and  C_8
REMARK    8  A    between atoms: C_8  and  N_9
REMARK    9  A    between atoms: C_12  and  O_13
REMARK   10  A    between atoms: C_12  and  C_16
REMARK                            x       y       z     vdW  Elec       q    Type
REMARK                         _______ _______ _______ _____ _____    ______ ____
ROOT
ATOM      1  C   UNL     1      -6.907  -1.324 127.887  0.00  0.00    +0.000 C 
ENDROOT
BRANCH   1   2
ATOM      2  C   UNL     1      -7.466  -1.929 126.543  0.00  0.00    +0.000 A 
ATOM      3  C   UNL     1      -8.825  -2.257 126.413  0.00  0.00    +0.000 A 
ATOM      4  C   UNL     1      -9.298  -3.119 125.431  0.00  0.00    +0.000 A 
ATOM      5  C   UNL     1      -8.432  -3.613 124.475  0.00  0.00    +0.000 A 
ATOM      6  C   UNL     1      -7.105  -3.206 124.483  0.00  0.00    +0.000 A 
ATOM      7  C   UNL     1      -6.639  -2.335 125.476  0.00  0.00    +0.000 A 
ENDBRANCH   1   2
BRANCH   1   8
ATOM      8  C   UNL     1      -6.095  -2.386 128.692  0.00  0.00    +0.000 A 
ATOM      9  C   UNL     1      -6.771  -3.348 129.450  0.00  0.00    +0.000 A 
ATOM     10  C   UNL     1      -6.093  -4.187 130.322  0.00  0.00    +0.000 A 
ATOM     11  C   UNL     1      -4.710  -4.271 130.259  0.00  0.00    +0.000 A 
ATOM     12  C   UNL     1      -4.003  -3.415 129.432  0.00  0.00    +0.000 A 
ATOM     13  C   UNL     1      -4.684  -2.425 128.737  0.00  0.00    +0.000 A 
ENDBRANCH   1   8
BRANCH   1  17
ATOM     14  C   UNL     1      -5.694   2.210 126.627  0.00  0.00    +0.000 C 
ATOM     15  N   UNL     1      -6.588   1.088 126.852  0.00  0.00    +0.000 N 
ATOM     16  C   UNL     1      -7.870   1.195 126.169  0.00  0.00    +0.000 C 
ATOM     17  C   UNL     1      -6.067  -0.000 127.578  0.00  0.00    +0.000 C 
ATOM     18  O   UNL     1      -4.919   0.126 128.058  0.00  0.00    +0.000 OA
ENDBRANCH   1  17
BRANCH   1  19
ATOM     19  C   UNL     1      -8.048  -0.889 128.791  0.00  0.00    +0.000 C 
BRANCH  19  20
ATOM     20  C   UNL     1      -7.737  -0.431 130.228  0.00  0.00    +0.000 C 
BRANCH  20  21
ATOM     21  N   UNL     1      -8.272   0.921 130.387  0.00  0.00    +0.000 NA
ATOM     22  C   UNL     1      -7.272   1.982 130.299  0.00  0.00    +0.000 C 
ATOM     23  C   UNL     1      -7.959   3.285 130.028  0.00  0.00    +0.000 C 
ATOM     24  C   UNL     1      -8.946   3.600 131.138  0.00  0.00    +0.000 C 
ATOM     25  C   UNL     1      -9.856   2.384 131.429  0.00  0.00    +0.000 C 
ATOM     26  C   UNL     1      -9.105   1.071 131.577  0.00  0.00    +0.000 C 
BRANCH  24  27
ATOM     27  C   UNL     1      -9.719   4.839 130.715  0.00  0.00    +0.000 A 
ATOM     28  C   UNL     1      -9.054   6.071 130.569  0.00  0.00    +0.000 A 
ATOM     29  C   UNL     1      -9.744   7.201 130.136  0.00  0.00    +0.000 A 
ATOM     30  C   UNL     1     -11.103   7.111 129.849  0.00  0.00    +0.000 A 
ATOM     31 CL   UNL     1     -11.973   8.508 129.361  0.00  0.00    +0.000 Cl
ATOM     32  C   UNL     1     -11.772   5.900 129.964  0.00  0.00    +0.000 A 
ATOM     33  C   UNL     1     -11.083   4.776 130.397  0.00  0.00    +0.000 A 
ENDBRANCH  24  27
BRANCH  24  34
ATOM     34  O   UNL     1      -8.209   3.932 132.323  0.00  0.00    +0.000 OA
ATOM     35  H   UNL     1      -8.202   4.899 132.414  0.00  0.00    +0.000 HD
ENDBRANCH  24  34
ENDBRANCH  20  21
ENDBRANCH  19  20
ENDBRANCH   1  19
TORSDOF 8
ENDMDL
MODEL 8
REMARK VINA RESULT:      -8.7      1.881      2.514
REMARK  Name = Loperamide
REMARK  10 active torsions:
REMARK  status: ('A' for Active; 'I' for Inactive)
REMARK    1  A    between atoms: C_1  and  N_2
REMARK    2  A    between atoms: N_2  and  C_3
REMARK    3  A    between atoms: C_4  and  C_6
REMARK    4  A    between atoms: C_6  and  C_7
REMARK    5  A    between atoms: C_6  and  C_23
REMARK    6  A    between atoms: C_6  and  C_29
REMARK    7  A    between atoms: C_7  and  C_8
REMARK    8  A    between atoms: C_8  and  N_9
REMARK    9  A    between atoms: C_12  and  O_13
REMARK   10  A    between atoms: C_12  and  C_16
REMARK                            x       y       z     vdW  Elec       q    Type
REMARK                         _______ _______ _______ _____ _____    ______ ____
ROOT
ATOM      1  C   UNL     1      -6.883  -0.729 127.165  0.00  0.00    +0.000 C 
ENDROOT
BRANCH   1   2
ATOM      2  C   UNL     1      -6.611  -1.699 128.376  0.00  0.00    +0.000 A 
ATOM      3  C   UNL     1      -5.308  -2.124 128.678  0.00  0.00    +0.000 A 
ATOM      4  C   UNL     1      -5.046  -3.241 129.463  0.00  0.00    +0.000 A 
ATOM      5  C   UNL     1      -6.090  -3.923 130.058  0.00  0.00    +0.000 A 
ATOM      6  C   UNL     1      -7.387  -3.456 129.898  0.00  0.00    +0.000 A 
ATOM      7  C   UNL     1      -7.639  -2.328 129.108  0.00  0.00    +0.000 A 
ENDBRANCH   1   2
BRANCH   1   8
ATOM      8  C   UNL     1      -7.365  -1.515 125.906  0.00  0.00    +0.000 A 
ATOM      9  C   UNL     1      -6.566  -1.544 124.757  0.00  0.00    +0.000 A 
ATOM     10  C   UNL     1      -7.038  -2.069 123.564  0.00  0.00    +0.000 A 
ATOM     11  C   UNL     1      -8.205  -2.818 123.556  0.00  0.00    +0.000 A 
ATOM     12  C   UNL     1      -8.971  -2.917 124.705  0.00  0.00    +0.000 A 
ATOM     13  C   UNL     1      -8.602  -2.193 125.831  0.00  0.00    +0.000 A 
ENDBRANCH   1   8
BRANCH   1  17
ATOM     14  C   UNL     1      -8.774   2.153 129.080  0.00  0.00    +0.000 C 
ATOM     15  N   UNL     1      -7.753   1.159 128.799  0.00  0.00    +0.000 N 
ATOM     16  C   UNL     1      -6.786   0.971 129.871  0.00  0.00    +0.000 C 
ATOM     17  C   UNL     1      -7.899   0.422 127.607  0.00  0.00    +0.000 C 
ATOM     18  O   UNL     1      -8.830   0.750 126.839  0.00  0.00    +0.000 OA
ENDBRANCH   1  17
BRANCH   1  19
ATOM     19  C   UNL     1      -5.604  -0.017 126.754  0.00  0.00    +0.000 C 
BRANCH  19  20
ATOM     20  C   UNL     1      -5.692   1.388 126.131  0.00  0.00    +0.000 C 
BRANCH  20  21
ATOM     21  N   UNL     1      -4.966   2.307 127.007  0.00  0.00    +0.000 NA
ATOM     22  C   UNL     1      -5.708   3.513 127.368  0.00  0.00    +0.000 C 
ATOM     23  C   UNL     1      -5.081   4.133 128.578  0.00  0.00    +0.000 C 
ATOM     24  C   UNL     1      -3.631   4.487 128.297  0.00  0.00    +0.000 C 
ATOM     25  C   UNL     1      -2.883   3.289 127.666  0.00  0.00    +0.000 C 
ATOM     26  C   UNL     1      -3.630   2.631 126.516  0.00  0.00    +0.000 C 
BRANCH  24  27
ATOM     27  C   UNL     1      -3.018   4.951 129.608  0.00  0.00    +0.000 A 
ATOM     28  C   UNL     1      -3.183   4.185 130.777  0.00  0.00    +0.000 A 
ATOM     29  C   UNL     1      -2.586   4.577 131.972  0.00  0.00    +0.000 A 
ATOM     30  C   UNL     1      -1.821   5.740 132.012  0.00  0.00    +0.000 A 
ATOM     31 CL   UNL     1      -1.121   6.259 133.490  0.00  0.00    +0.000 Cl
ATOM     32  C   UNL     1      -1.626   6.497 130.865  0.00  0.00    +0.000 A 
ATOM     33  C   UNL     1      -2.224   6.105 129.675  0.00  0.00    +0.000 A 
ENDBRANCH  24  27
BRANCH  24  34
ATOM     34  O   UNL     1      -3.601   5.595 127.387  0.00  0.00    +0.000 OA
ATOM     35  H   UNL     1      -4.129   6.315 127.770  0.00  0.00    +0.000 HD
ENDBRANCH  24  34
ENDBRANCH  20  21
ENDBRANCH  19  20
ENDBRANCH   1  19
TORSDOF 8
ENDMDL
MODEL 9
REMARK VINA RESULT:      -8.6      5.233      8.815
REMARK  Name = Loperamide
REMARK  10 active torsions:
REMARK  status: ('A' for Active; 'I' for Inactive)
REMARK    1  A    between atoms: C_1  and  N_2
REMARK    2  A    between atoms: N_2  and  C_3
REMARK    3  A    between atoms: C_4  and  C_6
REMARK    4  A    between atoms: C_6  and  C_7
REMARK    5  A    between atoms: C_6  and  C_23
REMARK    6  A    between atoms: C_6  and  C_29
REMARK    7  A    between atoms: C_7  and  C_8
REMARK    8  A    between atoms: C_8  and  N_9
REMARK    9  A    between atoms: C_12  and  O_13
REMARK   10  A    between atoms: C_12  and  C_16
REMARK                            x       y       z     vdW  Elec       q    Type
REMARK                         _______ _______ _______ _____ _____    ______ ____
ROOT
ATOM      1  C   UNL     1      -8.412   4.695 130.149  0.00  0.00    +0.000 C 
ENDROOT
BRANCH   1   2
ATOM      2  C   UNL     1      -8.589   3.407 131.040  0.00  0.00    +0.000 A 
ATOM      3  C   UNL     1      -7.476   2.648 131.436  0.00  0.00    +0.000 A 
ATOM      4  C   UNL     1      -7.583   1.336 131.881  0.00  0.00    +0.000 A 
ATOM      5  C   UNL     1      -8.830   0.763 132.039  0.00  0.00    +0.000 A 
ATOM      6  C   UNL     1      -9.964   1.523 131.790  0.00  0.00    +0.000 A 
ATOM      7  C   UNL     1      -9.846   2.845 131.345  0.00  0.00    +0.000 A 
ENDBRANCH   1   2
BRANCH   1   8
ATOM      8  C   UNL     1      -9.654   5.634 130.258  0.00  0.00    +0.000 A 
ATOM      9  C   UNL     1     -10.017   6.433 129.168  0.00  0.00    +0.000 A 
ATOM     10  C   UNL     1     -10.992   7.412 129.285  0.00  0.00    +0.000 A 
ATOM     11  C   UNL     1     -11.812   7.436 130.404  0.00  0.00    +0.000 A 
ATOM     12  C   UNL     1     -11.562   6.579 131.462  0.00  0.00    +0.000 A 
ATOM     13  C   UNL     1     -10.439   5.763 131.425  0.00  0.00    +0.000 A 
ENDBRANCH   1   8
BRANCH   1  17
ATOM     14  C   UNL     1      -5.450   6.521 132.002  0.00  0.00    +0.000 C 
ATOM     15  N   UNL     1      -6.721   5.842 131.827  0.00  0.00    +0.000 N 
ATOM     16  C   UNL     1      -7.552   5.804 133.022  0.00  0.00    +0.000 C 
ATOM     17  C   UNL     1      -7.042   5.428 130.520  0.00  0.00    +0.000 C 
ATOM     18  O   UNL     1      -6.168   5.584 129.637  0.00  0.00    +0.000 OA
ENDBRANCH   1  17
BRANCH   1  19
ATOM     19  C   UNL     1      -8.296   4.316 128.682  0.00  0.00    +0.000 C 
BRANCH  19  20
ATOM     20  C   UNL     1      -7.679   2.958 128.302  0.00  0.00    +0.000 C 
BRANCH  20  21
ATOM     21  N   UNL     1      -7.524   2.932 126.848  0.00  0.00    +0.000 NA
ATOM     22  C   UNL     1      -8.504   2.105 126.148  0.00  0.00    +0.000 C 
ATOM     23  C   UNL     1      -8.538   2.498 124.704  0.00  0.00    +0.000 C 
ATOM     24  C   UNL     1      -7.168   2.314 124.076  0.00  0.00    +0.000 C 
ATOM     25  C   UNL     1      -6.070   2.968 124.945  0.00  0.00    +0.000 C 
ATOM     26  C   UNL     1      -6.162   2.621 126.422  0.00  0.00    +0.000 C 
BRANCH  24  27
ATOM     27  C   UNL     1      -7.238   2.885 122.668  0.00  0.00    +0.000 A 
ATOM     28  C   UNL     1      -8.486   3.153 122.075  0.00  0.00    +0.000 A 
ATOM     29  C   UNL     1      -8.559   3.721 120.805  0.00  0.00    +0.000 A 
ATOM     30  C   UNL     1      -7.388   4.023 120.116  0.00  0.00    +0.000 A 
ATOM     31 CL   UNL     1      -7.467   4.678 118.532  0.00  0.00    +0.000 Cl
ATOM     32  C   UNL     1      -6.147   3.789 120.694  0.00  0.00    +0.000 A 
ATOM     33  C   UNL     1      -6.077   3.222 121.958  0.00  0.00    +0.000 A 
ENDBRANCH  24  27
BRANCH  24  34
ATOM     34  O   UNL     1      -6.905   0.909 123.960  0.00  0.00    +0.000 OA
ATOM     35  H   UNL     1      -6.023   0.734 124.327  0.00  0.00    +0.000 HD
ENDBRANCH  24  34
ENDBRANCH  20  21
ENDBRANCH  19  20
ENDBRANCH   1  19
TORSDOF 8
ENDMDL
