MODEL 1
REMARK VINA RESULT:      -9.2      0.000      0.000
REMARK  Name = Lopinavir
REMARK  20 active torsions:
REMARK  status: ('A' for Active; 'I' for Inactive)
REMARK    1  A    between atoms: C_1  and  C_2
REMARK    2  A    between atoms: C_2  and  C_3
REMARK    3  A    between atoms: C_2  and  C_4
REMARK    4  A    between atoms: C_4  and  N_5
REMARK    5  A    between atoms: C_4  and  C_12
REMARK    6  A    between atoms: N_14  and  C_15
REMARK    7  A    between atoms: C_15  and  C_16
REMARK    8  A    between atoms: C_15  and  C_40
REMARK    9  A    between atoms: C_16  and  C_17
REMARK   10  A    between atoms: C_17  and  O_18
REMARK   11  A    between atoms: C_17  and  C_19
REMARK   12  A    between atoms: C_19  and  C_20
REMARK   13  A    between atoms: C_19  and  N_27
REMARK   14  A    between atoms: C_20  and  C_21
REMARK   15  A    between atoms: C_28  and  C_30
REMARK   16  A    between atoms: C_30  and  O_31
REMARK   17  A    between atoms: O_31  and  C_32
REMARK   18  A    between atoms: C_33  and  C_34
REMARK   19  A    between atoms: C_38  and  C_39
REMARK   20  A    between atoms: C_40  and  C_41
REMARK                            x       y       z     vdW  Elec       q    Type
REMARK                         _______ _______ _______ _____ _____    ______ ____
ROOT
ATOM      1  C   UNL     1      -6.792   3.697 125.491  0.00  0.00    +0.000 C 
ENDROOT
BRANCH   1   2
ATOM      2  C   UNL     1      -8.079   2.922 125.288  0.00  0.00    +0.000 C 
BRANCH   2   3
ATOM      3  O   UNL     1      -9.106   3.881 125.207  0.00  0.00    +0.000 OA
ATOM      4  H   UNL     1      -9.921   3.403 125.003  0.00  0.00    +0.000 HD
ENDBRANCH   2   3
BRANCH   2   5
ATOM      5  C   UNL     1      -8.265   1.902 124.157  0.00  0.00    +0.000 C 
BRANCH   5   6
ATOM      6  N   UNL     1      -8.837   0.652 124.730  0.00  0.00    +0.000 N 
ATOM      7  C   UNL     1      -8.375  -0.608 124.352  0.00  0.00    +0.000 C 
ATOM      8  O   UNL     1      -7.683  -0.807 123.357  0.00  0.00    +0.000 OA
ATOM      9  H   UNL     1      -9.513   0.719 125.480  0.00  0.00    +0.000 HD
BRANCH   7  10
ATOM     10  C   UNL     1      -8.682  -1.740 125.292  0.00  0.00    +0.000 C 
BRANCH  10  11
ATOM     11  O   UNL     1      -7.498  -2.167 125.953  0.00  0.00    +0.000 OA
BRANCH  11  12
ATOM     12  C   UNL     1      -7.156  -1.658 127.178  0.00  0.00    +0.000 A 
ATOM     13  C   UNL     1      -7.823  -2.227 128.291  0.00  0.00    +0.000 A 
ATOM     14  C   UNL     1      -8.590  -3.524 128.211  0.00  0.00    +0.000 C 
ATOM     15  C   UNL     1      -7.696  -1.629 129.558  0.00  0.00    +0.000 A 
ATOM     16  C   UNL     1      -6.829  -0.559 129.749  0.00  0.00    +0.000 A 
ATOM     17  C   UNL     1      -6.129  -0.040 128.670  0.00  0.00    +0.000 A 
ATOM     18  C   UNL     1      -6.292  -0.567 127.383  0.00  0.00    +0.000 A 
ATOM     19  C   UNL     1      -5.499   0.087 126.299  0.00  0.00    +0.000 C 
ENDBRANCH  11  12
ENDBRANCH  10  11
ENDBRANCH   7  10
ENDBRANCH   5   6
BRANCH   5  20
ATOM     20  C   UNL     1      -9.021   2.466 122.919  0.00  0.00    +0.000 C 
BRANCH  20  21
ATOM     21  C   UNL     1      -8.239   3.201 121.826  0.00  0.00    +0.000 A 
ATOM     22  C   UNL     1      -8.773   3.802 120.683  0.00  0.00    +0.000 A 
ATOM     23  C   UNL     1      -7.959   4.201 119.614  0.00  0.00    +0.000 A 
ATOM     24  C   UNL     1      -6.595   4.195 119.722  0.00  0.00    +0.000 A 
ATOM     25  C   UNL     1      -6.050   3.841 120.939  0.00  0.00    +0.000 A 
ATOM     26  C   UNL     1      -6.854   3.322 121.968  0.00  0.00    +0.000 A 
ENDBRANCH  20  21
ENDBRANCH   5  20
ENDBRANCH   2   5
ENDBRANCH   1   2
BRANCH   1  27
ATOM     27  C   UNL     1      -6.631   3.764 127.041  0.00  0.00    +0.000 C 
BRANCH  27  30
ATOM     28  C   UNL     1      -8.276   3.376 128.873  0.00  0.00    +0.000 C 
ATOM     29  O   UNL     1      -9.255   2.643 129.048  0.00  0.00    +0.000 OA
ATOM     30  N   UNL     1      -7.675   3.068 127.693  0.00  0.00    +0.000 N 
ATOM     31  H   UNL     1      -8.028   2.214 127.277  0.00  0.00    +0.000 HD
BRANCH  28  32
ATOM     32  C   UNL     1      -7.829   4.637 129.852  0.00  0.00    +0.000 C 
BRANCH  32  33
ATOM     33  N   UNL     1      -9.018   5.516 130.246  0.00  0.00    +0.000 N 
ATOM     34  C   UNL     1      -9.787   5.076 131.436  0.00  0.00    +0.000 C 
ATOM     35  C   UNL     1     -10.623   6.181 131.993  0.00  0.00    +0.000 C 
ATOM     36  C   UNL     1     -11.500   6.731 130.896  0.00  0.00    +0.000 C 
ATOM     37  N   UNL     1     -10.749   6.992 129.714  0.00  0.00    +0.000 N 
ATOM     38  C   UNL     1      -9.755   6.186 129.243  0.00  0.00    +0.000 C 
ATOM     39  O   UNL     1      -9.642   6.148 128.052  0.00  0.00    +0.000 OA
ATOM     40  H   UNL     1     -11.173   7.486 128.936  0.00  0.00    +0.000 HD
ENDBRANCH  32  33
BRANCH  32  42
ATOM     41  C   UNL     1      -6.019   5.487 131.754  0.00  0.00    +0.000 C 
ATOM     42  C   UNL     1      -7.018   4.459 131.188  0.00  0.00    +0.000 C 
ATOM     43  C   UNL     1      -6.474   3.057 131.110  0.00  0.00    +0.000 C 
ENDBRANCH  32  42
ENDBRANCH  28  32
ENDBRANCH  27  30
BRANCH  27  44
ATOM     44  C   UNL     1      -5.117   3.388 127.676  0.00  0.00    +0.000 C 
BRANCH  44  45
ATOM     45  C   UNL     1      -4.027   4.393 128.186  0.00  0.00    +0.000 A 
ATOM     46  C   UNL     1      -3.415   4.195 129.386  0.00  0.00    +0.000 A 
ATOM     47  C   UNL     1      -2.674   5.178 130.135  0.00  0.00    +0.000 A 
ATOM     48  C   UNL     1      -2.379   6.396 129.647  0.00  0.00    +0.000 A 
ATOM     49  C   UNL     1      -2.811   6.577 128.356  0.00  0.00    +0.000 A 
ATOM     50  C   UNL     1      -3.648   5.619 127.650  0.00  0.00    +0.000 A 
ENDBRANCH  44  45
ENDBRANCH  27  44
ENDBRANCH   1  27
TORSDOF 16
ENDMDL
MODEL 2
REMARK VINA RESULT:      -9.1      3.019      5.265
REMARK  Name = Lopinavir
REMARK  20 active torsions:
REMARK  status: ('A' for Active; 'I' for Inactive)
REMARK    1  A    between atoms: C_1  and  C_2
REMARK    2  A    between atoms: C_2  and  C_3
REMARK    3  A    between atoms: C_2  and  C_4
REMARK    4  A    between atoms: C_4  and  N_5
REMARK    5  A    between atoms: C_4  and  C_12
REMARK    6  A    between atoms: N_14  and  C_15
REMARK    7  A    between atoms: C_15  and  C_16
REMARK    8  A    between atoms: C_15  and  C_40
REMARK    9  A    between atoms: C_16  and  C_17
REMARK   10  A    between atoms: C_17  and  O_18
REMARK   11  A    between atoms: C_17  and  C_19
REMARK   12  A    between atoms: C_19  and  C_20
REMARK   13  A    between atoms: C_19  and  N_27
REMARK   14  A    between atoms: C_20  and  C_21
REMARK   15  A    between atoms: C_28  and  C_30
REMARK   16  A    between atoms: C_30  and  O_31
REMARK   17  A    between atoms: O_31  and  C_32
REMARK   18  A    between atoms: C_33  and  C_34
REMARK   19  A    between atoms: C_38  and  C_39
REMARK   20  A    between atoms: C_40  and  C_41
REMARK                            x       y       z     vdW  Elec       q    Type
REMARK                         _______ _______ _______ _____ _____    ______ ____
ROOT
ATOM      1  C   UNL     1      -8.131   2.334 128.107  0.00  0.00    +0.000 C 
ENDROOT
BRANCH   1   2
ATOM      2  C   UNL     1      -7.273   3.210 127.216  0.00  0.00    +0.000 C 
BRANCH   2   3
ATOM      3  O   UNL     1      -7.678   4.536 127.462  0.00  0.00    +0.000 OA
ATOM      4  H   UNL     1      -7.162   5.101 126.872  0.00  0.00    +0.000 HD
ENDBRANCH   2   3
BRANCH   2   5
ATOM      5  C   UNL     1      -5.740   3.152 127.222  0.00  0.00    +0.000 C 
BRANCH   5   6
ATOM      6  N   UNL     1      -5.300   2.060 126.308  0.00  0.00    +0.000 N 
ATOM      7  C   UNL     1      -5.192   0.739 126.741  0.00  0.00    +0.000 C 
ATOM      8  O   UNL     1      -5.179   0.411 127.924  0.00  0.00    +0.000 OA
ATOM      9  H   UNL     1      -5.166   2.264 125.326  0.00  0.00    +0.000 HD
BRANCH   7  10
ATOM     10  C   UNL     1      -5.191  -0.315 125.670  0.00  0.00    +0.000 C 
BRANCH  10  11
ATOM     11  O   UNL     1      -5.432  -1.596 126.238  0.00  0.00    +0.000 OA
BRANCH  11  12
ATOM     12  C   UNL     1      -6.557  -2.308 125.915  0.00  0.00    +0.000 A 
ATOM     13  C   UNL     1      -6.531  -2.967 124.662  0.00  0.00    +0.000 A 
ATOM     14  C   UNL     1      -5.261  -3.184 123.877  0.00  0.00    +0.000 C 
ATOM     15  C   UNL     1      -7.711  -3.541 124.154  0.00  0.00    +0.000 A 
ATOM     16  C   UNL     1      -8.869  -3.571 124.922  0.00  0.00    +0.000 A 
ATOM     17  C   UNL     1      -8.877  -2.977 126.177  0.00  0.00    +0.000 A 
ATOM     18  C   UNL     1      -7.739  -2.334 126.678  0.00  0.00    +0.000 A 
ATOM     19  C   UNL     1      -7.875  -1.717 128.031  0.00  0.00    +0.000 C 
ENDBRANCH  11  12
ENDBRANCH  10  11
ENDBRANCH   7  10
ENDBRANCH   5   6
BRANCH   5  20
ATOM     20  C   UNL     1      -5.057   4.529 126.980  0.00  0.00    +0.000 C 
BRANCH  20  21
ATOM     21  C   UNL     1      -4.205   5.154 128.088  0.00  0.00    +0.000 A 
ATOM     22  C   UNL     1      -3.265   6.178 127.937  0.00  0.00    +0.000 A 
ATOM     23  C   UNL     1      -2.345   6.486 128.949  0.00  0.00    +0.000 A 
ATOM     24  C   UNL     1      -2.452   5.932 130.195  0.00  0.00    +0.000 A 
ATOM     25  C   UNL     1      -3.529   5.106 130.440  0.00  0.00    +0.000 A 
ATOM     26  C   UNL     1      -4.378   4.697 129.397  0.00  0.00    +0.000 A 
ENDBRANCH  20  21
ENDBRANCH   5  20
ENDBRANCH   2   5
ENDBRANCH   1   2
BRANCH   1  27
ATOM     27  C   UNL     1      -8.178   3.104 129.463  0.00  0.00    +0.000 C 
BRANCH  27  30
ATOM     28  C   UNL     1     -10.139   4.534 130.025  0.00  0.00    +0.000 C 
ATOM     29  O   UNL     1     -11.343   4.350 130.230  0.00  0.00    +0.000 OA
ATOM     30  N   UNL     1      -9.511   3.339 129.871  0.00  0.00    +0.000 N 
ATOM     31  H   UNL     1     -10.095   2.547 130.114  0.00  0.00    +0.000 HD
BRANCH  28  32
ATOM     32  C   UNL     1      -9.408   6.009 129.830  0.00  0.00    +0.000 C 
BRANCH  32  33
ATOM     33  N   UNL     1     -10.355   7.052 129.230  0.00  0.00    +0.000 N 
ATOM     34  C   UNL     1     -11.594   7.326 129.998  0.00  0.00    +0.000 C 
ATOM     35  C   UNL     1     -12.221   8.619 129.592  0.00  0.00    +0.000 C 
ATOM     36  C   UNL     1     -12.444   8.606 128.100  0.00  0.00    +0.000 C 
ATOM     37  N   UNL     1     -11.276   8.184 127.405  0.00  0.00    +0.000 N 
ATOM     38  C   UNL     1     -10.454   7.179 127.826  0.00  0.00    +0.000 C 
ATOM     39  O   UNL     1      -9.933   6.541 126.958  0.00  0.00    +0.000 OA
ATOM     40  H   UNL     1     -11.228   8.249 126.393  0.00  0.00    +0.000 HD
ENDBRANCH  32  33
BRANCH  32  42
ATOM     41  C   UNL     1      -7.142   6.941 131.101  0.00  0.00    +0.000 C 
ATOM     42  C   UNL     1      -8.671   6.777 130.988  0.00  0.00    +0.000 C 
ATOM     43  C   UNL     1      -9.325   6.272 132.246  0.00  0.00    +0.000 C 
ENDBRANCH  32  42
ENDBRANCH  28  32
ENDBRANCH  27  30
BRANCH  27  44
ATOM     44  C   UNL     1      -7.218   2.516 130.717  0.00  0.00    +0.000 C 
BRANCH  44  45
ATOM     45  C   UNL     1      -7.146   3.053 132.187  0.00  0.00    +0.000 A 
ATOM     46  C   UNL     1      -8.204   2.899 133.030  0.00  0.00    +0.000 A 
ATOM     47  C   UNL     1      -8.426   3.619 134.257  0.00  0.00    +0.000 A 
ATOM     48  C   UNL     1      -7.512   4.450 134.791  0.00  0.00    +0.000 A 
ATOM     49  C   UNL     1      -6.342   4.493 134.073  0.00  0.00    +0.000 A 
ATOM     50  C   UNL     1      -6.169   3.845 132.782  0.00  0.00    +0.000 A 
ENDBRANCH  44  45
ENDBRANCH  27  44
ENDBRANCH   1  27
TORSDOF 16
ENDMDL
MODEL 3
REMARK VINA RESULT:      -9.1      1.344      2.325
REMARK  Name = Lopinavir
REMARK  20 active torsions:
REMARK  status: ('A' for Active; 'I' for Inactive)
REMARK    1  A    between atoms: C_1  and  C_2
REMARK    2  A    between atoms: C_2  and  C_3
REMARK    3  A    between atoms: C_2  and  C_4
REMARK    4  A    between atoms: C_4  and  N_5
REMARK    5  A    between atoms: C_4  and  C_12
REMARK    6  A    between atoms: N_14  and  C_15
REMARK    7  A    between atoms: C_15  and  C_16
REMARK    8  A    between atoms: C_15  and  C_40
REMARK    9  A    between atoms: C_16  and  C_17
REMARK   10  A    between atoms: C_17  and  O_18
REMARK   11  A    between atoms: C_17  and  C_19
REMARK   12  A    between atoms: C_19  and  C_20
REMARK   13  A    between atoms: C_19  and  N_27
REMARK   14  A    between atoms: C_20  and  C_21
REMARK   15  A    between atoms: C_28  and  C_30
REMARK   16  A    between atoms: C_30  and  O_31
REMARK   17  A    between atoms: O_31  and  C_32
REMARK   18  A    between atoms: C_33  and  C_34
REMARK   19  A    between atoms: C_38  and  C_39
REMARK   20  A    between atoms: C_40  and  C_41
REMARK                            x       y       z     vdW  Elec       q    Type
REMARK                         _______ _______ _______ _____ _____    ______ ____
ROOT
ATOM      1  C   UNL     1      -6.459   4.402 125.841  0.00  0.00    +0.000 C 
ENDROOT
BRANCH   1   2
ATOM      2  C   UNL     1      -7.614   3.496 125.463  0.00  0.00    +0.000 C 
BRANCH   2   3
ATOM      3  O   UNL     1      -8.753   4.320 125.389  0.00  0.00    +0.000 OA
ATOM      4  H   UNL     1      -8.785   4.675 124.491  0.00  0.00    +0.000 HD
ENDBRANCH   2   3
BRANCH   2   5
ATOM      5  C   UNL     1      -7.583   2.583 124.230  0.00  0.00    +0.000 C 
BRANCH   5   6
ATOM      6  N   UNL     1      -7.752   1.171 124.677  0.00  0.00    +0.000 N 
ATOM      7  C   UNL     1      -8.763   0.798 125.562  0.00  0.00    +0.000 C 
ATOM      8  O   UNL     1      -9.402   1.597 126.240  0.00  0.00    +0.000 OA
ATOM      9  H   UNL     1      -7.179   0.451 124.258  0.00  0.00    +0.000 HD
BRANCH   7  10
ATOM     10  C   UNL     1      -9.122  -0.662 125.584  0.00  0.00    +0.000 C 
BRANCH  10  11
ATOM     11  O   UNL     1      -8.123  -1.405 126.271  0.00  0.00    +0.000 OA
BRANCH  11  12
ATOM     12  C   UNL     1      -7.154  -2.084 125.580  0.00  0.00    +0.000 A 
ATOM     13  C   UNL     1      -5.851  -1.534 125.643  0.00  0.00    +0.000 A 
ATOM     14  C   UNL     1      -5.450  -0.493 126.659  0.00  0.00    +0.000 C 
ATOM     15  C   UNL     1      -4.843  -2.037 124.800  0.00  0.00    +0.000 A 
ATOM     16  C   UNL     1      -5.083  -3.144 123.995  0.00  0.00    +0.000 A 
ATOM     17  C   UNL     1      -6.346  -3.721 123.978  0.00  0.00    +0.000 A 
ATOM     18  C   UNL     1      -7.389  -3.196 124.751  0.00  0.00    +0.000 A 
ATOM     19  C   UNL     1      -8.706  -3.892 124.635  0.00  0.00    +0.000 C 
ENDBRANCH  11  12
ENDBRANCH  10  11
ENDBRANCH   7  10
ENDBRANCH   5   6
BRANCH   5  20
ATOM     20  C   UNL     1      -8.543   3.032 123.090  0.00  0.00    +0.000 C 
BRANCH  20  21
ATOM     21  C   UNL     1      -7.967   3.413 121.724  0.00  0.00    +0.000 A 
ATOM     22  C   UNL     1      -6.613   3.491 121.385  0.00  0.00    +0.000 A 
ATOM     23  C   UNL     1      -6.185   4.113 120.203  0.00  0.00    +0.000 A 
ATOM     24  C   UNL     1      -7.079   4.498 119.242  0.00  0.00    +0.000 A 
ATOM     25  C   UNL     1      -8.411   4.199 119.449  0.00  0.00    +0.000 A 
ATOM     26  C   UNL     1      -8.855   3.693 120.682  0.00  0.00    +0.000 A 
ENDBRANCH  20  21
ENDBRANCH   5  20
ENDBRANCH   2   5
ENDBRANCH   1   2
BRANCH   1  27
ATOM     27  C   UNL     1      -6.301   4.190 127.379  0.00  0.00    +0.000 C 
BRANCH  27  30
ATOM     28  C   UNL     1      -8.190   3.762 128.946  0.00  0.00    +0.000 C 
ATOM     29  O   UNL     1      -9.121   2.954 129.016  0.00  0.00    +0.000 OA
ATOM     30  N   UNL     1      -7.378   3.441 127.905  0.00  0.00    +0.000 N 
ATOM     31  H   UNL     1      -7.587   2.534 127.502  0.00  0.00    +0.000 HD
BRANCH  28  32
ATOM     32  C   UNL     1      -8.016   5.116 129.888  0.00  0.00    +0.000 C 
BRANCH  32  33
ATOM     33  N   UNL     1      -9.339   5.859 130.086  0.00  0.00    +0.000 N 
ATOM     34  C   UNL     1     -10.191   5.386 131.204  0.00  0.00    +0.000 C 
ATOM     35  C   UNL     1     -11.212   6.404 131.591  0.00  0.00    +0.000 C 
ATOM     36  C   UNL     1     -12.006   6.789 130.367  0.00  0.00    +0.000 C 
ATOM     37  N   UNL     1     -11.152   7.084 129.266  0.00  0.00    +0.000 N 
ATOM     38  C   UNL     1     -10.020   6.385 128.965  0.00  0.00    +0.000 C 
ATOM     39  O   UNL     1      -9.759   6.304 127.800  0.00  0.00    +0.000 OA
ATOM     40  H   UNL     1     -11.532   7.484 128.415  0.00  0.00    +0.000 HD
ENDBRANCH  32  33
BRANCH  32  42
ATOM     41  C   UNL     1      -6.475   6.234 131.887  0.00  0.00    +0.000 C 
ATOM     42  C   UNL     1      -7.359   5.106 131.317  0.00  0.00    +0.000 C 
ATOM     43  C   UNL     1      -6.752   3.733 131.438  0.00  0.00    +0.000 C 
ENDBRANCH  32  42
ENDBRANCH  28  32
ENDBRANCH  27  30
BRANCH  27  44
ATOM     44  C   UNL     1      -4.807   3.639 127.931  0.00  0.00    +0.000 C 
BRANCH  44  45
ATOM     45  C   UNL     1      -3.677   4.485 128.611  0.00  0.00    +0.000 A 
ATOM     46  C   UNL     1      -3.403   4.332 129.936  0.00  0.00    +0.000 A 
ATOM     47  C   UNL     1      -2.663   5.249 130.763  0.00  0.00    +0.000 A 
ATOM     48  C   UNL     1      -2.022   6.323 130.268  0.00  0.00    +0.000 A 
ATOM     49  C   UNL     1      -2.108   6.416 128.900  0.00  0.00    +0.000 A 
ATOM     50  C   UNL     1      -2.944   5.546 128.089  0.00  0.00    +0.000 A 
ENDBRANCH  44  45
ENDBRANCH  27  44
ENDBRANCH   1  27
TORSDOF 16
ENDMDL
MODEL 4
REMARK VINA RESULT:      -9.0      1.783      3.728
REMARK  Name = Lopinavir
REMARK  20 active torsions:
REMARK  status: ('A' for Active; 'I' for Inactive)
REMARK    1  A    between atoms: C_1  and  C_2
REMARK    2  A    between atoms: C_2  and  C_3
REMARK    3  A    between atoms: C_2  and  C_4
REMARK    4  A    between atoms: C_4  and  N_5
REMARK    5  A    between atoms: C_4  and  C_12
REMARK    6  A    between atoms: N_14  and  C_15
REMARK    7  A    between atoms: C_15  and  C_16
REMARK    8  A    between atoms: C_15  and  C_40
REMARK    9  A    between atoms: C_16  and  C_17
REMARK   10  A    between atoms: C_17  and  O_18
REMARK   11  A    between atoms: C_17  and  C_19
REMARK   12  A    between atoms: C_19  and  C_20
REMARK   13  A    between atoms: C_19  and  N_27
REMARK   14  A    between atoms: C_20  and  C_21
REMARK   15  A    between atoms: C_28  and  C_30
REMARK   16  A    between atoms: C_30  and  O_31
REMARK   17  A    between atoms: O_31  and  C_32
REMARK   18  A    between atoms: C_33  and  C_34
REMARK   19  A    between atoms: C_38  and  C_39
REMARK   20  A    between atoms: C_40  and  C_41
REMARK                            x       y       z     vdW  Elec       q    Type
REMARK                         _______ _______ _______ _____ _____    ______ ____
ROOT
ATOM      1  C   UNL     1      -6.932   3.218 126.176  0.00  0.00    +0.000 C 
ENDROOT
BRANCH   1   2
ATOM      2  C   UNL     1      -8.199   2.670 125.550  0.00  0.00    +0.000 C 
BRANCH   2   3
ATOM      3  O   UNL     1      -9.005   3.785 125.252  0.00  0.00    +0.000 OA
ATOM      4  H   UNL     1      -9.893   3.584 125.575  0.00  0.00    +0.000 HD
ENDBRANCH   2   3
BRANCH   2   5
ATOM      5  C   UNL     1      -8.186   1.731 124.337  0.00  0.00    +0.000 C 
BRANCH   5   6
ATOM      6  N   UNL     1      -8.589   0.367 124.784  0.00  0.00    +0.000 N 
ATOM      7  C   UNL     1      -8.075  -0.783 124.185  0.00  0.00    +0.000 C 
ATOM      8  O   UNL     1      -7.488  -0.783 123.107  0.00  0.00    +0.000 OA
ATOM      9  H   UNL     1      -9.177   0.271 125.601  0.00  0.00    +0.000 HD
BRANCH   7  10
ATOM     10  C   UNL     1      -8.182  -2.053 124.982  0.00  0.00    +0.000 C 
BRANCH  10  11
ATOM     11  O   UNL     1      -8.319  -1.756 126.366  0.00  0.00    +0.000 OA
BRANCH  11  12
ATOM     12  C   UNL     1      -7.409  -2.223 127.278  0.00  0.00    +0.000 A 
ATOM     13  C   UNL     1      -7.901  -3.161 128.217  0.00  0.00    +0.000 A 
ATOM     14  C   UNL     1      -9.217  -3.879 128.044  0.00  0.00    +0.000 C 
ATOM     15  C   UNL     1      -7.102  -3.532 129.314  0.00  0.00    +0.000 A 
ATOM     16  C   UNL     1      -5.793  -3.078 129.418  0.00  0.00    +0.000 A 
ATOM     17  C   UNL     1      -5.290  -2.204 128.464  0.00  0.00    +0.000 A 
ATOM     18  C   UNL     1      -6.086  -1.760 127.401  0.00  0.00    +0.000 A 
ATOM     19  C   UNL     1      -5.440  -0.808 126.449  0.00  0.00    +0.000 C 
ENDBRANCH  11  12
ENDBRANCH  10  11
ENDBRANCH   7  10
ENDBRANCH   5   6
BRANCH   5  20
ATOM     20  C   UNL     1      -8.968   2.279 123.108  0.00  0.00    +0.000 C 
BRANCH  20  21
ATOM     21  C   UNL     1      -8.221   3.066 122.028  0.00  0.00    +0.000 A 
ATOM     22  C   UNL     1      -8.788   3.690 120.912  0.00  0.00    +0.000 A 
ATOM     23  C   UNL     1      -8.000   4.141 119.844  0.00  0.00    +0.000 A 
ATOM     24  C   UNL     1      -6.635   4.166 119.931  0.00  0.00    +0.000 A 
ATOM     25  C   UNL     1      -6.063   3.787 121.128  0.00  0.00    +0.000 A 
ATOM     26  C   UNL     1      -6.838   3.216 122.152  0.00  0.00    +0.000 A 
ENDBRANCH  20  21
ENDBRANCH   5  20
ENDBRANCH   2   5
ENDBRANCH   1   2
BRANCH   1  27
ATOM     27  C   UNL     1      -7.169   3.059 127.710  0.00  0.00    +0.000 C 
BRANCH  27  30
ATOM     28  C   UNL     1      -7.729   4.743 129.460  0.00  0.00    +0.000 C 
ATOM     29  O   UNL     1      -8.385   5.788 129.510  0.00  0.00    +0.000 OA
ATOM     30  N   UNL     1      -7.871   4.168 128.237  0.00  0.00    +0.000 N 
ATOM     31  H   UNL     1      -8.596   4.599 127.675  0.00  0.00    +0.000 HD
BRANCH  28  32
ATOM     32  C   UNL     1      -6.718   4.181 130.648  0.00  0.00    +0.000 C 
BRANCH  32  33
ATOM     33  N   UNL     1      -5.428   4.998 130.746  0.00  0.00    +0.000 N 
ATOM     34  C   UNL     1      -5.594   6.457 130.959  0.00  0.00    +0.000 C 
ATOM     35  C   UNL     1      -4.340   7.089 131.465  0.00  0.00    +0.000 C 
ATOM     36  C   UNL     1      -3.210   6.757 130.522  0.00  0.00    +0.000 C 
ATOM     37  N   UNL     1      -3.181   5.367 130.216  0.00  0.00    +0.000 N 
ATOM     38  C   UNL     1      -4.293   4.605 130.000  0.00  0.00    +0.000 C 
ATOM     39  O   UNL     1      -4.164   3.716 129.210  0.00  0.00    +0.000 OA
ATOM     40  H   UNL     1      -2.403   4.970 129.700  0.00  0.00    +0.000 HD
ENDBRANCH  32  33
BRANCH  32  42
ATOM     41  C   UNL     1      -6.240   3.456 133.268  0.00  0.00    +0.000 C 
ATOM     42  C   UNL     1      -7.159   3.974 132.144  0.00  0.00    +0.000 C 
ATOM     43  C   UNL     1      -8.474   3.247 132.046  0.00  0.00    +0.000 C 
ENDBRANCH  32  42
ENDBRANCH  28  32
ENDBRANCH  27  30
BRANCH  27  44
ATOM     44  C   UNL     1      -7.798   1.590 128.245  0.00  0.00    +0.000 C 
BRANCH  44  45
ATOM     45  C   UNL     1      -7.338   0.759 129.491  0.00  0.00    +0.000 A 
ATOM     46  C   UNL     1      -8.229  -0.012 130.173  0.00  0.00    +0.000 A 
ATOM     47  C   UNL     1      -8.055  -0.542 131.500  0.00  0.00    +0.000 A 
ATOM     48  C   UNL     1      -6.896  -0.445 132.177  0.00  0.00    +0.000 A 
ATOM     49  C   UNL     1      -5.899   0.159 131.452  0.00  0.00    +0.000 A 
ATOM     50  C   UNL     1      -6.116   0.783 130.156  0.00  0.00    +0.000 A 
ENDBRANCH  44  45
ENDBRANCH  27  44
ENDBRANCH   1  27
TORSDOF 16
ENDMDL
MODEL 5
REMARK VINA RESULT:      -8.9      1.894      8.391
REMARK  Name = Lopinavir
REMARK  20 active torsions:
REMARK  status: ('A' for Active; 'I' for Inactive)
REMARK    1  A    between atoms: C_1  and  C_2
REMARK    2  A    between atoms: C_2  and  C_3
REMARK    3  A    between atoms: C_2  and  C_4
REMARK    4  A    between atoms: C_4  and  N_5
REMARK    5  A    between atoms: C_4  and  C_12
REMARK    6  A    between atoms: N_14  and  C_15
REMARK    7  A    between atoms: C_15  and  C_16
REMARK    8  A    between atoms: C_15  and  C_40
REMARK    9  A    between atoms: C_16  and  C_17
REMARK   10  A    between atoms: C_17  and  O_18
REMARK   11  A    between atoms: C_17  and  C_19
REMARK   12  A    between atoms: C_19  and  C_20
REMARK   13  A    between atoms: C_19  and  N_27
REMARK   14  A    between atoms: C_20  and  C_21
REMARK   15  A    between atoms: C_28  and  C_30
REMARK   16  A    between atoms: C_30  and  O_31
REMARK   17  A    between atoms: O_31  and  C_32
REMARK   18  A    between atoms: C_33  and  C_34
REMARK   19  A    between atoms: C_38  and  C_39
REMARK   20  A    between atoms: C_40  and  C_41
REMARK                            x       y       z     vdW  Elec       q    Type
REMARK                         _______ _______ _______ _____ _____    ______ ____
ROOT
ATOM      1  C   UNL     1      -7.822   1.514 126.640  0.00  0.00    +0.000 C 
ENDROOT
BRANCH   1   2
ATOM      2  C   UNL     1      -6.455   1.956 127.124  0.00  0.00    +0.000 C 
BRANCH   2   3
ATOM      3  O   UNL     1      -5.517   1.298 126.306  0.00  0.00    +0.000 OA
ATOM      4  H   UNL     1      -5.185   0.543 126.810  0.00  0.00    +0.000 HD
ENDBRANCH   2   3
BRANCH   2   5
ATOM      5  C   UNL     1      -6.055   3.432 127.245  0.00  0.00    +0.000 C 
BRANCH   5   6
ATOM      6  N   UNL     1      -6.787   4.032 128.396  0.00  0.00    +0.000 N 
ATOM      7  C   UNL     1      -8.025   4.653 128.235  0.00  0.00    +0.000 C 
ATOM      8  O   UNL     1      -8.477   4.995 127.146  0.00  0.00    +0.000 OA
ATOM      9  H   UNL     1      -6.423   3.905 129.331  0.00  0.00    +0.000 HD
BRANCH   7  10
ATOM     10  C   UNL     1      -8.860   4.806 129.476  0.00  0.00    +0.000 C 
BRANCH  10  11
ATOM     11  O   UNL     1      -8.940   6.174 129.852  0.00  0.00    +0.000 OA
BRANCH  11  12
ATOM     12  C   UNL     1     -10.146   6.752 130.149  0.00  0.00    +0.000 A 
ATOM     13  C   UNL     1     -10.653   6.492 131.445  0.00  0.00    +0.000 A 
ATOM     14  C   UNL     1      -9.804   5.925 132.557  0.00  0.00    +0.000 C 
ATOM     15  C   UNL     1     -11.971   6.863 131.764  0.00  0.00    +0.000 A 
ATOM     16  C   UNL     1     -12.739   7.588 130.859  0.00  0.00    +0.000 A 
ATOM     17  C   UNL     1     -12.220   7.895 129.609  0.00  0.00    +0.000 A 
ATOM     18  C   UNL     1     -10.937   7.475 129.237  0.00  0.00    +0.000 A 
ATOM     19  C   UNL     1     -10.496   7.850 127.860  0.00  0.00    +0.000 C 
ENDBRANCH  11  12
ENDBRANCH  10  11
ENDBRANCH   7  10
ENDBRANCH   5   6
BRANCH   5  20
ATOM     20  C   UNL     1      -4.517   3.670 127.247  0.00  0.00    +0.000 C 
BRANCH  20  21
ATOM     21  C   UNL     1      -3.925   4.779 128.121  0.00  0.00    +0.000 A 
ATOM     22  C   UNL     1      -3.919   6.148 127.837  0.00  0.00    +0.000 A 
ATOM     23  C   UNL     1      -3.115   7.044 128.556  0.00  0.00    +0.000 A 
ATOM     24  C   UNL     1      -2.452   6.650 129.686  0.00  0.00    +0.000 A 
ATOM     25  C   UNL     1      -2.649   5.358 130.128  0.00  0.00    +0.000 A 
ATOM     26  C   UNL     1      -3.349   4.425 129.344  0.00  0.00    +0.000 A 
ENDBRANCH  20  21
ENDBRANCH   5  20
ENDBRANCH   2   5
ENDBRANCH   1   2
BRANCH   1  27
ATOM     27  C   UNL     1      -7.709   1.568 125.085  0.00  0.00    +0.000 C 
BRANCH  27  30
ATOM     28  C   UNL     1      -8.500  -0.660 124.299  0.00  0.00    +0.000 C 
ATOM     29  O   UNL     1      -9.564  -1.129 123.882  0.00  0.00    +0.000 OA
ATOM     30  N   UNL     1      -8.626   0.681 124.475  0.00  0.00    +0.000 N 
ATOM     31  H   UNL     1      -9.482   1.056 124.084  0.00  0.00    +0.000 HD
BRANCH  28  32
ATOM     32  C   UNL     1      -7.157  -1.539 124.714  0.00  0.00    +0.000 C 
BRANCH  32  33
ATOM     33  N   UNL     1      -7.332  -2.275 126.044  0.00  0.00    +0.000 N 
ATOM     34  C   UNL     1      -8.728  -2.586 126.438  0.00  0.00    +0.000 C 
ATOM     35  C   UNL     1      -8.783  -3.650 127.485  0.00  0.00    +0.000 C 
ATOM     36  C   UNL     1      -7.922  -3.232 128.651  0.00  0.00    +0.000 C 
ATOM     37  N   UNL     1      -6.641  -2.788 128.217  0.00  0.00    +0.000 N 
ATOM     38  C   UNL     1      -6.429  -2.029 127.104  0.00  0.00    +0.000 C 
ATOM     39  O   UNL     1      -5.517  -1.257 127.172  0.00  0.00    +0.000 OA
ATOM     40  H   UNL     1      -5.907  -2.600 128.892  0.00  0.00    +0.000 HD
ENDBRANCH  32  33
BRANCH  32  42
ATOM     41  C   UNL     1      -5.249  -3.449 124.140  0.00  0.00    +0.000 C 
ATOM     42  C   UNL     1      -6.483  -2.602 123.770  0.00  0.00    +0.000 C 
ATOM     43  C   UNL     1      -6.367  -1.900 122.443  0.00  0.00    +0.000 C 
ENDBRANCH  32  42
ENDBRANCH  28  32
ENDBRANCH  27  30
BRANCH  27  44
ATOM     44  C   UNL     1      -7.714   3.091 124.364  0.00  0.00    +0.000 C 
BRANCH  44  45
ATOM     45  C   UNL     1      -6.795   3.591 123.198  0.00  0.00    +0.000 A 
ATOM     46  C   UNL     1      -7.007   3.165 121.922  0.00  0.00    +0.000 A 
ATOM     47  C   UNL     1      -6.072   3.249 120.831  0.00  0.00    +0.000 A 
ATOM     48  C   UNL     1      -4.900   3.904 120.923  0.00  0.00    +0.000 A 
ATOM     49  C   UNL     1      -4.723   4.518 122.138  0.00  0.00    +0.000 A 
ATOM     50  C   UNL     1      -5.624   4.339 123.265  0.00  0.00    +0.000 A 
ENDBRANCH  44  45
ENDBRANCH  27  44
ENDBRANCH   1  27
TORSDOF 16
ENDMDL
MODEL 6
REMARK VINA RESULT:      -8.9      1.519      2.497
REMARK  Name = Lopinavir
REMARK  20 active torsions:
REMARK  status: ('A' for Active; 'I' for Inactive)
REMARK    1  A    between atoms: C_1  and  C_2
REMARK    2  A    between atoms: C_2  and  C_3
REMARK    3  A    between atoms: C_2  and  C_4
REMARK    4  A    between atoms: C_4  and  N_5
REMARK    5  A    between atoms: C_4  and  C_12
REMARK    6  A    between atoms: N_14  and  C_15
REMARK    7  A    between atoms: C_15  and  C_16
REMARK    8  A    between atoms: C_15  and  C_40
REMARK    9  A    between atoms: C_16  and  C_17
REMARK   10  A    between atoms: C_17  and  O_18
REMARK   11  A    between atoms: C_17  and  C_19
REMARK   12  A    between atoms: C_19  and  C_20
REMARK   13  A    between atoms: C_19  and  N_27
REMARK   14  A    between atoms: C_20  and  C_21
REMARK   15  A    between atoms: C_28  and  C_30
REMARK   16  A    between atoms: C_30  and  O_31
REMARK   17  A    between atoms: O_31  and  C_32
REMARK   18  A    between atoms: C_33  and  C_34
REMARK   19  A    between atoms: C_38  and  C_39
REMARK   20  A    between atoms: C_40  and  C_41
REMARK                            x       y       z     vdW  Elec       q    Type
REMARK                         _______ _______ _______ _____ _____    ______ ____
ROOT
ATOM      1  C   UNL     1      -7.802   1.967 127.460  0.00  0.00    +0.000 C 
ENDROOT
BRANCH   1   2
ATOM      2  C   UNL     1      -8.097   2.660 126.145  0.00  0.00    +0.000 C 
BRANCH   2   3
ATOM      3  O   UNL     1      -8.264   4.025 126.448  0.00  0.00    +0.000 OA
ATOM      4  H   UNL     1      -9.214   4.185 126.510  0.00  0.00    +0.000 HD
ENDBRANCH   2   3
BRANCH   2   5
ATOM      5  C   UNL     1      -7.185   2.535 124.918  0.00  0.00    +0.000 C 
BRANCH   5   6
ATOM      6  N   UNL     1      -6.705   1.127 124.821  0.00  0.00    +0.000 N 
ATOM      7  C   UNL     1      -7.526   0.104 124.347  0.00  0.00    +0.000 C 
ATOM      8  O   UNL     1      -8.744   0.207 124.235  0.00  0.00    +0.000 OA
ATOM      9  H   UNL     1      -5.734   0.924 125.014  0.00  0.00    +0.000 HD
BRANCH   7  10
ATOM     10  C   UNL     1      -6.830  -1.140 123.869  0.00  0.00    +0.000 C 
BRANCH  10  11
ATOM     11  O   UNL     1      -6.293  -1.859 124.971  0.00  0.00    +0.000 OA
BRANCH  11  12
ATOM     12  C   UNL     1      -7.104  -2.311 125.978  0.00  0.00    +0.000 A 
ATOM     13  C   UNL     1      -6.688  -1.996 127.294  0.00  0.00    +0.000 A 
ATOM     14  C   UNL     1      -5.639  -0.953 127.594  0.00  0.00    +0.000 C 
ATOM     15  C   UNL     1      -7.337  -2.594 128.390  0.00  0.00    +0.000 A 
ATOM     16  C   UNL     1      -8.456  -3.395 128.196  0.00  0.00    +0.000 A 
ATOM     17  C   UNL     1      -8.901  -3.655 126.908  0.00  0.00    +0.000 A 
ATOM     18  C   UNL     1      -8.231  -3.134 125.794  0.00  0.00    +0.000 A 
ATOM     19  C   UNL     1      -8.793  -3.498 124.459  0.00  0.00    +0.000 C 
ENDBRANCH  11  12
ENDBRANCH  10  11
ENDBRANCH   7  10
ENDBRANCH   5   6
BRANCH   5  20
ATOM     20  C   UNL     1      -7.804   3.111 123.612  0.00  0.00    +0.000 C 
BRANCH  20  21
ATOM     21  C   UNL     1      -6.883   3.551 122.470  0.00  0.00    +0.000 A 
ATOM     22  C   UNL     1      -5.547   3.947 122.584  0.00  0.00    +0.000 A 
ATOM     23  C   UNL     1      -4.879   4.592 121.534  0.00  0.00    +0.000 A 
ATOM     24  C   UNL     1      -5.441   4.690 120.291  0.00  0.00    +0.000 A 
ATOM     25  C   UNL     1      -6.663   4.080 120.090  0.00  0.00    +0.000 A 
ATOM     26  C   UNL     1      -7.389   3.545 121.168  0.00  0.00    +0.000 A 
ENDBRANCH  20  21
ENDBRANCH   5  20
ENDBRANCH   2   5
ENDBRANCH   1   2
BRANCH   1  27
ATOM     27  C   UNL     1      -7.798   3.125 128.505  0.00  0.00    +0.000 C 
BRANCH  27  30
ATOM     28  C   UNL     1      -9.625   4.225 129.795  0.00  0.00    +0.000 C 
ATOM     29  O   UNL     1     -10.734   3.892 130.224  0.00  0.00    +0.000 OA
ATOM     30  N   UNL     1      -9.002   3.149 129.247  0.00  0.00    +0.000 N 
ATOM     31  H   UNL     1      -9.476   2.274 129.438  0.00  0.00    +0.000 HD
BRANCH  28  32
ATOM     32  C   UNL     1      -9.026   5.771 129.765  0.00  0.00    +0.000 C 
BRANCH  32  33
ATOM     33  N   UNL     1     -10.060   6.784 129.269  0.00  0.00    +0.000 N 
ATOM     34  C   UNL     1     -11.256   6.968 130.127  0.00  0.00    +0.000 C 
ATOM     35  C   UNL     1     -11.971   8.241 129.814  0.00  0.00    +0.000 C 
ATOM     36  C   UNL     1     -12.294   8.270 128.340  0.00  0.00    +0.000 C 
ATOM     37  N   UNL     1     -11.156   7.932 127.553  0.00  0.00    +0.000 N 
ATOM     38  C   UNL     1     -10.260   6.956 127.880  0.00  0.00    +0.000 C 
ATOM     39  O   UNL     1      -9.769   6.376 126.956  0.00  0.00    +0.000 OA
ATOM     40  H   UNL     1     -11.181   8.035 126.544  0.00  0.00    +0.000 HD
ENDBRANCH  32  33
BRANCH  32  42
ATOM     41  C   UNL     1      -6.953   7.104 131.007  0.00  0.00    +0.000 C 
ATOM     42  C   UNL     1      -8.360   6.473 131.005  0.00  0.00    +0.000 C 
ATOM     43  C   UNL     1      -8.605   5.523 132.147  0.00  0.00    +0.000 C 
ENDBRANCH  32  42
ENDBRANCH  28  32
ENDBRANCH  27  30
BRANCH  27  44
ATOM     44  C   UNL     1      -6.438   3.272 129.489  0.00  0.00    +0.000 C 
BRANCH  44  45
ATOM     45  C   UNL     1      -4.975   3.613 129.040  0.00  0.00    +0.000 A 
ATOM     46  C   UNL     1      -4.518   4.894 129.099  0.00  0.00    +0.000 A 
ATOM     47  C   UNL     1      -3.361   5.417 128.419  0.00  0.00    +0.000 A 
ATOM     48  C   UNL     1      -2.500   4.637 127.740  0.00  0.00    +0.000 A 
ATOM     49  C   UNL     1      -2.814   3.302 127.812  0.00  0.00    +0.000 A 
ATOM     50  C   UNL     1      -4.040   2.798 128.411  0.00  0.00    +0.000 A 
ENDBRANCH  44  45
ENDBRANCH  27  44
ENDBRANCH   1  27
TORSDOF 16
ENDMDL
MODEL 7
REMARK VINA RESULT:      -8.9      1.238      2.169
REMARK  Name = Lopinavir
REMARK  20 active torsions:
REMARK  status: ('A' for Active; 'I' for Inactive)
REMARK    1  A    between atoms: C_1  and  C_2
REMARK    2  A    between atoms: C_2  and  C_3
REMARK    3  A    between atoms: C_2  and  C_4
REMARK    4  A    between atoms: C_4  and  N_5
REMARK    5  A    between atoms: C_4  and  C_12
REMARK    6  A    between atoms: N_14  and  C_15
REMARK    7  A    between atoms: C_15  and  C_16
REMARK    8  A    between atoms: C_15  and  C_40
REMARK    9  A    between atoms: C_16  and  C_17
REMARK   10  A    between atoms: C_17  and  O_18
REMARK   11  A    between atoms: C_17  and  C_19
REMARK   12  A    between atoms: C_19  and  C_20
REMARK   13  A    between atoms: C_19  and  N_27
REMARK   14  A    between atoms: C_20  and  C_21
REMARK   15  A    between atoms: C_28  and  C_30
REMARK   16  A    between atoms: C_30  and  O_31
REMARK   17  A    between atoms: O_31  and  C_32
REMARK   18  A    between atoms: C_33  and  C_34
REMARK   19  A    between atoms: C_38  and  C_39
REMARK   20  A    between atoms: C_40  and  C_41
REMARK                            x       y       z     vdW  Elec       q    Type
REMARK                         _______ _______ _______ _____ _____    ______ ____
ROOT
ATOM      1  C   UNL     1      -6.158   4.573 125.401  0.00  0.00    +0.000 C 
ENDROOT
BRANCH   1   2
ATOM      2  C   UNL     1      -7.122   3.598 124.756  0.00  0.00    +0.000 C 
BRANCH   2   3
ATOM      3  O   UNL     1      -8.301   4.323 124.497  0.00  0.00    +0.000 OA
ATOM      4  H   UNL     1      -8.635   4.022 123.642  0.00  0.00    +0.000 HD
ENDBRANCH   2   3
BRANCH   2   5
ATOM      5  C   UNL     1      -6.764   2.778 123.509  0.00  0.00    +0.000 C 
BRANCH   5   6
ATOM      6  N   UNL     1      -6.825   1.330 123.857  0.00  0.00    +0.000 N 
ATOM      7  C   UNL     1      -8.033   0.693 124.139  0.00  0.00    +0.000 C 
ATOM      8  O   UNL     1      -9.075   1.293 124.389  0.00  0.00    +0.000 OA
ATOM      9  H   UNL     1      -5.983   0.773 123.796  0.00  0.00    +0.000 HD
BRANCH   7  10
ATOM     10  C   UNL     1      -8.039  -0.806 124.025  0.00  0.00    +0.000 C 
BRANCH  10  11
ATOM     11  O   UNL     1      -7.197  -1.379 125.017  0.00  0.00    +0.000 OA
BRANCH  11  12
ATOM     12  C   UNL     1      -7.729  -2.018 126.106  0.00  0.00    +0.000 A 
ATOM     13  C   UNL     1      -7.316  -1.532 127.370  0.00  0.00    +0.000 A 
ATOM     14  C   UNL     1      -6.628  -0.201 127.550  0.00  0.00    +0.000 C 
ATOM     15  C   UNL     1      -7.640  -2.255 128.532  0.00  0.00    +0.000 A 
ATOM     16  C   UNL     1      -8.461  -3.374 128.462  0.00  0.00    +0.000 A 
ATOM     17  C   UNL     1      -8.916  -3.816 127.227  0.00  0.00    +0.000 A 
ATOM     18  C   UNL     1      -8.549  -3.160 126.045  0.00  0.00    +0.000 A 
ATOM     19  C   UNL     1      -9.086  -3.739 124.778  0.00  0.00    +0.000 C 
ENDBRANCH  11  12
ENDBRANCH  10  11
ENDBRANCH   7  10
ENDBRANCH   5   6
BRANCH   5  20
ATOM     20  C   UNL     1      -7.563   3.183 122.237  0.00  0.00    +0.000 C 
BRANCH  20  21
ATOM     21  C   UNL     1      -6.837   3.866 121.075  0.00  0.00    +0.000 A 
ATOM     22  C   UNL     1      -5.517   4.327 121.075  0.00  0.00    +0.000 A 
ATOM     23  C   UNL     1      -5.036   5.180 120.071  0.00  0.00    +0.000 A 
ATOM     24  C   UNL     1      -5.775   5.441 118.950  0.00  0.00    +0.000 A 
ATOM     25  C   UNL     1      -6.984   4.791 118.813  0.00  0.00    +0.000 A 
ATOM     26  C   UNL     1      -7.524   4.038 119.871  0.00  0.00    +0.000 A 
ENDBRANCH  20  21
ENDBRANCH   5  20
ENDBRANCH   2   5
ENDBRANCH   1   2
BRANCH   1  27
ATOM     27  C   UNL     1      -6.145   4.153 126.904  0.00  0.00    +0.000 C 
BRANCH  27  30
ATOM     28  C   UNL     1      -7.947   3.202 128.338  0.00  0.00    +0.000 C 
ATOM     29  O   UNL     1      -8.898   2.431 128.175  0.00  0.00    +0.000 OA
ATOM     30  N   UNL     1      -7.212   3.273 127.197  0.00  0.00    +0.000 N 
ATOM     31  H   UNL     1      -7.475   2.577 126.509  0.00  0.00    +0.000 HD
BRANCH  28  32
ATOM     32  C   UNL     1      -7.671   4.120 129.690  0.00  0.00    +0.000 C 
BRANCH  32  33
ATOM     33  N   UNL     1      -8.919   4.881 130.141  0.00  0.00    +0.000 N 
ATOM     34  C   UNL     1      -8.723   6.311 130.482  0.00  0.00    +0.000 C 
ATOM     35  C   UNL     1     -10.014   7.061 130.485  0.00  0.00    +0.000 C 
ATOM     36  C   UNL     1     -10.982   6.363 131.409  0.00  0.00    +0.000 C 
ATOM     37  N   UNL     1     -11.023   4.963 131.155  0.00  0.00    +0.000 N 
ATOM     38  C   UNL     1      -9.928   4.203 130.863  0.00  0.00    +0.000 C 
ATOM     39  O   UNL     1      -9.963   3.074 131.259  0.00  0.00    +0.000 OA
ATOM     40  H   UNL     1     -11.721   4.380 131.605  0.00  0.00    +0.000 HD
ENDBRANCH  32  33
BRANCH  32  42
ATOM     41  C   UNL     1      -6.239   4.366 132.038  0.00  0.00    +0.000 C 
ATOM     42  C   UNL     1      -7.064   3.547 131.024  0.00  0.00    +0.000 C 
ATOM     43  C   UNL     1      -6.414   2.253 130.613  0.00  0.00    +0.000 C 
ENDBRANCH  32  42
ENDBRANCH  28  32
ENDBRANCH  27  30
BRANCH  27  44
ATOM     44  C   UNL     1      -4.681   3.620 127.543  0.00  0.00    +0.000 C 
BRANCH  44  45
ATOM     45  C   UNL     1      -3.621   4.470 128.324  0.00  0.00    +0.000 A 
ATOM     46  C   UNL     1      -3.398   4.246 129.649  0.00  0.00    +0.000 A 
ATOM     47  C   UNL     1      -2.738   5.141 130.563  0.00  0.00    +0.000 A 
ATOM     48  C   UNL     1      -2.128   6.271 130.165  0.00  0.00    +0.000 A 
ATOM     49  C   UNL     1      -2.159   6.447 128.803  0.00  0.00    +0.000 A 
ATOM     50  C   UNL     1      -2.917   5.593 127.902  0.00  0.00    +0.000 A 
ENDBRANCH  44  45
ENDBRANCH  27  44
ENDBRANCH   1  27
TORSDOF 16
ENDMDL
MODEL 8
REMARK VINA RESULT:      -8.8      2.288      4.107
REMARK  Name = Lopinavir
REMARK  20 active torsions:
REMARK  status: ('A' for Active; 'I' for Inactive)
REMARK    1  A    between atoms: C_1  and  C_2
REMARK    2  A    between atoms: C_2  and  C_3
REMARK    3  A    between atoms: C_2  and  C_4
REMARK    4  A    between atoms: C_4  and  N_5
REMARK    5  A    between atoms: C_4  and  C_12
REMARK    6  A    between atoms: N_14  and  C_15
REMARK    7  A    between atoms: C_15  and  C_16
REMARK    8  A    between atoms: C_15  and  C_40
REMARK    9  A    between atoms: C_16  and  C_17
REMARK   10  A    between atoms: C_17  and  O_18
REMARK   11  A    between atoms: C_17  and  C_19
REMARK   12  A    between atoms: C_19  and  C_20
REMARK   13  A    between atoms: C_19  and  N_27
REMARK   14  A    between atoms: C_20  and  C_21
REMARK   15  A    between atoms: C_28  and  C_30
REMARK   16  A    between atoms: C_30  and  O_31
REMARK   17  A    between atoms: O_31  and  C_32
REMARK   18  A    between atoms: C_33  and  C_34
REMARK   19  A    between atoms: C_38  and  C_39
REMARK   20  A    between atoms: C_40  and  C_41
REMARK                            x       y       z     vdW  Elec       q    Type
REMARK                         _______ _______ _______ _____ _____    ______ ____
ROOT
ATOM      1  C   UNL     1      -8.189   2.699 127.585  0.00  0.00    +0.000 C 
ENDROOT
BRANCH   1   2
ATOM      2  C   UNL     1      -7.480   3.875 126.946  0.00  0.00    +0.000 C 
BRANCH   2   3
ATOM      3  O   UNL     1      -7.201   4.780 127.988  0.00  0.00    +0.000 OA
ATOM      4  H   UNL     1      -7.548   4.389 128.800  0.00  0.00    +0.000 HD
ENDBRANCH   2   3
BRANCH   2   5
ATOM      5  C   UNL     1      -6.223   3.718 126.080  0.00  0.00    +0.000 C 
BRANCH   5   6
ATOM      6  N   UNL     1      -6.119   2.297 125.643  0.00  0.00    +0.000 N 
ATOM      7  C   UNL     1      -5.143   1.441 126.155  0.00  0.00    +0.000 C 
ATOM      8  O   UNL     1      -4.155   1.830 126.771  0.00  0.00    +0.000 OA
ATOM      9  H   UNL     1      -6.829   1.917 125.032  0.00  0.00    +0.000 HD
BRANCH   7  10
ATOM     10  C   UNL     1      -5.405  -0.031 126.006  0.00  0.00    +0.000 C 
BRANCH  10  11
ATOM     11  O   UNL     1      -6.296  -0.267 124.924  0.00  0.00    +0.000 OA
BRANCH  11  12
ATOM     12  C   UNL     1      -7.001  -1.439 124.838  0.00  0.00    +0.000 A 
ATOM     13  C   UNL     1      -8.302  -1.420 125.397  0.00  0.00    +0.000 A 
ATOM     14  C   UNL     1      -9.022  -0.142 125.752  0.00  0.00    +0.000 C 
ATOM     15  C   UNL     1      -9.012  -2.625 125.544  0.00  0.00    +0.000 A 
ATOM     16  C   UNL     1      -8.500  -3.813 125.038  0.00  0.00    +0.000 A 
ATOM     17  C   UNL     1      -7.250  -3.821 124.435  0.00  0.00    +0.000 A 
ATOM     18  C   UNL     1      -6.487  -2.650 124.340  0.00  0.00    +0.000 A 
ATOM     19  C   UNL     1      -5.151  -2.788 123.687  0.00  0.00    +0.000 C 
ENDBRANCH  11  12
ENDBRANCH  10  11
ENDBRANCH   7  10
ENDBRANCH   5   6
BRANCH   5  20
ATOM     20  C   UNL     1      -6.109   4.768 124.937  0.00  0.00    +0.000 C 
BRANCH  20  21
ATOM     21  C   UNL     1      -5.955   4.294 123.489  0.00  0.00    +0.000 A 
ATOM     22  C   UNL     1      -4.846   4.493 122.662  0.00  0.00    +0.000 A 
ATOM     23  C   UNL     1      -4.910   4.270 121.279  0.00  0.00    +0.000 A 
ATOM     24  C   UNL     1      -5.997   3.666 120.709  0.00  0.00    +0.000 A 
ATOM     25  C   UNL     1      -7.002   3.230 121.549  0.00  0.00    +0.000 A 
ATOM     26  C   UNL     1      -6.999   3.565 122.914  0.00  0.00    +0.000 A 
ENDBRANCH  20  21
ENDBRANCH   5  20
ENDBRANCH   2   5
ENDBRANCH   1   2
BRANCH   1  27
ATOM     27  C   UNL     1      -8.097   2.988 129.115  0.00  0.00    +0.000 C 
BRANCH  27  30
ATOM     28  C   UNL     1      -9.990   4.336 130.015  0.00  0.00    +0.000 C 
ATOM     29  O   UNL     1     -11.167   4.121 130.322  0.00  0.00    +0.000 OA
ATOM     30  N   UNL     1      -9.382   3.168 129.678  0.00  0.00    +0.000 N 
ATOM     31  H   UNL     1      -9.939   2.351 129.898  0.00  0.00    +0.000 HD
BRANCH  28  32
ATOM     32  C   UNL     1      -9.282   5.830 129.898  0.00  0.00    +0.000 C 
BRANCH  32  33
ATOM     33  N   UNL     1     -10.228   6.876 129.305  0.00  0.00    +0.000 N 
ATOM     34  C   UNL     1     -11.470   7.140 130.071  0.00  0.00    +0.000 C 
ATOM     35  C   UNL     1     -12.099   8.436 129.676  0.00  0.00    +0.000 C 
ATOM     36  C   UNL     1     -12.316   8.439 128.183  0.00  0.00    +0.000 C 
ATOM     37  N   UNL     1     -11.144   8.026 127.488  0.00  0.00    +0.000 N 
ATOM     38  C   UNL     1     -10.321   7.019 127.902  0.00  0.00    +0.000 C 
ATOM     39  O   UNL     1      -9.796   6.391 127.029  0.00  0.00    +0.000 OA
ATOM     40  H   UNL     1     -11.092   8.102 126.478  0.00  0.00    +0.000 HD
ENDBRANCH  32  33
BRANCH  32  42
ATOM     41  C   UNL     1      -7.112   6.981 131.157  0.00  0.00    +0.000 C 
ATOM     42  C   UNL     1      -8.596   6.568 131.107  0.00  0.00    +0.000 C 
ATOM     43  C   UNL     1      -9.060   5.806 132.320  0.00  0.00    +0.000 C 
ENDBRANCH  32  42
ENDBRANCH  28  32
ENDBRANCH  27  30
BRANCH  27  44
ATOM     44  C   UNL     1      -7.132   1.960 130.038  0.00  0.00    +0.000 C 
BRANCH  44  45
ATOM     45  C   UNL     1      -6.853   0.439 129.783  0.00  0.00    +0.000 A 
ATOM     46  C   UNL     1      -5.591  -0.059 129.903  0.00  0.00    +0.000 A 
ATOM     47  C   UNL     1      -5.120  -1.315 129.380  0.00  0.00    +0.000 A 
ATOM     48  C   UNL     1      -5.938  -2.224 128.818  0.00  0.00    +0.000 A 
ATOM     49  C   UNL     1      -7.258  -1.848 128.846  0.00  0.00    +0.000 A 
ATOM     50  C   UNL     1      -7.709  -0.536 129.281  0.00  0.00    +0.000 A 
ENDBRANCH  44  45
ENDBRANCH  27  44
ENDBRANCH   1  27
TORSDOF 16
ENDMDL
MODEL 9
REMARK VINA RESULT:      -8.8      2.094      8.030
REMARK  Name = Lopinavir
REMARK  20 active torsions:
REMARK  status: ('A' for Active; 'I' for Inactive)
REMARK    1  A    between atoms: C_1  and  C_2
REMARK    2  A    between atoms: C_2  and  C_3
REMARK    3  A    between atoms: C_2  and  C_4
REMARK    4  A    between atoms: C_4  and  N_5
REMARK    5  A    between atoms: C_4  and  C_12
REMARK    6  A    between atoms: N_14  and  C_15
REMARK    7  A    between atoms: C_15  and  C_16
REMARK    8  A    between atoms: C_15  and  C_40
REMARK    9  A    between atoms: C_16  and  C_17
REMARK   10  A    between atoms: C_17  and  O_18
REMARK   11  A    between atoms: C_17  and  C_19
REMARK   12  A    between atoms: C_19  and  C_20
REMARK   13  A    between atoms: C_19  and  N_27
REMARK   14  A    between atoms: C_20  and  C_21
REMARK   15  A    between atoms: C_28  and  C_30
REMARK   16  A    between atoms: C_30  and  O_31
REMARK   17  A    between atoms: O_31  and  C_32
REMARK   18  A    between atoms: C_33  and  C_34
REMARK   19  A    between atoms: C_38  and  C_39
REMARK   20  A    between atoms: C_40  and  C_41
REMARK                            x       y       z     vdW  Elec       q    Type
REMARK                         _______ _______ _______ _____ _____    ______ ____
ROOT
ATOM      1  C   UNL     1      -5.523   3.974 124.499  0.00  0.00    +0.000 C 
ENDROOT
BRANCH   1   2
ATOM      2  C   UNL     1      -5.236   3.652 125.952  0.00  0.00    +0.000 C 
BRANCH   2   3
ATOM      3  O   UNL     1      -4.006   2.968 125.967  0.00  0.00    +0.000 OA
ATOM      4  H   UNL     1      -3.742   2.842 125.047  0.00  0.00    +0.000 HD
ENDBRANCH   2   3
BRANCH   2   5
ATOM      5  C   UNL     1      -5.220   4.722 127.052  0.00  0.00    +0.000 C 
BRANCH   5   6
ATOM      6  N   UNL     1      -6.124   4.286 128.154  0.00  0.00    +0.000 N 
ATOM      7  C   UNL     1      -7.508   4.231 127.989  0.00  0.00    +0.000 C 
ATOM      8  O   UNL     1      -8.104   4.773 127.063  0.00  0.00    +0.000 OA
ATOM      9  H   UNL     1      -5.720   3.933 129.011  0.00  0.00    +0.000 HD
BRANCH   7  10
ATOM     10  C   UNL     1      -8.260   3.370 128.966  0.00  0.00    +0.000 C 
BRANCH  10  11
ATOM     11  O   UNL     1      -7.429   3.034 130.069  0.00  0.00    +0.000 OA
BRANCH  11  12
ATOM     12  C   UNL     1      -7.803   3.343 131.350  0.00  0.00    +0.000 A 
ATOM     13  C   UNL     1      -8.664   2.415 131.983  0.00  0.00    +0.000 A 
ATOM     14  C   UNL     1      -8.891   1.018 131.458  0.00  0.00    +0.000 C 
ATOM     15  C   UNL     1      -9.266   2.750 133.210  0.00  0.00    +0.000 A 
ATOM     16  C   UNL     1      -8.931   3.931 133.862  0.00  0.00    +0.000 A 
ATOM     17  C   UNL     1      -8.040   4.814 133.268  0.00  0.00    +0.000 A 
ATOM     18  C   UNL     1      -7.481   4.542 132.014  0.00  0.00    +0.000 A 
ATOM     19  C   UNL     1      -6.550   5.575 131.471  0.00  0.00    +0.000 C 
ENDBRANCH  11  12
ENDBRANCH  10  11
ENDBRANCH   7  10
ENDBRANCH   5   6
BRANCH   5  20
ATOM     20  C   UNL     1      -3.791   5.144 127.500  0.00  0.00    +0.000 C 
BRANCH  20  21
ATOM     21  C   UNL     1      -3.587   5.767 128.884  0.00  0.00    +0.000 A 
ATOM     22  C   UNL     1      -3.940   7.063 129.273  0.00  0.00    +0.000 A 
ATOM     23  C   UNL     1      -3.464   7.628 130.464  0.00  0.00    +0.000 A 
ATOM     24  C   UNL     1      -2.793   6.873 131.387  0.00  0.00    +0.000 A 
ATOM     25  C   UNL     1      -2.653   5.524 131.133  0.00  0.00    +0.000 A 
ATOM     26  C   UNL     1      -3.016   4.982 129.888  0.00  0.00    +0.000 A 
ENDBRANCH  20  21
ENDBRANCH   5  20
ENDBRANCH   2   5
ENDBRANCH   1   2
BRANCH   1  27
ATOM     27  C   UNL     1      -6.364   2.758 124.001  0.00  0.00    +0.000 C 
BRANCH  27  30
ATOM     28  C   UNL     1      -8.314   1.536 124.957  0.00  0.00    +0.000 C 
ATOM     29  O   UNL     1      -9.225   1.797 125.749  0.00  0.00    +0.000 OA
ATOM     30  N   UNL     1      -7.581   2.654 124.714  0.00  0.00    +0.000 N 
ATOM     31  H   UNL     1      -8.007   3.497 125.081  0.00  0.00    +0.000 HD
BRANCH  28  32
ATOM     32  C   UNL     1      -7.946   0.028 124.375  0.00  0.00    +0.000 C 
BRANCH  32  33
ATOM     33  N   UNL     1      -7.452  -0.915 125.474  0.00  0.00    +0.000 N 
ATOM     34  C   UNL     1      -8.493  -1.474 126.371  0.00  0.00    +0.000 C 
ATOM     35  C   UNL     1      -8.003  -2.678 127.105  0.00  0.00    +0.000 C 
ATOM     36  C   UNL     1      -6.730  -2.322 127.832  0.00  0.00    +0.000 C 
ATOM     37  N   UNL     1      -5.816  -1.644 126.976  0.00  0.00    +0.000 N 
ATOM     38  C   UNL     1      -6.180  -0.706 126.055  0.00  0.00    +0.000 C 
ATOM     39  O   UNL     1      -5.383   0.167 125.865  0.00  0.00    +0.000 OA
ATOM     40  H   UNL     1      -4.867  -1.458 127.282  0.00  0.00    +0.000 HD
ENDBRANCH  32  33
BRANCH  32  42
ATOM     41  C   UNL     1      -8.549  -2.113 122.739  0.00  0.00    +0.000 C 
ATOM     42  C   UNL     1      -8.943  -0.850 123.532  0.00  0.00    +0.000 C 
ATOM     43  C   UNL     1      -9.735   0.150 122.733  0.00  0.00    +0.000 C 
ENDBRANCH  32  42
ENDBRANCH  28  32
ENDBRANCH  27  30
BRANCH  27  44
ATOM     44  C   UNL     1      -6.580   2.598 122.338  0.00  0.00    +0.000 C 
BRANCH  44  45
ATOM     45  C   UNL     1      -6.436   3.718 121.251  0.00  0.00    +0.000 A 
ATOM     46  C   UNL     1      -7.432   3.935 120.349  0.00  0.00    +0.000 A 
ATOM     47  C   UNL     1      -7.314   4.661 119.111  0.00  0.00    +0.000 A 
ATOM     48  C   UNL     1      -6.207   5.342 118.767  0.00  0.00    +0.000 A 
ATOM     49  C   UNL     1      -5.235   5.312 119.737  0.00  0.00    +0.000 A 
ATOM     50  C   UNL     1      -5.324   4.491 120.935  0.00  0.00    +0.000 A 
ENDBRANCH  44  45
ENDBRANCH  27  44
ENDBRANCH   1  27
TORSDOF 16
ENDMDL
