MODEL 1
REMARK VINA RESULT:      -7.8      0.000      0.000
REMARK  Name = Lorazepam
REMARK  2 active torsions:
REMARK  status: ('A' for Active; 'I' for Inactive)
REMARK    1  A    between atoms: O_1  and  C_2
REMARK    2  A    between atoms: C_4  and  C_5
REMARK                            x       y       z     vdW  Elec       q    Type
REMARK                         _______ _______ _______ _____ _____    ______ ____
ROOT
ATOM      1  C   UNL     1      -7.938   4.644 125.650  0.00  0.00    +0.000 C 
ATOM      2  N   UNL     1      -8.494   3.390 125.131  0.00  0.00    +0.000 NA
ATOM      3  C   UNL     1      -8.054   2.915 124.012  0.00  0.00    +0.000 C 
ATOM      4  C   UNL     1      -7.054   3.577 123.120  0.00  0.00    +0.000 A 
ATOM      5  C   UNL     1      -5.873   4.148 123.620  0.00  0.00    +0.000 A 
ATOM      6  N   UNL     1      -5.561   4.226 124.980  0.00  0.00    +0.000 N 
ATOM      7  C   UNL     1      -6.440   4.437 126.011  0.00  0.00    +0.000 C 
ATOM      8  O   UNL     1      -5.968   4.569 127.149  0.00  0.00    +0.000 OA
ATOM      9  C   UNL     1      -4.910   4.636 122.728  0.00  0.00    +0.000 A 
ATOM     10  C   UNL     1      -5.128   4.580 121.351  0.00  0.00    +0.000 A 
ATOM     11  C   UNL     1      -6.286   3.989 120.858  0.00  0.00    +0.000 A 
ATOM     12 CL   UNL     1      -6.536   3.871 119.162  0.00  0.00    +0.000 Cl
ATOM     13  C   UNL     1      -7.244   3.482 121.731  0.00  0.00    +0.000 A 
ATOM     14  H   UNL     1      -4.592   4.290 125.271  0.00  0.00    +0.000 HD
ENDROOT
BRANCH   3  15
ATOM     15  C   UNL     1      -8.564   1.574 123.577  0.00  0.00    +0.000 A 
ATOM     16  C   UNL     1      -9.776   1.494 122.874  0.00  0.00    +0.000 A 
ATOM     17  C   UNL     1     -10.299   0.242 122.530  0.00  0.00    +0.000 A 
ATOM     18  C   UNL     1      -9.571  -0.918 122.792  0.00  0.00    +0.000 A 
ATOM     19  C   UNL     1      -8.322  -0.833 123.404  0.00  0.00    +0.000 A 
ATOM     20  C   UNL     1      -7.847   0.399 123.856  0.00  0.00    +0.000 A 
ATOM     21 CL   UNL     1      -6.403   0.371 124.808  0.00  0.00    +0.000 Cl
ENDBRANCH   3  15
BRANCH   1  22
ATOM     22  O   UNL     1      -8.648   5.145 126.771  0.00  0.00    +0.000 OA
ATOM     23  H   UNL     1      -9.453   4.610 126.815  0.00  0.00    +0.000 HD
ENDBRANCH   1  22
TORSDOF 2
ENDMDL
MODEL 2
REMARK VINA RESULT:      -7.2      1.382      1.781
REMARK  Name = Lorazepam
REMARK  2 active torsions:
REMARK  status: ('A' for Active; 'I' for Inactive)
REMARK    1  A    between atoms: O_1  and  C_2
REMARK    2  A    between atoms: C_4  and  C_5
REMARK                            x       y       z     vdW  Elec       q    Type
REMARK                         _______ _______ _______ _____ _____    ______ ____
ROOT
ATOM      1  C   UNL     1      -7.611   3.442 126.211  0.00  0.00    +0.000 C 
ATOM      2  N   UNL     1      -7.949   2.175 125.555  0.00  0.00    +0.000 NA
ATOM      3  C   UNL     1      -7.552   1.961 124.344  0.00  0.00    +0.000 C 
ATOM      4  C   UNL     1      -6.821   2.941 123.483  0.00  0.00    +0.000 A 
ATOM      5  C   UNL     1      -5.736   3.690 123.964  0.00  0.00    +0.000 A 
ATOM      6  N   UNL     1      -5.292   3.656 125.289  0.00  0.00    +0.000 N 
ATOM      7  C   UNL     1      -6.071   3.529 126.410  0.00  0.00    +0.000 C 
ATOM      8  O   UNL     1      -5.509   3.613 127.511  0.00  0.00    +0.000 OA
ATOM      9  C   UNL     1      -5.005   4.493 123.079  0.00  0.00    +0.000 A 
ATOM     10  C   UNL     1      -5.363   4.571 121.733  0.00  0.00    +0.000 A 
ATOM     11  C   UNL     1      -6.422   3.807 121.255  0.00  0.00    +0.000 A 
ATOM     12 CL   UNL     1      -6.836   3.859 119.587  0.00  0.00    +0.000 Cl
ATOM     13  C   UNL     1      -7.147   2.989 122.117  0.00  0.00    +0.000 A 
ATOM     14  H   UNL     1      -4.331   3.896 125.504  0.00  0.00    +0.000 HD
ENDROOT
BRANCH   3  15
ATOM     15  C   UNL     1      -7.817   0.609 123.753  0.00  0.00    +0.000 A 
ATOM     16  C   UNL     1      -6.744  -0.268 123.532  0.00  0.00    +0.000 A 
ATOM     17  C   UNL     1      -6.970  -1.501 122.910  0.00  0.00    +0.000 A 
ATOM     18  C   UNL     1      -8.269  -1.903 122.602  0.00  0.00    +0.000 A 
ATOM     19  C   UNL     1      -9.345  -1.074 122.908  0.00  0.00    +0.000 A 
ATOM     20  C   UNL     1      -9.121   0.205 123.420  0.00  0.00    +0.000 A 
ATOM     21 CL   UNL     1     -10.498   1.244 123.545  0.00  0.00    +0.000 Cl
ENDBRANCH   3  15
BRANCH   1  22
ATOM     22  O   UNL     1      -8.276   3.621 127.452  0.00  0.00    +0.000 OA
ATOM     23  H   UNL     1      -8.216   2.761 127.892  0.00  0.00    +0.000 HD
ENDBRANCH   1  22
TORSDOF 2
ENDMDL
MODEL 3
REMARK VINA RESULT:      -7.2      2.653      4.835
REMARK  Name = Lorazepam
REMARK  2 active torsions:
REMARK  status: ('A' for Active; 'I' for Inactive)
REMARK    1  A    between atoms: O_1  and  C_2
REMARK    2  A    between atoms: C_4  and  C_5
REMARK                            x       y       z     vdW  Elec       q    Type
REMARK                         _______ _______ _______ _____ _____    ______ ____
ROOT
ATOM      1  C   UNL     1      -8.362   0.270 124.378  0.00  0.00    +0.000 C 
ATOM      2  N   UNL     1      -7.357   1.045 125.113  0.00  0.00    +0.000 NA
ATOM      3  C   UNL     1      -6.875   2.122 124.586  0.00  0.00    +0.000 C 
ATOM      4  C   UNL     1      -7.191   2.637 123.218  0.00  0.00    +0.000 A 
ATOM      5  C   UNL     1      -8.506   2.698 122.731  0.00  0.00    +0.000 A 
ATOM      6  N   UNL     1      -9.618   2.218 123.430  0.00  0.00    +0.000 N 
ATOM      7  C   UNL     1      -9.663   1.110 124.236  0.00  0.00    +0.000 C 
ATOM      8  O   UNL     1     -10.764   0.783 124.701  0.00  0.00    +0.000 OA
ATOM      9  C   UNL     1      -8.759   3.312 121.498  0.00  0.00    +0.000 A 
ATOM     10  C   UNL     1      -7.711   3.838 120.742  0.00  0.00    +0.000 A 
ATOM     11  C   UNL     1      -6.413   3.800 121.239  0.00  0.00    +0.000 A 
ATOM     12 CL   UNL     1      -5.125   4.493 120.336  0.00  0.00    +0.000 Cl
ATOM     13  C   UNL     1      -6.148   3.211 122.472  0.00  0.00    +0.000 A 
ATOM     14  H   UNL     1     -10.537   2.600 123.236  0.00  0.00    +0.000 HD
ENDROOT
BRANCH   3  15
ATOM     15  C   UNL     1      -5.939   2.946 125.417  0.00  0.00    +0.000 A 
ATOM     16  C   UNL     1      -4.691   2.414 125.780  0.00  0.00    +0.000 A 
ATOM     17  C   UNL     1      -3.842   3.144 126.619  0.00  0.00    +0.000 A 
ATOM     18  C   UNL     1      -4.186   4.437 127.013  0.00  0.00    +0.000 A 
ATOM     19  C   UNL     1      -5.382   5.003 126.575  0.00  0.00    +0.000 A 
ATOM     20  C   UNL     1      -6.287   4.241 125.835  0.00  0.00    +0.000 A 
ATOM     21 CL   UNL     1      -7.837   4.948 125.540  0.00  0.00    +0.000 Cl
ENDBRANCH   3  15
BRANCH   1  22
ATOM     22  O   UNL     1      -8.651  -0.982 124.982  0.00  0.00    +0.000 OA
ATOM     23  H   UNL     1      -9.416  -1.321 124.497  0.00  0.00    +0.000 HD
ENDBRANCH   1  22
TORSDOF 2
ENDMDL
MODEL 4
REMARK VINA RESULT:      -7.0      4.600      6.538
REMARK  Name = Lorazepam
REMARK  2 active torsions:
REMARK  status: ('A' for Active; 'I' for Inactive)
REMARK    1  A    between atoms: O_1  and  C_2
REMARK    2  A    between atoms: C_4  and  C_5
REMARK                            x       y       z     vdW  Elec       q    Type
REMARK                         _______ _______ _______ _____ _____    ______ ____
ROOT
ATOM      1  C   UNL     1      -9.208  -0.400 125.426  0.00  0.00    +0.000 C 
ATOM      2  N   UNL     1      -8.507  -0.939 126.596  0.00  0.00    +0.000 NA
ATOM      3  C   UNL     1      -7.407  -1.597 126.429  0.00  0.00    +0.000 C 
ATOM      4  C   UNL     1      -6.793  -1.944 125.111  0.00  0.00    +0.000 A 
ATOM      5  C   UNL     1      -6.671  -1.005 124.076  0.00  0.00    +0.000 A 
ATOM      6  N   UNL     1      -7.174   0.298 124.143  0.00  0.00    +0.000 N 
ATOM      7  C   UNL     1      -8.334   0.697 124.757  0.00  0.00    +0.000 C 
ATOM      8  O   UNL     1      -8.668   1.884 124.634  0.00  0.00    +0.000 OA
ATOM      9  C   UNL     1      -5.969  -1.344 122.912  0.00  0.00    +0.000 A 
ATOM     10  C   UNL     1      -5.414  -2.616 122.767  0.00  0.00    +0.000 A 
ATOM     11  C   UNL     1      -5.513  -3.536 123.805  0.00  0.00    +0.000 A 
ATOM     12 CL   UNL     1      -4.787  -5.086 123.653  0.00  0.00    +0.000 Cl
ATOM     13  C   UNL     1      -6.191  -3.207 124.976  0.00  0.00    +0.000 A 
ATOM     14  H   UNL     1      -6.761   1.027 123.573  0.00  0.00    +0.000 HD
ENDROOT
BRANCH   3  15
ATOM     15  C   UNL     1      -6.661  -2.030 127.655  0.00  0.00    +0.000 A 
ATOM     16  C   UNL     1      -5.400  -1.474 127.925  0.00  0.00    +0.000 A 
ATOM     17  C   UNL     1      -4.663  -1.926 129.025  0.00  0.00    +0.000 A 
ATOM     18  C   UNL     1      -5.217  -2.851 129.910  0.00  0.00    +0.000 A 
ATOM     19  C   UNL     1      -6.507  -3.332 129.695  0.00  0.00    +0.000 A 
ATOM     20  C   UNL     1      -7.203  -2.977 128.540  0.00  0.00    +0.000 A 
ATOM     21 CL   UNL     1      -8.693  -3.805 128.246  0.00  0.00    +0.000 Cl
ENDBRANCH   3  15
BRANCH   1  22
ATOM     22  O   UNL     1     -10.492   0.119 125.738  0.00  0.00    +0.000 OA
ATOM     23  H   UNL     1     -10.835  -0.466 126.429  0.00  0.00    +0.000 HD
ENDBRANCH   1  22
TORSDOF 2
ENDMDL
MODEL 5
REMARK VINA RESULT:      -7.0      4.341      6.510
REMARK  Name = Lorazepam
REMARK  2 active torsions:
REMARK  status: ('A' for Active; 'I' for Inactive)
REMARK    1  A    between atoms: O_1  and  C_2
REMARK    2  A    between atoms: C_4  and  C_5
REMARK                            x       y       z     vdW  Elec       q    Type
REMARK                         _______ _______ _______ _____ _____    ______ ____
ROOT
ATOM      1  C   UNL     1      -9.368  -2.666 124.460  0.00  0.00    +0.000 C 
ATOM      2  N   UNL     1      -9.126  -1.396 123.769  0.00  0.00    +0.000 NA
ATOM      3  C   UNL     1      -8.635  -0.398 124.428  0.00  0.00    +0.000 C 
ATOM      4  C   UNL     1      -8.348  -0.382 125.895  0.00  0.00    +0.000 A 
ATOM      5  C   UNL     1      -7.690  -1.443 126.537  0.00  0.00    +0.000 A 
ATOM      6  N   UNL     1      -7.318  -2.630 125.898  0.00  0.00    +0.000 N 
ATOM      7  C   UNL     1      -8.012  -3.279 124.910  0.00  0.00    +0.000 C 
ATOM      8  O   UNL     1      -7.573  -4.373 124.526  0.00  0.00    +0.000 OA
ATOM      9  C   UNL     1      -7.328  -1.318 127.884  0.00  0.00    +0.000 A 
ATOM     10  C   UNL     1      -7.640  -0.159 128.596  0.00  0.00    +0.000 A 
ATOM     11  C   UNL     1      -8.268   0.900 127.950  0.00  0.00    +0.000 A 
ATOM     12 CL   UNL     1      -8.609   2.350 128.809  0.00  0.00    +0.000 Cl
ATOM     13  C   UNL     1      -8.617   0.800 126.607  0.00  0.00    +0.000 A 
ATOM     14  H   UNL     1      -6.552  -3.181 126.267  0.00  0.00    +0.000 HD
ENDROOT
BRANCH   3  15
ATOM     15  C   UNL     1      -8.293   0.843 123.660  0.00  0.00    +0.000 A 
ATOM     16  C   UNL     1      -6.946   1.198 123.490  0.00  0.00    +0.000 A 
ATOM     17  C   UNL     1      -6.619   2.394 122.841  0.00  0.00    +0.000 A 
ATOM     18  C   UNL     1      -7.621   3.182 122.276  0.00  0.00    +0.000 A 
ATOM     19  C   UNL     1      -8.952   2.782 122.361  0.00  0.00    +0.000 A 
ATOM     20  C   UNL     1      -9.298   1.654 123.106  0.00  0.00    +0.000 A 
ATOM     21 CL   UNL     1     -10.987   1.372 123.350  0.00  0.00    +0.000 Cl
ENDBRANCH   3  15
BRANCH   1  22
ATOM     22  O   UNL     1     -10.090  -3.600 123.672  0.00  0.00    +0.000 OA
ATOM     23  H   UNL     1     -10.671  -3.060 123.118  0.00  0.00    +0.000 HD
ENDBRANCH   1  22
TORSDOF 2
ENDMDL
MODEL 6
REMARK VINA RESULT:      -6.9      6.907      7.912
REMARK  Name = Lorazepam
REMARK  2 active torsions:
REMARK  status: ('A' for Active; 'I' for Inactive)
REMARK    1  A    between atoms: O_1  and  C_2
REMARK    2  A    between atoms: C_4  and  C_5
REMARK                            x       y       z     vdW  Elec       q    Type
REMARK                         _______ _______ _______ _____ _____    ______ ____
ROOT
ATOM      1  C   UNL     1     -10.760   5.464 129.855  0.00  0.00    +0.000 C 
ATOM      2  N   UNL     1     -10.336   4.069 130.015  0.00  0.00    +0.000 NA
ATOM      3  C   UNL     1      -9.106   3.810 130.317  0.00  0.00    +0.000 C 
ATOM      4  C   UNL     1      -8.013   4.821 130.451  0.00  0.00    +0.000 A 
ATOM      5  C   UNL     1      -8.188   6.018 131.160  0.00  0.00    +0.000 A 
ATOM      6  N   UNL     1      -9.401   6.415 131.732  0.00  0.00    +0.000 N 
ATOM      7  C   UNL     1     -10.655   6.198 131.222  0.00  0.00    +0.000 C 
ATOM      8  O   UNL     1     -11.614   6.705 131.822  0.00  0.00    +0.000 OA
ATOM      9  C   UNL     1      -7.093   6.866 131.368  0.00  0.00    +0.000 A 
ATOM     10  C   UNL     1      -5.838   6.540 130.852  0.00  0.00    +0.000 A 
ATOM     11  C   UNL     1      -5.661   5.340 130.172  0.00  0.00    +0.000 A 
ATOM     12 CL   UNL     1      -4.106   4.909 129.579  0.00  0.00    +0.000 Cl
ATOM     13  C   UNL     1      -6.735   4.477 129.975  0.00  0.00    +0.000 A 
ATOM     14  H   UNL     1      -9.402   7.056 132.516  0.00  0.00    +0.000 HD
ENDROOT
BRANCH   3  15
ATOM     15  C   UNL     1      -8.741   2.381 130.585  0.00  0.00    +0.000 A 
ATOM     16  C   UNL     1      -8.369   1.553 129.514  0.00  0.00    +0.000 A 
ATOM     17  C   UNL     1      -8.100   0.199 129.743  0.00  0.00    +0.000 A 
ATOM     18  C   UNL     1      -8.101  -0.307 131.043  0.00  0.00    +0.000 A 
ATOM     19  C   UNL     1      -8.377   0.537 132.117  0.00  0.00    +0.000 A 
ATOM     20  C   UNL     1      -8.760   1.859 131.889  0.00  0.00    +0.000 A 
ATOM     21 CL   UNL     1      -9.308   2.756 133.263  0.00  0.00    +0.000 Cl
ENDBRANCH   3  15
BRANCH   1  22
ATOM     22  O   UNL     1     -12.073   5.589 129.331  0.00  0.00    +0.000 OA
ATOM     23  H   UNL     1     -12.641   5.694 130.107  0.00  0.00    +0.000 HD
ENDBRANCH   1  22
TORSDOF 2
ENDMDL
MODEL 7
REMARK VINA RESULT:      -6.8      7.907     10.203
REMARK  Name = Lorazepam
REMARK  2 active torsions:
REMARK  status: ('A' for Active; 'I' for Inactive)
REMARK    1  A    between atoms: O_1  and  C_2
REMARK    2  A    between atoms: C_4  and  C_5
REMARK                            x       y       z     vdW  Elec       q    Type
REMARK                         _______ _______ _______ _____ _____    ______ ____
ROOT
ATOM      1  C   UNL     1      -8.885   7.041 130.489  0.00  0.00    +0.000 C 
ATOM      2  N   UNL     1      -7.423   6.967 130.398  0.00  0.00    +0.000 NA
ATOM      3  C   UNL     1      -6.763   6.315 131.298  0.00  0.00    +0.000 C 
ATOM      4  C   UNL     1      -7.353   5.670 132.511  0.00  0.00    +0.000 A 
ATOM      5  C   UNL     1      -8.513   4.884 132.447  0.00  0.00    +0.000 A 
ATOM      6  N   UNL     1      -9.263   4.696 131.282  0.00  0.00    +0.000 N 
ATOM      7  C   UNL     1      -9.490   5.623 130.297  0.00  0.00    +0.000 C 
ATOM      8  O   UNL     1     -10.260   5.306 129.379  0.00  0.00    +0.000 OA
ATOM      9  C   UNL     1      -8.946   4.194 133.587  0.00  0.00    +0.000 A 
ATOM     10  C   UNL     1      -8.246   4.305 134.789  0.00  0.00    +0.000 A 
ATOM     11  C   UNL     1      -7.082   5.063 134.843  0.00  0.00    +0.000 A 
ATOM     12 CL   UNL     1      -6.187   5.162 136.307  0.00  0.00    +0.000 Cl
ATOM     13  C   UNL     1      -6.628   5.739 133.713  0.00  0.00    +0.000 A 
ATOM     14  H   UNL     1      -9.839   3.868 131.182  0.00  0.00    +0.000 HD
ENDROOT
BRANCH   3  15
ATOM     15  C   UNL     1      -5.284   6.164 131.105  0.00  0.00    +0.000 A 
ATOM     16  C   UNL     1      -4.445   7.267 131.330  0.00  0.00    +0.000 A 
ATOM     17  C   UNL     1      -3.073   7.158 131.079  0.00  0.00    +0.000 A 
ATOM     18  C   UNL     1      -2.522   5.932 130.705  0.00  0.00    +0.000 A 
ATOM     19  C   UNL     1      -3.342   4.813 130.574  0.00  0.00    +0.000 A 
ATOM     20  C   UNL     1      -4.725   4.939 130.708  0.00  0.00    +0.000 A 
ATOM     21 CL   UNL     1      -5.673   3.551 130.297  0.00  0.00    +0.000 Cl
ENDBRANCH   3  15
BRANCH   1  22
ATOM     22  O   UNL     1      -9.454   7.948 129.558  0.00  0.00    +0.000 OA
ATOM     23  H   UNL     1     -10.213   7.477 129.185  0.00  0.00    +0.000 HD
ENDBRANCH   1  22
TORSDOF 2
ENDMDL
MODEL 8
REMARK VINA RESULT:      -6.8      3.569      5.037
REMARK  Name = Lorazepam
REMARK  2 active torsions:
REMARK  status: ('A' for Active; 'I' for Inactive)
REMARK    1  A    between atoms: O_1  and  C_2
REMARK    2  A    between atoms: C_4  and  C_5
REMARK                            x       y       z     vdW  Elec       q    Type
REMARK                         _______ _______ _______ _____ _____    ______ ____
ROOT
ATOM      1  C   UNL     1      -9.218   0.184 123.405  0.00  0.00    +0.000 C 
ATOM      2  N   UNL     1      -8.527  -0.526 124.486  0.00  0.00    +0.000 NA
ATOM      3  C   UNL     1      -7.726   0.126 125.264  0.00  0.00    +0.000 C 
ATOM      4  C   UNL     1      -7.361   1.569 125.121  0.00  0.00    +0.000 A 
ATOM      5  C   UNL     1      -8.323   2.561 124.878  0.00  0.00    +0.000 A 
ATOM      6  N   UNL     1      -9.680   2.296 124.669  0.00  0.00    +0.000 N 
ATOM      7  C   UNL     1     -10.210   1.216 124.012  0.00  0.00    +0.000 C 
ATOM      8  O   UNL     1     -11.437   1.195 123.842  0.00  0.00    +0.000 OA
ATOM      9  C   UNL     1      -7.944   3.909 124.887  0.00  0.00    +0.000 A 
ATOM     10  C   UNL     1      -6.613   4.269 125.109  0.00  0.00    +0.000 A 
ATOM     11  C   UNL     1      -5.668   3.285 125.376  0.00  0.00    +0.000 A 
ATOM     12 CL   UNL     1      -4.038   3.725 125.702  0.00  0.00    +0.000 Cl
ATOM     13  C   UNL     1      -6.033   1.942 125.391  0.00  0.00    +0.000 A 
ATOM     14  H   UNL     1     -10.369   3.012 124.868  0.00  0.00    +0.000 HD
ENDROOT
BRANCH   3  15
ATOM     15  C   UNL     1      -7.131  -0.609 126.426  0.00  0.00    +0.000 A 
ATOM     16  C   UNL     1      -7.653  -0.400 127.712  0.00  0.00    +0.000 A 
ATOM     17  C   UNL     1      -7.056  -1.023 128.814  0.00  0.00    +0.000 A 
ATOM     18  C   UNL     1      -6.011  -1.927 128.628  0.00  0.00    +0.000 A 
ATOM     19  C   UNL     1      -5.555  -2.208 127.342  0.00  0.00    +0.000 A 
ATOM     20  C   UNL     1      -6.064  -1.505 126.250  0.00  0.00    +0.000 A 
ATOM     21 CL   UNL     1      -5.274  -1.753 124.731  0.00  0.00    +0.000 Cl
ENDBRANCH   3  15
BRANCH   1  22
ATOM     22  O   UNL     1      -9.901  -0.687 122.516  0.00  0.00    +0.000 OA
ATOM     23  H   UNL     1     -10.786  -0.307 122.427  0.00  0.00    +0.000 HD
ENDBRANCH   1  22
TORSDOF 2
ENDMDL
MODEL 9
REMARK VINA RESULT:      -6.7      6.864      8.858
REMARK  Name = Lorazepam
REMARK  2 active torsions:
REMARK  status: ('A' for Active; 'I' for Inactive)
REMARK    1  A    between atoms: O_1  and  C_2
REMARK    2  A    between atoms: C_4  and  C_5
REMARK                            x       y       z     vdW  Elec       q    Type
REMARK                         _______ _______ _______ _____ _____    ______ ____
ROOT
ATOM      1  C   UNL     1     -10.415   5.611 130.175  0.00  0.00    +0.000 C 
ATOM      2  N   UNL     1     -10.040   4.199 130.052  0.00  0.00    +0.000 NA
ATOM      3  C   UNL     1      -9.179   3.697 130.875  0.00  0.00    +0.000 C 
ATOM      4  C   UNL     1      -8.440   4.456 131.930  0.00  0.00    +0.000 A 
ATOM      5  C   UNL     1      -9.084   5.366 132.781  0.00  0.00    +0.000 A 
ATOM      6  N   UNL     1     -10.436   5.707 132.678  0.00  0.00    +0.000 N 
ATOM      7  C   UNL     1     -11.161   5.835 131.521  0.00  0.00    +0.000 C 
ATOM      8  O   UNL     1     -12.329   6.237 131.618  0.00  0.00    +0.000 OA
ATOM      9  C   UNL     1      -8.371   5.948 133.837  0.00  0.00    +0.000 A 
ATOM     10  C   UNL     1      -7.022   5.649 134.030  0.00  0.00    +0.000 A 
ATOM     11  C   UNL     1      -6.394   4.726 133.201  0.00  0.00    +0.000 A 
ATOM     12 CL   UNL     1      -4.746   4.315 133.466  0.00  0.00    +0.000 Cl
ATOM     13  C   UNL     1      -7.093   4.124 132.160  0.00  0.00    +0.000 A 
ATOM     14  H   UNL     1     -10.932   6.050 133.492  0.00  0.00    +0.000 HD
ENDROOT
BRANCH   3  15
ATOM     15  C   UNL     1      -8.911   2.224 130.790  0.00  0.00    +0.000 A 
ATOM     16  C   UNL     1      -9.402   1.377 131.796  0.00  0.00    +0.000 A 
ATOM     17  C   UNL     1      -9.093   0.013 131.767  0.00  0.00    +0.000 A 
ATOM     18  C   UNL     1      -8.386  -0.525 130.691  0.00  0.00    +0.000 A 
ATOM     19  C   UNL     1      -7.980   0.300 129.645  0.00  0.00    +0.000 A 
ATOM     20  C   UNL     1      -8.181   1.679 129.721  0.00  0.00    +0.000 A 
ATOM     21 CL   UNL     1      -7.437   2.641 128.491  0.00  0.00    +0.000 Cl
ENDBRANCH   3  15
BRANCH   1  22
ATOM     22  O   UNL     1     -11.209   6.072 129.092  0.00  0.00    +0.000 OA
ATOM     23  H   UNL     1     -11.053   7.026 129.058  0.00  0.00    +0.000 HD
ENDBRANCH   1  22
TORSDOF 2
ENDMDL
