MODEL 1
REMARK VINA RESULT:      -8.9      0.000      0.000
REMARK  Name = Loratadine
REMARK  3 active torsions:
REMARK  status: ('A' for Active; 'I' for Inactive)
REMARK    1  A    between atoms: C_1  and  C_2
REMARK    2  A    between atoms: C_2  and  O_3
REMARK    3  A    between atoms: O_3  and  C_4
REMARK                            x       y       z     vdW  Elec       q    Type
REMARK                         _______ _______ _______ _____ _____    ______ ____
ROOT
ATOM      1  C   UNL     1      -4.120   4.440 128.415  0.00  0.00    +0.000 C 
ATOM      2  O   UNL     1      -3.448   3.832 129.250  0.00  0.00    +0.000 OA
ATOM      3  N   UNL     1      -4.615   3.839 127.268  0.00  0.00    +0.000 N 
ATOM      4  C   UNL     1      -4.886   2.401 127.258  0.00  0.00    +0.000 C 
ATOM      5  C   UNL     1      -6.321   2.163 126.757  0.00  0.00    +0.000 C 
ATOM      6  C   UNL     1      -6.486   2.712 125.338  0.00  0.00    +0.000 C 
ATOM      7  C   UNL     1      -6.177   4.220 125.365  0.00  0.00    +0.000 C 
ATOM      8  C   UNL     1      -4.779   4.488 125.961  0.00  0.00    +0.000 C 
ATOM      9  C   UNL     1      -6.854   1.988 124.237  0.00  0.00    +0.000 C 
ATOM     10  C   UNL     1      -7.148   0.510 124.315  0.00  0.00    +0.000 A 
ATOM     11  C   UNL     1      -8.307  -0.102 123.771  0.00  0.00    +0.000 A 
ATOM     12  C   UNL     1      -9.428   0.600 123.029  0.00  0.00    +0.000 C 
ATOM     13  C   UNL     1      -9.524   2.110 123.177  0.00  0.00    +0.000 C 
ATOM     14  C   UNL     1      -8.393   2.767 122.447  0.00  0.00    +0.000 A 
ATOM     15  C   UNL     1      -7.091   2.703 122.948  0.00  0.00    +0.000 A 
ATOM     16  N   UNL     1      -6.027   3.234 122.299  0.00  0.00    +0.000 NA
ATOM     17  C   UNL     1      -6.280   3.849 121.119  0.00  0.00    +0.000 A 
ATOM     18  C   UNL     1      -7.538   3.956 120.548  0.00  0.00    +0.000 A 
ATOM     19  C   UNL     1      -8.611   3.396 121.222  0.00  0.00    +0.000 A 
ATOM     20  C   UNL     1      -8.458  -1.505 123.858  0.00  0.00    +0.000 A 
ATOM     21  C   UNL     1      -7.502  -2.295 124.483  0.00  0.00    +0.000 A 
ATOM     22 CL   UNL     1      -7.726  -3.995 124.579  0.00  0.00    +0.000 Cl
ATOM     23  C   UNL     1      -6.363  -1.711 125.010  0.00  0.00    +0.000 A 
ATOM     24  C   UNL     1      -6.175  -0.332 124.894  0.00  0.00    +0.000 A 
ENDROOT
BRANCH   1  25
ATOM     25  O   UNL     1      -4.539   5.734 128.600  0.00  0.00    +0.000 OA
BRANCH  25  27
ATOM     26  C   UNL     1      -2.383   6.811 128.129  0.00  0.00    +0.000 C 
ATOM     27  C   UNL     1      -3.527   6.634 129.124  0.00  0.00    +0.000 C 
ENDBRANCH  25  27
ENDBRANCH   1  25
TORSDOF 2
ENDMDL
MODEL 2
REMARK VINA RESULT:      -8.3      3.700      5.055
REMARK  Name = Loratadine
REMARK  3 active torsions:
REMARK  status: ('A' for Active; 'I' for Inactive)
REMARK    1  A    between atoms: C_1  and  C_2
REMARK    2  A    between atoms: C_2  and  O_3
REMARK    3  A    between atoms: O_3  and  C_4
REMARK                            x       y       z     vdW  Elec       q    Type
REMARK                         _______ _______ _______ _____ _____    ______ ____
ROOT
ATOM      1  C   UNL     1      -8.015   4.644 128.644  0.00  0.00    +0.000 C 
ATOM      2  O   UNL     1      -7.482   5.089 129.661  0.00  0.00    +0.000 OA
ATOM      3  N   UNL     1      -7.749   3.376 128.151  0.00  0.00    +0.000 N 
ATOM      4  C   UNL     1      -7.321   2.315 129.062  0.00  0.00    +0.000 C 
ATOM      5  C   UNL     1      -8.217   1.081 128.856  0.00  0.00    +0.000 C 
ATOM      6  C   UNL     1      -8.104   0.577 127.415  0.00  0.00    +0.000 C 
ATOM      7  C   UNL     1      -8.539   1.713 126.472  0.00  0.00    +0.000 C 
ATOM      8  C   UNL     1      -7.720   2.995 126.733  0.00  0.00    +0.000 C 
ATOM      9  C   UNL     1      -7.695  -0.671 127.034  0.00  0.00    +0.000 C 
ATOM     10  C   UNL     1      -7.297  -1.724 128.039  0.00  0.00    +0.000 A 
ATOM     11  C   UNL     1      -7.783  -3.056 128.032  0.00  0.00    +0.000 A 
ATOM     12  C   UNL     1      -8.760  -3.650 127.036  0.00  0.00    +0.000 C 
ATOM     13  C   UNL     1      -9.572  -2.680 126.192  0.00  0.00    +0.000 C 
ATOM     14  C   UNL     1      -8.683  -2.011 125.188  0.00  0.00    +0.000 A 
ATOM     15  C   UNL     1      -7.760  -1.043 125.589  0.00  0.00    +0.000 A 
ATOM     16  N   UNL     1      -6.898  -0.448 124.730  0.00  0.00    +0.000 NA
ATOM     17  C   UNL     1      -6.971  -0.834 123.433  0.00  0.00    +0.000 A 
ATOM     18  C   UNL     1      -7.852  -1.787 122.949  0.00  0.00    +0.000 A 
ATOM     19  C   UNL     1      -8.717  -2.392 123.847  0.00  0.00    +0.000 A 
ATOM     20  C   UNL     1      -7.305  -3.976 128.994  0.00  0.00    +0.000 A 
ATOM     21  C   UNL     1      -6.383  -3.594 129.959  0.00  0.00    +0.000 A 
ATOM     22 CL   UNL     1      -5.834  -4.737 131.119  0.00  0.00    +0.000 Cl
ATOM     23  C   UNL     1      -5.894  -2.299 129.971  0.00  0.00    +0.000 A 
ATOM     24  C   UNL     1      -6.322  -1.389 129.001  0.00  0.00    +0.000 A 
ENDROOT
BRANCH   1  25
ATOM     25  O   UNL     1      -9.007   5.314 127.972  0.00  0.00    +0.000 OA
BRANCH  25  27
ATOM     26  C   UNL     1     -10.534   7.236 127.952  0.00  0.00    +0.000 C 
ATOM     27  C   UNL     1      -9.823   6.185 128.799  0.00  0.00    +0.000 C 
ENDBRANCH  25  27
ENDBRANCH   1  25
TORSDOF 2
ENDMDL
MODEL 3
REMARK VINA RESULT:      -8.2      6.254      9.002
REMARK  Name = Loratadine
REMARK  3 active torsions:
REMARK  status: ('A' for Active; 'I' for Inactive)
REMARK    1  A    between atoms: C_1  and  C_2
REMARK    2  A    between atoms: C_2  and  O_3
REMARK    3  A    between atoms: O_3  and  C_4
REMARK                            x       y       z     vdW  Elec       q    Type
REMARK                         _______ _______ _______ _____ _____    ______ ____
ROOT
ATOM      1  C   UNL     1     -10.535   4.419 130.721  0.00  0.00    +0.000 C 
ATOM      2  O   UNL     1     -11.055   3.470 130.132  0.00  0.00    +0.000 OA
ATOM      3  N   UNL     1      -9.162   4.550 130.866  0.00  0.00    +0.000 N 
ATOM      4  C   UNL     1      -8.264   3.949 129.880  0.00  0.00    +0.000 C 
ATOM      5  C   UNL     1      -7.273   5.016 129.384  0.00  0.00    +0.000 C 
ATOM      6  C   UNL     1      -6.443   5.554 130.552  0.00  0.00    +0.000 C 
ATOM      7  C   UNL     1      -7.406   6.163 131.588  0.00  0.00    +0.000 C 
ATOM      8  C   UNL     1      -8.474   5.138 132.022  0.00  0.00    +0.000 C 
ATOM      9  C   UNL     1      -5.080   5.508 130.654  0.00  0.00    +0.000 C 
ATOM     10  C   UNL     1      -4.219   4.896 129.576  0.00  0.00    +0.000 A 
ATOM     11  C   UNL     1      -3.079   5.527 129.013  0.00  0.00    +0.000 A 
ATOM     12  C   UNL     1      -2.532   6.891 129.387  0.00  0.00    +0.000 C 
ATOM     13  C   UNL     1      -3.453   7.825 130.154  0.00  0.00    +0.000 C 
ATOM     14  C   UNL     1      -3.638   7.322 131.554  0.00  0.00    +0.000 A 
ATOM     15  C   UNL     1      -4.417   6.190 131.805  0.00  0.00    +0.000 A 
ATOM     16  N   UNL     1      -4.572   5.665 133.044  0.00  0.00    +0.000 NA
ATOM     17  C   UNL     1      -3.932   6.297 134.056  0.00  0.00    +0.000 A 
ATOM     18  C   UNL     1      -3.138   7.422 133.897  0.00  0.00    +0.000 A 
ATOM     19  C   UNL     1      -2.983   7.937 132.620  0.00  0.00    +0.000 A 
ATOM     20  C   UNL     1      -2.314   4.841 128.042  0.00  0.00    +0.000 A 
ATOM     21  C   UNL     1      -2.668   3.568 127.613  0.00  0.00    +0.000 A 
ATOM     22 CL   UNL     1      -1.720   2.771 126.422  0.00  0.00    +0.000 Cl
ATOM     23  C   UNL     1      -3.773   2.939 128.161  0.00  0.00    +0.000 A 
ATOM     24  C   UNL     1      -4.514   3.583 129.154  0.00  0.00    +0.000 A 
ENDROOT
BRANCH   1  25
ATOM     25  O   UNL     1     -11.256   5.491 131.183  0.00  0.00    +0.000 OA
BRANCH  25  27
ATOM     26  C   UNL     1     -10.847   7.489 129.816  0.00  0.00    +0.000 C 
ATOM     27  C   UNL     1     -11.806   6.348 130.148  0.00  0.00    +0.000 C 
ENDBRANCH  25  27
ENDBRANCH   1  25
TORSDOF 2
ENDMDL
MODEL 4
REMARK VINA RESULT:      -8.2      3.728      7.185
REMARK  Name = Loratadine
REMARK  3 active torsions:
REMARK  status: ('A' for Active; 'I' for Inactive)
REMARK    1  A    between atoms: C_1  and  C_2
REMARK    2  A    between atoms: C_2  and  O_3
REMARK    3  A    between atoms: O_3  and  C_4
REMARK                            x       y       z     vdW  Elec       q    Type
REMARK                         _______ _______ _______ _____ _____    ______ ____
ROOT
ATOM      1  C   UNL     1      -7.675   3.291 122.611  0.00  0.00    +0.000 C 
ATOM      2  O   UNL     1      -8.857   3.128 122.302  0.00  0.00    +0.000 OA
ATOM      3  N   UNL     1      -7.277   3.651 123.890  0.00  0.00    +0.000 N 
ATOM      4  C   UNL     1      -8.108   3.293 125.039  0.00  0.00    +0.000 C 
ATOM      5  C   UNL     1      -7.237   2.577 126.087  0.00  0.00    +0.000 C 
ATOM      6  C   UNL     1      -6.107   3.497 126.555  0.00  0.00    +0.000 C 
ATOM      7  C   UNL     1      -5.257   3.879 125.330  0.00  0.00    +0.000 C 
ATOM      8  C   UNL     1      -6.131   4.506 124.223  0.00  0.00    +0.000 C 
ATOM      9  C   UNL     1      -5.885   3.902 127.843  0.00  0.00    +0.000 C 
ATOM     10  C   UNL     1      -6.772   3.462 128.982  0.00  0.00    +0.000 A 
ATOM     11  C   UNL     1      -6.292   2.930 130.206  0.00  0.00    +0.000 A 
ATOM     12  C   UNL     1      -4.839   2.718 130.584  0.00  0.00    +0.000 C 
ATOM     13  C   UNL     1      -3.817   2.726 129.458  0.00  0.00    +0.000 C 
ATOM     14  C   UNL     1      -3.657   4.117 128.925  0.00  0.00    +0.000 A 
ATOM     15  C   UNL     1      -4.662   4.701 128.149  0.00  0.00    +0.000 A 
ATOM     16  N   UNL     1      -4.590   5.973 127.689  0.00  0.00    +0.000 NA
ATOM     17  C   UNL     1      -3.476   6.674 128.013  0.00  0.00    +0.000 A 
ATOM     18  C   UNL     1      -2.434   6.175 128.778  0.00  0.00    +0.000 A 
ATOM     19  C   UNL     1      -2.533   4.876 129.249  0.00  0.00    +0.000 A 
ATOM     20  C   UNL     1      -7.211   2.596 131.228  0.00  0.00    +0.000 A 
ATOM     21  C   UNL     1      -8.578   2.761 131.048  0.00  0.00    +0.000 A 
ATOM     22 CL   UNL     1      -9.665   2.332 132.307  0.00  0.00    +0.000 Cl
ATOM     23  C   UNL     1      -9.059   3.286 129.861  0.00  0.00    +0.000 A 
ATOM     24  C   UNL     1      -8.163   3.664 128.858  0.00  0.00    +0.000 A 
ENDROOT
BRANCH   1  25
ATOM     25  O   UNL     1      -6.639   3.017 121.754  0.00  0.00    +0.000 OA
BRANCH  25  27
ATOM     26  C   UNL     1      -5.343   4.669 120.483  0.00  0.00    +0.000 C 
ATOM     27  C   UNL     1      -6.614   3.827 120.549  0.00  0.00    +0.000 C 
ENDBRANCH  25  27
ENDBRANCH   1  25
TORSDOF 2
ENDMDL
MODEL 5
REMARK VINA RESULT:      -8.0      5.286      8.577
REMARK  Name = Loratadine
REMARK  3 active torsions:
REMARK  status: ('A' for Active; 'I' for Inactive)
REMARK    1  A    between atoms: C_1  and  C_2
REMARK    2  A    between atoms: C_2  and  O_3
REMARK    3  A    between atoms: O_3  and  C_4
REMARK                            x       y       z     vdW  Elec       q    Type
REMARK                         _______ _______ _______ _____ _____    ______ ____
ROOT
ATOM      1  C   UNL     1      -7.133  -0.251 123.499  0.00  0.00    +0.000 C 
ATOM      2  O   UNL     1      -7.562   0.803 123.028  0.00  0.00    +0.000 OA
ATOM      3  N   UNL     1      -6.824  -0.400 124.843  0.00  0.00    +0.000 N 
ATOM      4  C   UNL     1      -7.509   0.417 125.843  0.00  0.00    +0.000 C 
ATOM      5  C   UNL     1      -8.083  -0.501 126.937  0.00  0.00    +0.000 C 
ATOM      6  C   UNL     1      -6.958  -1.285 127.617  0.00  0.00    +0.000 C 
ATOM      7  C   UNL     1      -6.237  -2.122 126.545  0.00  0.00    +0.000 C 
ATOM      8  C   UNL     1      -5.742  -1.231 125.386  0.00  0.00    +0.000 C 
ATOM      9  C   UNL     1      -6.653  -1.252 128.950  0.00  0.00    +0.000 C 
ATOM     10  C   UNL     1      -7.429  -0.404 129.927  0.00  0.00    +0.000 A 
ATOM     11  C   UNL     1      -7.948  -0.880 131.159  0.00  0.00    +0.000 A 
ATOM     12  C   UNL     1      -7.816  -2.289 131.703  0.00  0.00    +0.000 C 
ATOM     13  C   UNL     1      -7.420  -3.382 130.723  0.00  0.00    +0.000 C 
ATOM     14  C   UNL     1      -5.985  -3.213 130.325  0.00  0.00    +0.000 A 
ATOM     15  C   UNL     1      -5.601  -2.175 129.473  0.00  0.00    +0.000 A 
ATOM     16  N   UNL     1      -4.312  -1.947 129.126  0.00  0.00    +0.000 NA
ATOM     17  C   UNL     1      -3.386  -2.789 129.645  0.00  0.00    +0.000 A 
ATOM     18  C   UNL     1      -3.677  -3.842 130.498  0.00  0.00    +0.000 A 
ATOM     19  C   UNL     1      -5.001  -4.049 130.850  0.00  0.00    +0.000 A 
ATOM     20  C   UNL     1      -8.619   0.015 132.023  0.00  0.00    +0.000 A 
ATOM     21  C   UNL     1      -8.797   1.349 131.681  0.00  0.00    +0.000 A 
ATOM     22 CL   UNL     1      -9.628   2.404 132.751  0.00  0.00    +0.000 Cl
ATOM     23  C   UNL     1      -8.288   1.828 130.485  0.00  0.00    +0.000 A 
ATOM     24  C   UNL     1      -7.583   0.968 129.640  0.00  0.00    +0.000 A 
ENDROOT
BRANCH   1  25
ATOM     25  O   UNL     1      -7.033  -1.406 122.765  0.00  0.00    +0.000 OA
BRANCH  25  27
ATOM     26  C   UNL     1      -8.649  -3.039 123.628  0.00  0.00    +0.000 C 
ATOM     27  C   UNL     1      -8.296  -2.072 122.502  0.00  0.00    +0.000 C 
ENDBRANCH  25  27
ENDBRANCH   1  25
TORSDOF 2
ENDMDL
MODEL 6
REMARK VINA RESULT:      -7.8      3.515      5.988
REMARK  Name = Loratadine
REMARK  3 active torsions:
REMARK  status: ('A' for Active; 'I' for Inactive)
REMARK    1  A    between atoms: C_1  and  C_2
REMARK    2  A    between atoms: C_2  and  O_3
REMARK    3  A    between atoms: O_3  and  C_4
REMARK                            x       y       z     vdW  Elec       q    Type
REMARK                         _______ _______ _______ _____ _____    ______ ____
ROOT
ATOM      1  C   UNL     1      -4.991   4.777 127.335  0.00  0.00    +0.000 C 
ATOM      2  O   UNL     1      -5.160   5.388 126.278  0.00  0.00    +0.000 OA
ATOM      3  N   UNL     1      -5.743   3.666 127.687  0.00  0.00    +0.000 N 
ATOM      4  C   UNL     1      -6.329   2.824 126.645  0.00  0.00    +0.000 C 
ATOM      5  C   UNL     1      -5.941   1.357 126.905  0.00  0.00    +0.000 C 
ATOM      6  C   UNL     1      -6.466   0.903 128.269  0.00  0.00    +0.000 C 
ATOM      7  C   UNL     1      -5.854   1.814 129.349  0.00  0.00    +0.000 C 
ATOM      8  C   UNL     1      -6.145   3.300 129.051  0.00  0.00    +0.000 C 
ATOM      9  C   UNL     1      -7.324  -0.139 128.491  0.00  0.00    +0.000 C 
ATOM     10  C   UNL     1      -7.863  -0.983 127.362  0.00  0.00    +0.000 A 
ATOM     11  C   UNL     1      -7.853  -2.402 127.353  0.00  0.00    +0.000 A 
ATOM     12  C   UNL     1      -7.318  -3.302 128.450  0.00  0.00    +0.000 C 
ATOM     13  C   UNL     1      -6.394  -2.673 129.480  0.00  0.00    +0.000 C 
ATOM     14  C   UNL     1      -7.174  -1.757 130.372  0.00  0.00    +0.000 A 
ATOM     15  C   UNL     1      -7.641  -0.529 129.897  0.00  0.00    +0.000 A 
ATOM     16  N   UNL     1      -8.395   0.311 130.646  0.00  0.00    +0.000 NA
ATOM     17  C   UNL     1      -8.684  -0.093 131.907  0.00  0.00    +0.000 A 
ATOM     18  C   UNL     1      -8.265  -1.294 132.458  0.00  0.00    +0.000 A 
ATOM     19  C   UNL     1      -7.505  -2.143 131.670  0.00  0.00    +0.000 A 
ATOM     20  C   UNL     1      -8.431  -3.094 126.264  0.00  0.00    +0.000 A 
ATOM     21  C   UNL     1      -8.991  -2.412 125.192  0.00  0.00    +0.000 A 
ATOM     22 CL   UNL     1      -9.672  -3.288 123.881  0.00  0.00    +0.000 Cl
ATOM     23  C   UNL     1      -9.014  -1.027 125.193  0.00  0.00    +0.000 A 
ATOM     24  C   UNL     1      -8.489  -0.328 126.281  0.00  0.00    +0.000 A 
ENDROOT
BRANCH   1  25
ATOM     25  O   UNL     1      -3.968   5.065 128.204  0.00  0.00    +0.000 OA
BRANCH  25  27
ATOM     26  C   UNL     1      -2.360   3.428 127.332  0.00  0.00    +0.000 C 
ATOM     27  C   UNL     1      -2.635   4.895 127.654  0.00  0.00    +0.000 C 
ENDBRANCH  25  27
ENDBRANCH   1  25
TORSDOF 2
ENDMDL
MODEL 7
REMARK VINA RESULT:      -7.8      7.504      9.766
REMARK  Name = Loratadine
REMARK  3 active torsions:
REMARK  status: ('A' for Active; 'I' for Inactive)
REMARK    1  A    between atoms: C_1  and  C_2
REMARK    2  A    between atoms: C_2  and  O_3
REMARK    3  A    between atoms: O_3  and  C_4
REMARK                            x       y       z     vdW  Elec       q    Type
REMARK                         _______ _______ _______ _____ _____    ______ ____
ROOT
ATOM      1  C   UNL     1     -11.751   6.518 129.516  0.00  0.00    +0.000 C 
ATOM      2  O   UNL     1     -12.667   5.981 128.892  0.00  0.00    +0.000 OA
ATOM      3  N   UNL     1     -10.980   5.840 130.449  0.00  0.00    +0.000 N 
ATOM      4  C   UNL     1     -10.798   4.393 130.329  0.00  0.00    +0.000 C 
ATOM      5  C   UNL     1      -9.295   4.068 130.383  0.00  0.00    +0.000 C 
ATOM      6  C   UNL     1      -8.697   4.539 131.710  0.00  0.00    +0.000 C 
ATOM      7  C   UNL     1      -8.916   6.059 131.827  0.00  0.00    +0.000 C 
ATOM      8  C   UNL     1     -10.409   6.416 131.672  0.00  0.00    +0.000 C 
ATOM      9  C   UNL     1      -8.067   3.746 132.631  0.00  0.00    +0.000 C 
ATOM     10  C   UNL     1      -7.892   2.263 132.420  0.00  0.00    +0.000 A 
ATOM     11  C   UNL     1      -6.661   1.575 132.581  0.00  0.00    +0.000 A 
ATOM     12  C   UNL     1      -5.337   2.190 132.989  0.00  0.00    +0.000 C 
ATOM     13  C   UNL     1      -5.203   3.700 132.872  0.00  0.00    +0.000 C 
ATOM     14  C   UNL     1      -6.037   4.369 133.922  0.00  0.00    +0.000 A 
ATOM     15  C   UNL     1      -7.430   4.386 133.819  0.00  0.00    +0.000 A 
ATOM     16  N   UNL     1      -8.230   4.930 134.768  0.00  0.00    +0.000 NA
ATOM     17  C   UNL     1      -7.612   5.474 135.844  0.00  0.00    +0.000 A 
ATOM     18  C   UNL     1      -6.239   5.499 136.028  0.00  0.00    +0.000 A 
ATOM     19  C   UNL     1      -5.440   4.926 135.052  0.00  0.00    +0.000 A 
ATOM     20  C   UNL     1      -6.620   0.173 132.406  0.00  0.00    +0.000 A 
ATOM     21  C   UNL     1      -7.758  -0.543 132.059  0.00  0.00    +0.000 A 
ATOM     22 CL   UNL     1      -7.666  -2.245 131.842  0.00  0.00    +0.000 Cl
ATOM     23  C   UNL     1      -8.967   0.115 131.907  0.00  0.00    +0.000 A 
ATOM     24  C   UNL     1      -9.035   1.493 132.120  0.00  0.00    +0.000 A 
ENDROOT
BRANCH   1  25
ATOM     25  O   UNL     1     -11.332   7.800 129.263  0.00  0.00    +0.000 OA
BRANCH  25  27
ATOM     26  C   UNL     1     -13.044   9.558 129.191  0.00  0.00    +0.000 C 
ATOM     27  C   UNL     1     -12.204   8.566 128.391  0.00  0.00    +0.000 C 
ENDBRANCH  25  27
ENDBRANCH   1  25
TORSDOF 2
ENDMDL
MODEL 8
REMARK VINA RESULT:      -7.8      8.064     10.328
REMARK  Name = Loratadine
REMARK  3 active torsions:
REMARK  status: ('A' for Active; 'I' for Inactive)
REMARK    1  A    between atoms: C_1  and  C_2
REMARK    2  A    between atoms: C_2  and  O_3
REMARK    3  A    between atoms: O_3  and  C_4
REMARK                            x       y       z     vdW  Elec       q    Type
REMARK                         _______ _______ _______ _____ _____    ______ ____
ROOT
ATOM      1  C   UNL     1     -11.710   6.344 130.789  0.00  0.00    +0.000 C 
ATOM      2  O   UNL     1     -12.643   6.557 131.565  0.00  0.00    +0.000 OA
ATOM      3  N   UNL     1     -10.382   6.372 131.188  0.00  0.00    +0.000 N 
ATOM      4  C   UNL     1     -10.031   6.068 132.575  0.00  0.00    +0.000 C 
ATOM      5  C   UNL     1      -8.939   4.985 132.593  0.00  0.00    +0.000 C 
ATOM      6  C   UNL     1      -7.690   5.478 131.859  0.00  0.00    +0.000 C 
ATOM      7  C   UNL     1      -8.083   5.812 130.408  0.00  0.00    +0.000 C 
ATOM      8  C   UNL     1      -9.250   6.821 130.368  0.00  0.00    +0.000 C 
ATOM      9  C   UNL     1      -6.438   5.594 132.398  0.00  0.00    +0.000 C 
ATOM     10  C   UNL     1      -6.149   5.230 133.833  0.00  0.00    +0.000 A 
ATOM     11  C   UNL     1      -5.077   4.397 134.244  0.00  0.00    +0.000 A 
ATOM     12  C   UNL     1      -4.050   3.744 133.339  0.00  0.00    +0.000 C 
ATOM     13  C   UNL     1      -4.380   3.660 131.857  0.00  0.00    +0.000 C 
ATOM     14  C   UNL     1      -4.312   5.025 131.242  0.00  0.00    +0.000 A 
ATOM     15  C   UNL     1      -5.301   5.975 131.508  0.00  0.00    +0.000 A 
ATOM     16  N   UNL     1      -5.257   7.238 131.020  0.00  0.00    +0.000 NA
ATOM     17  C   UNL     1      -4.193   7.551 130.241  0.00  0.00    +0.000 A 
ATOM     18  C   UNL     1      -3.168   6.673 129.928  0.00  0.00    +0.000 A 
ATOM     19  C   UNL     1      -3.226   5.390 130.448  0.00  0.00    +0.000 A 
ATOM     20  C   UNL     1      -4.868   4.162 135.623  0.00  0.00    +0.000 A 
ATOM     21  C   UNL     1      -5.706   4.714 136.583  0.00  0.00    +0.000 A 
ATOM     22 CL   UNL     1      -5.429   4.394 138.247  0.00  0.00    +0.000 Cl
ATOM     23  C   UNL     1      -6.751   5.535 136.195  0.00  0.00    +0.000 A 
ATOM     24  C   UNL     1      -6.945   5.815 134.841  0.00  0.00    +0.000 A 
ENDROOT
BRANCH   1  25
ATOM     25  O   UNL     1     -11.901   5.945 129.490  0.00  0.00    +0.000 OA
BRANCH  25  27
ATOM     26  C   UNL     1     -13.707   6.944 128.160  0.00  0.00    +0.000 C 
ATOM     27  C   UNL     1     -12.237   7.014 128.567  0.00  0.00    +0.000 C 
ENDBRANCH  25  27
ENDBRANCH   1  25
TORSDOF 2
ENDMDL
MODEL 9
REMARK VINA RESULT:      -7.7      4.748      6.315
REMARK  Name = Loratadine
REMARK  3 active torsions:
REMARK  status: ('A' for Active; 'I' for Inactive)
REMARK    1  A    between atoms: C_1  and  C_2
REMARK    2  A    between atoms: C_2  and  O_3
REMARK    3  A    between atoms: O_3  and  C_4
REMARK                            x       y       z     vdW  Elec       q    Type
REMARK                         _______ _______ _______ _____ _____    ______ ____
ROOT
ATOM      1  C   UNL     1      -9.002   4.976 129.852  0.00  0.00    +0.000 C 
ATOM      2  O   UNL     1      -8.982   5.517 130.959  0.00  0.00    +0.000 OA
ATOM      3  N   UNL     1      -8.390   3.757 129.602  0.00  0.00    +0.000 N 
ATOM      4  C   UNL     1      -8.215   2.793 130.688  0.00  0.00    +0.000 C 
ATOM      5  C   UNL     1      -8.777   1.430 130.247  0.00  0.00    +0.000 C 
ATOM      6  C   UNL     1      -8.034   0.926 129.007  0.00  0.00    +0.000 C 
ATOM      7  C   UNL     1      -8.213   1.962 127.883  0.00  0.00    +0.000 C 
ATOM      8  C   UNL     1      -7.750   3.361 128.341  0.00  0.00    +0.000 C 
ATOM      9  C   UNL     1      -7.339  -0.249 128.913  0.00  0.00    +0.000 C 
ATOM     10  C   UNL     1      -7.230  -1.208 130.073  0.00  0.00    +0.000 A 
ATOM     11  C   UNL     1      -7.484  -2.601 129.981  0.00  0.00    +0.000 A 
ATOM     12  C   UNL     1      -7.895  -3.358 128.733  0.00  0.00    +0.000 C 
ATOM     13  C   UNL     1      -8.432  -2.543 127.568  0.00  0.00    +0.000 C 
ATOM     14  C   UNL     1      -7.320  -1.759 126.939  0.00  0.00    +0.000 A 
ATOM     15  C   UNL     1      -6.775  -0.650 127.590  0.00  0.00    +0.000 A 
ATOM     16  N   UNL     1      -5.735   0.058 127.089  0.00  0.00    +0.000 NA
ATOM     17  C   UNL     1      -5.234  -0.357 125.900  0.00  0.00    +0.000 A 
ATOM     18  C   UNL     1      -5.711  -1.445 125.188  0.00  0.00    +0.000 A 
ATOM     19  C   UNL     1      -6.768  -2.164 125.724  0.00  0.00    +0.000 A 
ATOM     20  C   UNL     1      -7.303  -3.417 131.122  0.00  0.00    +0.000 A 
ATOM     21  C   UNL     1      -6.900  -2.878 132.336  0.00  0.00    +0.000 A 
ATOM     22 CL   UNL     1      -6.704  -3.899 133.703  0.00  0.00    +0.000 Cl
ATOM     23  C   UNL     1      -6.641  -1.521 132.436  0.00  0.00    +0.000 A 
ATOM     24  C   UNL     1      -6.771  -0.708 131.309  0.00  0.00    +0.000 A 
ENDROOT
BRANCH   1  25
ATOM     25  O   UNL     1      -9.729   5.470 128.798  0.00  0.00    +0.000 OA
BRANCH  25  27
ATOM     26  C   UNL     1     -10.637   7.457 127.680  0.00  0.00    +0.000 C 
ATOM     27  C   UNL     1     -10.287   6.794 129.009  0.00  0.00    +0.000 C 
ENDBRANCH  25  27
ENDBRANCH   1  25
TORSDOF 2
ENDMDL
