MODEL 1
REMARK VINA RESULT:      -7.8      0.000      0.000
REMARK  Name = Loracarbef
REMARK  6 active torsions:
REMARK  status: ('A' for Active; 'I' for Inactive)
REMARK    1  A    between atoms: N_1  and  CA_2
REMARK    2  A    between atoms: CA_2  and  C_3
REMARK    3  A    between atoms: CA_2  and  C_19
REMARK    4  A    between atoms: N_5  and  CA_6
REMARK    5  A    between atoms: CA_12  and  C_16
REMARK    6  A    between atoms: C_16  and  O_17
REMARK                            x       y       z     vdW  Elec       q    Type
REMARK                         _______ _______ _______ _____ _____    ______ ____
ROOT
ATOM      1  C   UNL     1      -9.144  -1.046 124.615  0.00  0.00    +0.000 C 
ATOM      2  O   UNL     1      -9.766  -1.275 125.648  0.00  0.00    +0.000 OA
ATOM      3  N   UNL     1      -8.519   0.171 124.458  0.00  0.00    +0.000 N 
ATOM      4  H   UNL     1      -7.900   0.273 123.666  0.00  0.00    +0.000 HD
ENDROOT
BRANCH   3   5
ATOM      5  CA  UNL     1      -8.630   1.193 125.542  0.00  0.00    +0.000 C 
ATOM      6  C   UNL     1      -7.361   1.350 126.429  0.00  0.00    +0.000 C 
ATOM      7  C   UNL     1      -6.165   0.460 126.194  0.00  0.00    +0.000 C 
ATOM      8  C   UNL     1      -4.920   1.198 126.650  0.00  0.00    +0.000 C 
ATOM      9  C   UNL     1      -4.864   2.634 126.191  0.00  0.00    +0.000 C 
ATOM     10 CL   UNL     1      -3.226   3.212 126.217  0.00  0.00    +0.000 Cl
ATOM     11  CA  UNL     1      -5.957   3.330 125.793  0.00  0.00    +0.000 C 
ATOM     12  N   UNL     1      -7.169   2.671 125.824  0.00  0.00    +0.000 N 
ATOM     13  C   UNL     1      -8.327   2.700 125.133  0.00  0.00    +0.000 C 
ATOM     14  O   UNL     1      -8.763   3.581 124.419  0.00  0.00    +0.000 OA
BRANCH  11  15
ATOM     15  C   UNL     1      -5.811   4.770 125.346  0.00  0.00    +0.000 C 
ATOM     16  OXT UNL     1      -5.589   5.702 126.105  0.00  0.00    +0.000 OA
BRANCH  15  17
ATOM     17  O   UNL     1      -6.023   5.029 124.040  0.00  0.00    +0.000 OA
ATOM     18  H   UNL     1      -5.611   4.435 123.381  0.00  0.00    +0.000 HD
ENDBRANCH  15  17
ENDBRANCH  11  15
ENDBRANCH   3   5
BRANCH   1  19
ATOM     19  CA  UNL     1      -8.964  -2.050 123.434  0.00  0.00    +0.000 C 
BRANCH  19  20
ATOM     20  C   UNL     1      -7.532  -2.540 123.376  0.00  0.00    +0.000 A 
ATOM     21  C   UNL     1      -7.110  -3.546 124.263  0.00  0.00    +0.000 A 
ATOM     22  C   UNL     1      -5.774  -3.917 124.335  0.00  0.00    +0.000 A 
ATOM     23  C   UNL     1      -4.861  -3.364 123.445  0.00  0.00    +0.000 A 
ATOM     24  C   UNL     1      -5.268  -2.384 122.538  0.00  0.00    +0.000 A 
ATOM     25  C   UNL     1      -6.598  -1.959 122.511  0.00  0.00    +0.000 A 
ENDBRANCH  19  20
BRANCH  19  26
ATOM     26  N   UNL     1      -9.883  -3.198 123.564  0.00  0.00    +0.000 NA
ATOM     27  H1  UNL     1     -10.561  -3.234 122.814  0.00  0.00    +0.000 HD
ATOM     28  H2  UNL     1     -10.406  -3.094 124.435  0.00  0.00    +0.000 HD
ENDBRANCH  19  26
ENDBRANCH   1  19
TORSDOF 6
ENDMDL
MODEL 2
REMARK VINA RESULT:      -7.4      3.785      6.655
REMARK  Name = Loracarbef
REMARK  6 active torsions:
REMARK  status: ('A' for Active; 'I' for Inactive)
REMARK    1  A    between atoms: N_1  and  CA_2
REMARK    2  A    between atoms: CA_2  and  C_3
REMARK    3  A    between atoms: CA_2  and  C_19
REMARK    4  A    between atoms: N_5  and  CA_6
REMARK    5  A    between atoms: CA_12  and  C_16
REMARK    6  A    between atoms: C_16  and  O_17
REMARK                            x       y       z     vdW  Elec       q    Type
REMARK                         _______ _______ _______ _____ _____    ______ ____
ROOT
ATOM      1  C   UNL     1      -7.745   2.927 123.622  0.00  0.00    +0.000 C 
ATOM      2  O   UNL     1      -8.491   3.673 124.251  0.00  0.00    +0.000 OA
ATOM      3  N   UNL     1      -7.909   1.565 123.723  0.00  0.00    +0.000 N 
ATOM      4  H   UNL     1      -7.378   0.987 123.087  0.00  0.00    +0.000 HD
ENDROOT
BRANCH   3   5
ATOM      5  CA  UNL     1      -8.982   1.023 124.613  0.00  0.00    +0.000 C 
ATOM      6  C   UNL     1      -9.441  -0.426 124.280  0.00  0.00    +0.000 C 
ATOM      7  C   UNL     1      -8.849  -1.149 123.095  0.00  0.00    +0.000 C 
ATOM      8  C   UNL     1      -8.909  -2.641 123.364  0.00  0.00    +0.000 C 
ATOM      9  C   UNL     1      -8.462  -3.026 124.753  0.00  0.00    +0.000 C 
ATOM     10 CL   UNL     1      -7.991  -4.697 124.794  0.00  0.00    +0.000 Cl
ATOM     11  CA  UNL     1      -8.419  -2.151 125.788  0.00  0.00    +0.000 C 
ATOM     12  N   UNL     1      -8.813  -0.854 125.533  0.00  0.00    +0.000 N 
ATOM     13  C   UNL     1      -8.508   0.379 125.987  0.00  0.00    +0.000 C 
ATOM     14  O   UNL     1      -7.965   0.691 127.028  0.00  0.00    +0.000 OA
BRANCH  11  15
ATOM     15  C   UNL     1      -7.956  -2.621 127.152  0.00  0.00    +0.000 C 
ATOM     16  OXT UNL     1      -8.624  -3.327 127.894  0.00  0.00    +0.000 OA
BRANCH  15  17
ATOM     17  O   UNL     1      -6.769  -2.156 127.588  0.00  0.00    +0.000 OA
ATOM     18  H   UNL     1      -6.608  -1.191 127.541  0.00  0.00    +0.000 HD
ENDBRANCH  15  17
ENDBRANCH  11  15
ENDBRANCH   3   5
BRANCH   1  19
ATOM     19  CA  UNL     1      -6.607   3.397 122.663  0.00  0.00    +0.000 C 
BRANCH  19  20
ATOM     20  C   UNL     1      -7.183   3.790 121.320  0.00  0.00    +0.000 A 
ATOM     21  C   UNL     1      -8.569   3.689 121.105  0.00  0.00    +0.000 A 
ATOM     22  C   UNL     1      -9.112   3.904 119.846  0.00  0.00    +0.000 A 
ATOM     23  C   UNL     1      -8.291   4.329 118.809  0.00  0.00    +0.000 A 
ATOM     24  C   UNL     1      -6.916   4.464 119.011  0.00  0.00    +0.000 A 
ATOM     25  C   UNL     1      -6.357   4.180 120.259  0.00  0.00    +0.000 A 
ENDBRANCH  19  20
BRANCH  19  26
ATOM     26  N   UNL     1      -5.857   4.530 123.240  0.00  0.00    +0.000 NA
ATOM     27  H1  UNL     1      -6.444   5.133 123.803  0.00  0.00    +0.000 HD
ATOM     28  H2  UNL     1      -5.493   5.099 122.474  0.00  0.00    +0.000 HD
ENDBRANCH  19  26
ENDBRANCH   1  19
TORSDOF 6
ENDMDL
MODEL 3
REMARK VINA RESULT:      -7.4      6.301      9.548
REMARK  Name = Loracarbef
REMARK  6 active torsions:
REMARK  status: ('A' for Active; 'I' for Inactive)
REMARK    1  A    between atoms: N_1  and  CA_2
REMARK    2  A    between atoms: CA_2  and  C_3
REMARK    3  A    between atoms: CA_2  and  C_19
REMARK    4  A    between atoms: N_5  and  CA_6
REMARK    5  A    between atoms: CA_12  and  C_16
REMARK    6  A    between atoms: C_16  and  O_17
REMARK                            x       y       z     vdW  Elec       q    Type
REMARK                         _______ _______ _______ _____ _____    ______ ____
ROOT
ATOM      1  C   UNL     1     -10.018   6.796 130.537  0.00  0.00    +0.000 C 
ATOM      2  O   UNL     1      -9.363   7.441 129.722  0.00  0.00    +0.000 OA
ATOM      3  N   UNL     1      -9.497   5.631 131.053  0.00  0.00    +0.000 N 
ATOM      4  H   UNL     1      -9.994   5.204 131.822  0.00  0.00    +0.000 HD
ENDROOT
BRANCH   3   5
ATOM      5  CA  UNL     1      -8.152   5.167 130.595  0.00  0.00    +0.000 C 
ATOM      6  C   UNL     1      -7.687   3.809 131.194  0.00  0.00    +0.000 C 
ATOM      7  C   UNL     1      -8.553   3.097 132.205  0.00  0.00    +0.000 C 
ATOM      8  C   UNL     1      -8.270   1.609 132.116  0.00  0.00    +0.000 C 
ATOM      9  C   UNL     1      -8.215   1.084 130.702  0.00  0.00    +0.000 C 
ATOM     10 CL   UNL     1      -8.488  -0.631 130.683  0.00  0.00    +0.000 Cl
ATOM     11  CA  UNL     1      -8.010   1.880 129.623  0.00  0.00    +0.000 C 
ATOM     12  N   UNL     1      -7.842   3.229 129.857  0.00  0.00    +0.000 N 
ATOM     13  C   UNL     1      -8.103   4.384 129.212  0.00  0.00    +0.000 C 
ATOM     14  O   UNL     1      -8.314   4.561 128.029  0.00  0.00    +0.000 OA
BRANCH  11  15
ATOM     15  C   UNL     1      -7.970   1.271 128.236  0.00  0.00    +0.000 C 
ATOM     16  OXT UNL     1      -7.040   0.601 127.811  0.00  0.00    +0.000 OA
BRANCH  15  17
ATOM     17  O   UNL     1      -8.994   1.564 127.410  0.00  0.00    +0.000 OA
ATOM     18  H   UNL     1      -9.874   1.725 127.807  0.00  0.00    +0.000 HD
ENDBRANCH  15  17
ENDBRANCH  11  15
ENDBRANCH   3   5
BRANCH   1  19
ATOM     19  CA  UNL     1     -11.422   7.203 131.082  0.00  0.00    +0.000 C 
BRANCH  19  20
ATOM     20  C   UNL     1     -12.337   7.585 129.938  0.00  0.00    +0.000 A 
ATOM     21  C   UNL     1     -12.846   6.582 129.095  0.00  0.00    +0.000 A 
ATOM     22  C   UNL     1     -13.570   6.907 127.956  0.00  0.00    +0.000 A 
ATOM     23  C   UNL     1     -13.887   8.237 127.703  0.00  0.00    +0.000 A 
ATOM     24  C   UNL     1     -13.414   9.245 128.545  0.00  0.00    +0.000 A 
ATOM     25  C   UNL     1     -12.627   8.925 129.654  0.00  0.00    +0.000 A 
ENDBRANCH  19  20
BRANCH  19  26
ATOM     26  N   UNL     1     -12.028   6.108 131.866  0.00  0.00    +0.000 NA
ATOM     27  H1  UNL     1     -11.998   6.288 132.862  0.00  0.00    +0.000 HD
ATOM     28  H2  UNL     1     -11.490   5.257 131.700  0.00  0.00    +0.000 HD
ENDBRANCH  19  26
ENDBRANCH   1  19
TORSDOF 6
ENDMDL
MODEL 4
REMARK VINA RESULT:      -7.3      3.095      3.972
REMARK  Name = Loracarbef
REMARK  6 active torsions:
REMARK  status: ('A' for Active; 'I' for Inactive)
REMARK    1  A    between atoms: N_1  and  CA_2
REMARK    2  A    between atoms: CA_2  and  C_3
REMARK    3  A    between atoms: CA_2  and  C_19
REMARK    4  A    between atoms: N_5  and  CA_6
REMARK    5  A    between atoms: CA_12  and  C_16
REMARK    6  A    between atoms: C_16  and  O_17
REMARK                            x       y       z     vdW  Elec       q    Type
REMARK                         _______ _______ _______ _____ _____    ______ ____
ROOT
ATOM      1  C   UNL     1      -8.531  -0.802 124.954  0.00  0.00    +0.000 C 
ATOM      2  O   UNL     1      -9.747  -0.759 124.784  0.00  0.00    +0.000 OA
ATOM      3  N   UNL     1      -7.802   0.365 124.923  0.00  0.00    +0.000 N 
ATOM      4  H   UNL     1      -6.834   0.312 125.208  0.00  0.00    +0.000 HD
ENDROOT
BRANCH   3   5
ATOM      5  CA  UNL     1      -8.506   1.658 124.664  0.00  0.00    +0.000 C 
ATOM      6  C   UNL     1      -7.577   2.902 124.565  0.00  0.00    +0.000 C 
ATOM      7  C   UNL     1      -6.092   2.751 124.785  0.00  0.00    +0.000 C 
ATOM      8  C   UNL     1      -5.378   3.844 124.011  0.00  0.00    +0.000 C 
ATOM      9  C   UNL     1      -5.894   4.028 122.604  0.00  0.00    +0.000 C 
ATOM     10 CL   UNL     1      -4.699   4.819 121.622  0.00  0.00    +0.000 Cl
ATOM     11  CA  UNL     1      -7.112   3.593 122.198  0.00  0.00    +0.000 C 
ATOM     12  N   UNL     1      -7.901   2.960 123.136  0.00  0.00    +0.000 N 
ATOM     13  C   UNL     1      -8.841   1.994 123.147  0.00  0.00    +0.000 C 
ATOM     14  O   UNL     1      -9.513   1.579 122.223  0.00  0.00    +0.000 OA
BRANCH  11  15
ATOM     15  C   UNL     1      -7.552   3.818 120.765  0.00  0.00    +0.000 C 
ATOM     16  OXT UNL     1      -6.793   3.800 119.807  0.00  0.00    +0.000 OA
BRANCH  15  17
ATOM     17  O   UNL     1      -8.847   4.135 120.566  0.00  0.00    +0.000 OA
ATOM     18  H   UNL     1      -9.048   4.928 120.028  0.00  0.00    +0.000 HD
ENDBRANCH  15  17
ENDBRANCH  11  15
ENDBRANCH   3   5
BRANCH   1  19
ATOM     19  CA  UNL     1      -7.711  -2.099 125.240  0.00  0.00    +0.000 C 
BRANCH  19  20
ATOM     20  C   UNL     1      -7.929  -2.552 126.668  0.00  0.00    +0.000 A 
ATOM     21  C   UNL     1      -8.760  -3.658 126.923  0.00  0.00    +0.000 A 
ATOM     22  C   UNL     1      -9.095  -4.013 128.222  0.00  0.00    +0.000 A 
ATOM     23  C   UNL     1      -8.518  -3.333 129.288  0.00  0.00    +0.000 A 
ATOM     24  C   UNL     1      -7.668  -2.250 129.054  0.00  0.00    +0.000 A 
ATOM     25  C   UNL     1      -7.384  -1.848 127.747  0.00  0.00    +0.000 A 
ENDBRANCH  19  20
BRANCH  19  26
ATOM     26  N   UNL     1      -8.081  -3.181 124.307  0.00  0.00    +0.000 NA
ATOM     27  H1  UNL     1      -8.950  -3.630 124.564  0.00  0.00    +0.000 HD
ATOM     28  H2  UNL     1      -7.354  -3.898 124.340  0.00  0.00    +0.000 HD
ENDBRANCH  19  26
ENDBRANCH   1  19
TORSDOF 6
ENDMDL
MODEL 5
REMARK VINA RESULT:      -7.2      1.842      2.157
REMARK  Name = Loracarbef
REMARK  6 active torsions:
REMARK  status: ('A' for Active; 'I' for Inactive)
REMARK    1  A    between atoms: N_1  and  CA_2
REMARK    2  A    between atoms: CA_2  and  C_3
REMARK    3  A    between atoms: CA_2  and  C_19
REMARK    4  A    between atoms: N_5  and  CA_6
REMARK    5  A    between atoms: CA_12  and  C_16
REMARK    6  A    between atoms: C_16  and  O_17
REMARK                            x       y       z     vdW  Elec       q    Type
REMARK                         _______ _______ _______ _____ _____    ______ ____
ROOT
ATOM      1  C   UNL     1      -9.429  -0.867 122.883  0.00  0.00    +0.000 C 
ATOM      2  O   UNL     1     -10.564  -0.555 122.533  0.00  0.00    +0.000 OA
ATOM      3  N   UNL     1      -8.559   0.111 123.308  0.00  0.00    +0.000 N 
ATOM      4  H   UNL     1      -7.690  -0.193 123.723  0.00  0.00    +0.000 HD
ENDROOT
BRANCH   3   5
ATOM      5  CA  UNL     1      -9.011   1.536 123.315  0.00  0.00    +0.000 C 
ATOM      6  C   UNL     1      -9.070   2.199 124.721  0.00  0.00    +0.000 C 
ATOM      7  C   UNL     1      -8.742   1.387 125.949  0.00  0.00    +0.000 C 
ATOM      8  C   UNL     1      -8.223   2.327 127.021  0.00  0.00    +0.000 C 
ATOM      9  C   UNL     1      -7.212   3.326 126.515  0.00  0.00    +0.000 C 
ATOM     10 CL   UNL     1      -6.250   3.931 127.829  0.00  0.00    +0.000 Cl
ATOM     11  CA  UNL     1      -7.084   3.653 125.205  0.00  0.00    +0.000 C 
ATOM     12  N   UNL     1      -7.935   3.033 124.314  0.00  0.00    +0.000 N 
ATOM     13  C   UNL     1      -7.899   2.635 123.026  0.00  0.00    +0.000 C 
ATOM     14  O   UNL     1      -7.151   2.999 122.141  0.00  0.00    +0.000 OA
BRANCH  11  15
ATOM     15  C   UNL     1      -6.041   4.667 124.781  0.00  0.00    +0.000 C 
ATOM     16  OXT UNL     1      -4.921   4.372 124.388  0.00  0.00    +0.000 OA
BRANCH  15  17
ATOM     17  O   UNL     1      -6.357   5.969 124.930  0.00  0.00    +0.000 OA
ATOM     18  H   UNL     1      -6.754   6.436 124.167  0.00  0.00    +0.000 HD
ENDBRANCH  15  17
ENDBRANCH  11  15
ENDBRANCH   3   5
BRANCH   1  19
ATOM     19  CA  UNL     1      -8.871  -2.324 122.920  0.00  0.00    +0.000 C 
BRANCH  19  20
ATOM     20  C   UNL     1      -7.704  -2.414 123.880  0.00  0.00    +0.000 A 
ATOM     21  C   UNL     1      -7.948  -2.458 125.264  0.00  0.00    +0.000 A 
ATOM     22  C   UNL     1      -6.903  -2.396 126.174  0.00  0.00    +0.000 A 
ATOM     23  C   UNL     1      -5.591  -2.399 125.713  0.00  0.00    +0.000 A 
ATOM     24  C   UNL     1      -5.329  -2.383 124.342  0.00  0.00    +0.000 A 
ATOM     25  C   UNL     1      -6.381  -2.375 123.423  0.00  0.00    +0.000 A 
ENDBRANCH  19  20
BRANCH  19  26
ATOM     26  N   UNL     1      -9.919  -3.288 123.313  0.00  0.00    +0.000 NA
ATOM     27  H1  UNL     1     -10.833  -2.857 123.375  0.00  0.00    +0.000 HD
ATOM     28  H2  UNL     1      -9.695  -3.647 124.242  0.00  0.00    +0.000 HD
ENDBRANCH  19  26
ENDBRANCH   1  19
TORSDOF 6
ENDMDL
MODEL 6
REMARK VINA RESULT:      -7.1      8.237     10.041
REMARK  Name = Loracarbef
REMARK  6 active torsions:
REMARK  status: ('A' for Active; 'I' for Inactive)
REMARK    1  A    between atoms: N_1  and  CA_2
REMARK    2  A    between atoms: CA_2  and  C_3
REMARK    3  A    between atoms: CA_2  and  C_19
REMARK    4  A    between atoms: N_5  and  CA_6
REMARK    5  A    between atoms: CA_12  and  C_16
REMARK    6  A    between atoms: C_16  and  O_17
REMARK                            x       y       z     vdW  Elec       q    Type
REMARK                         _______ _______ _______ _____ _____    ______ ____
ROOT
ATOM      1  C   UNL     1      -7.594   4.559 131.932  0.00  0.00    +0.000 C 
ATOM      2  O   UNL     1      -7.331   3.612 131.195  0.00  0.00    +0.000 OA
ATOM      3  N   UNL     1      -8.828   5.162 131.844  0.00  0.00    +0.000 N 
ATOM      4  H   UNL     1      -9.064   5.838 132.557  0.00  0.00    +0.000 HD
ENDROOT
BRANCH   3   5
ATOM      5  CA  UNL     1      -9.814   4.663 130.837  0.00  0.00    +0.000 C 
ATOM      6  C   UNL     1     -11.197   5.375 130.865  0.00  0.00    +0.000 C 
ATOM      7  C   UNL     1     -11.475   6.439 131.898  0.00  0.00    +0.000 C 
ATOM      8  C   UNL     1     -12.513   7.393 131.337  0.00  0.00    +0.000 C 
ATOM      9  C   UNL     1     -12.248   7.810 129.912  0.00  0.00    +0.000 C 
ATOM     10 CL   UNL     1     -13.075   9.294 129.552  0.00  0.00    +0.000 Cl
ATOM     11  CA  UNL     1     -11.443   7.112 129.072  0.00  0.00    +0.000 C 
ATOM     12  N   UNL     1     -10.856   5.967 129.568  0.00  0.00    +0.000 N 
ATOM     13  C   UNL     1      -9.712   5.280 129.375  0.00  0.00    +0.000 C 
ATOM     14  O   UNL     1      -8.949   5.326 128.431  0.00  0.00    +0.000 OA
BRANCH  11  15
ATOM     15  C   UNL     1     -11.229   7.603 127.654  0.00  0.00    +0.000 C 
ATOM     16  OXT UNL     1     -11.541   6.967 126.657  0.00  0.00    +0.000 OA
BRANCH  15  17
ATOM     17  O   UNL     1     -10.583   8.775 127.504  0.00  0.00    +0.000 OA
ATOM     18  H   UNL     1      -9.618   8.793 127.671  0.00  0.00    +0.000 HD
ENDBRANCH  15  17
ENDBRANCH  11  15
ENDBRANCH   3   5
BRANCH   1  19
ATOM     19  CA  UNL     1      -6.637   5.143 133.018  0.00  0.00    +0.000 C 
BRANCH  19  20
ATOM     20  C   UNL     1      -5.573   6.003 132.370  0.00  0.00    +0.000 A 
ATOM     21  C   UNL     1      -4.347   6.201 133.030  0.00  0.00    +0.000 A 
ATOM     22  C   UNL     1      -3.408   7.094 132.535  0.00  0.00    +0.000 A 
ATOM     23  C   UNL     1      -3.635   7.722 131.316  0.00  0.00    +0.000 A 
ATOM     24  C   UNL     1      -4.834   7.516 130.632  0.00  0.00    +0.000 A 
ATOM     25  C   UNL     1      -5.811   6.670 131.163  0.00  0.00    +0.000 A 
ENDBRANCH  19  20
BRANCH  19  26
ATOM     26  N   UNL     1      -7.383   5.934 134.017  0.00  0.00    +0.000 NA
ATOM     27  H1  UNL     1      -8.342   6.097 133.739  0.00  0.00    +0.000 HD
ATOM     28  H2  UNL     1      -6.937   6.848 134.102  0.00  0.00    +0.000 HD
ENDBRANCH  19  26
ENDBRANCH   1  19
TORSDOF 6
ENDMDL
MODEL 7
REMARK VINA RESULT:      -7.0      6.862      9.015
REMARK  Name = Loracarbef
REMARK  6 active torsions:
REMARK  status: ('A' for Active; 'I' for Inactive)
REMARK    1  A    between atoms: N_1  and  CA_2
REMARK    2  A    between atoms: CA_2  and  C_3
REMARK    3  A    between atoms: CA_2  and  C_19
REMARK    4  A    between atoms: N_5  and  CA_6
REMARK    5  A    between atoms: CA_12  and  C_16
REMARK    6  A    between atoms: C_16  and  O_17
REMARK                            x       y       z     vdW  Elec       q    Type
REMARK                         _______ _______ _______ _____ _____    ______ ____
ROOT
ATOM      1  C   UNL     1      -9.094   5.725 131.447  0.00  0.00    +0.000 C 
ATOM      2  O   UNL     1      -8.990   6.507 132.388  0.00  0.00    +0.000 OA
ATOM      3  N   UNL     1      -7.966   5.111 130.951  0.00  0.00    +0.000 N 
ATOM      4  H   UNL     1      -8.102   4.370 130.278  0.00  0.00    +0.000 HD
ENDROOT
BRANCH   3   5
ATOM      5  CA  UNL     1      -6.637   5.426 131.558  0.00  0.00    +0.000 C 
ATOM      6  C   UNL     1      -5.510   4.403 131.235  0.00  0.00    +0.000 C 
ATOM      7  C   UNL     1      -5.820   3.175 130.416  0.00  0.00    +0.000 C 
ATOM      8  C   UNL     1      -4.554   2.743 129.699  0.00  0.00    +0.000 C 
ATOM      9  C   UNL     1      -3.803   3.882 129.054  0.00  0.00    +0.000 C 
ATOM     10 CL   UNL     1      -2.761   3.284 127.800  0.00  0.00    +0.000 Cl
ATOM     11  CA  UNL     1      -3.973   5.179 129.411  0.00  0.00    +0.000 C 
ATOM     12  N   UNL     1      -4.876   5.443 130.419  0.00  0.00    +0.000 N 
ATOM     13  C   UNL     1      -5.714   6.444 130.759  0.00  0.00    +0.000 C 
ATOM     14  O   UNL     1      -5.693   7.605 130.400  0.00  0.00    +0.000 OA
BRANCH  11  15
ATOM     15  C   UNL     1      -3.178   6.263 128.709  0.00  0.00    +0.000 C 
ATOM     16  OXT UNL     1      -1.978   6.437 128.862  0.00  0.00    +0.000 OA
BRANCH  15  17
ATOM     17  O   UNL     1      -3.869   7.125 127.938  0.00  0.00    +0.000 OA
ATOM     18  H   UNL     1      -4.687   6.803 127.507  0.00  0.00    +0.000 HD
ENDBRANCH  15  17
ENDBRANCH  11  15
ENDBRANCH   3   5
BRANCH   1  19
ATOM     19  CA  UNL     1     -10.435   5.326 130.756  0.00  0.00    +0.000 C 
BRANCH  19  20
ATOM     20  C   UNL     1     -11.032   6.520 130.043  0.00  0.00    +0.000 A 
ATOM     21  C   UNL     1     -10.385   7.044 128.909  0.00  0.00    +0.000 A 
ATOM     22  C   UNL     1     -10.825   8.219 128.318  0.00  0.00    +0.000 A 
ATOM     23  C   UNL     1     -11.982   8.831 128.786  0.00  0.00    +0.000 A 
ATOM     24  C   UNL     1     -12.654   8.310 129.893  0.00  0.00    +0.000 A 
ATOM     25  C   UNL     1     -12.174   7.165 130.533  0.00  0.00    +0.000 A 
ENDBRANCH  19  20
BRANCH  19  26
ATOM     26  N   UNL     1     -10.234   4.219 129.800  0.00  0.00    +0.000 NA
ATOM     27  H1  UNL     1      -9.431   4.369 129.202  0.00  0.00    +0.000 HD
ATOM     28  H2  UNL     1     -11.052   4.166 129.192  0.00  0.00    +0.000 HD
ENDBRANCH  19  26
ENDBRANCH   1  19
TORSDOF 6
ENDMDL
MODEL 8
REMARK VINA RESULT:      -6.8      7.717     10.240
REMARK  Name = Loracarbef
REMARK  6 active torsions:
REMARK  status: ('A' for Active; 'I' for Inactive)
REMARK    1  A    between atoms: N_1  and  CA_2
REMARK    2  A    between atoms: CA_2  and  C_3
REMARK    3  A    between atoms: CA_2  and  C_19
REMARK    4  A    between atoms: N_5  and  CA_6
REMARK    5  A    between atoms: CA_12  and  C_16
REMARK    6  A    between atoms: C_16  and  O_17
REMARK                            x       y       z     vdW  Elec       q    Type
REMARK                         _______ _______ _______ _____ _____    ______ ____
ROOT
ATOM      1  C   UNL     1     -10.024   6.702 130.508  0.00  0.00    +0.000 C 
ATOM      2  O   UNL     1      -9.305   7.368 129.769  0.00  0.00    +0.000 OA
ATOM      3  N   UNL     1      -9.602   5.460 130.924  0.00  0.00    +0.000 N 
ATOM      4  H   UNL     1     -10.147   5.003 131.642  0.00  0.00    +0.000 HD
ENDROOT
BRANCH   3   5
ATOM      5  CA  UNL     1      -8.283   4.940 130.449  0.00  0.00    +0.000 C 
ATOM      6  C   UNL     1      -7.105   5.131 131.446  0.00  0.00    +0.000 C 
ATOM      7  C   UNL     1      -7.334   5.851 132.752  0.00  0.00    +0.000 C 
ATOM      8  C   UNL     1      -6.327   5.339 133.765  0.00  0.00    +0.000 C 
ATOM      9  C   UNL     1      -6.184   3.836 133.773  0.00  0.00    +0.000 C 
ATOM     10 CL   UNL     1      -5.518   3.301 135.286  0.00  0.00    +0.000 Cl
ATOM     11  CA  UNL     1      -6.564   3.049 132.737  0.00  0.00    +0.000 C 
ATOM     12  N   UNL     1      -7.099   3.678 131.632  0.00  0.00    +0.000 N 
ATOM     13  C   UNL     1      -8.006   3.391 130.675  0.00  0.00    +0.000 C 
ATOM     14  O   UNL     1      -8.426   2.305 130.328  0.00  0.00    +0.000 OA
BRANCH  11  15
ATOM     15  C   UNL     1      -6.386   1.547 132.828  0.00  0.00    +0.000 C 
ATOM     16  OXT UNL     1      -5.491   0.930 132.268  0.00  0.00    +0.000 OA
BRANCH  15  17
ATOM     17  O   UNL     1      -7.327   0.860 133.505  0.00  0.00    +0.000 OA
ATOM     18  H   UNL     1      -7.038   0.303 134.256  0.00  0.00    +0.000 HD
ENDBRANCH  15  17
ENDBRANCH  11  15
ENDBRANCH   3   5
BRANCH   1  19
ATOM     19  CA  UNL     1     -11.408   7.161 131.064  0.00  0.00    +0.000 C 
BRANCH  19  20
ATOM     20  C   UNL     1     -12.325   7.556 129.926  0.00  0.00    +0.000 A 
ATOM     21  C   UNL     1     -12.866   6.558 129.096  0.00  0.00    +0.000 A 
ATOM     22  C   UNL     1     -13.593   6.892 127.962  0.00  0.00    +0.000 A 
ATOM     23  C   UNL     1     -13.880   8.226 127.700  0.00  0.00    +0.000 A 
ATOM     24  C   UNL     1     -13.375   9.230 128.529  0.00  0.00    +0.000 A 
ATOM     25  C   UNL     1     -12.585   8.900 129.633  0.00  0.00    +0.000 A 
ENDBRANCH  19  20
BRANCH  19  26
ATOM     26  N   UNL     1     -12.039   6.098 131.872  0.00  0.00    +0.000 NA
ATOM     27  H1  UNL     1     -12.018   5.199 131.407  0.00  0.00    +0.000 HD
ATOM     28  H2  UNL     1     -13.021   6.339 132.011  0.00  0.00    +0.000 HD
ENDBRANCH  19  26
ENDBRANCH   1  19
TORSDOF 6
ENDMDL
MODEL 9
REMARK VINA RESULT:      -6.8      3.293      4.455
REMARK  Name = Loracarbef
REMARK  6 active torsions:
REMARK  status: ('A' for Active; 'I' for Inactive)
REMARK    1  A    between atoms: N_1  and  CA_2
REMARK    2  A    between atoms: CA_2  and  C_3
REMARK    3  A    between atoms: CA_2  and  C_19
REMARK    4  A    between atoms: N_5  and  CA_6
REMARK    5  A    between atoms: CA_12  and  C_16
REMARK    6  A    between atoms: C_16  and  O_17
REMARK                            x       y       z     vdW  Elec       q    Type
REMARK                         _______ _______ _______ _____ _____    ______ ____
ROOT
ATOM      1  C   UNL     1      -6.333  -0.305 129.546  0.00  0.00    +0.000 C 
ATOM      2  O   UNL     1      -7.079   0.038 130.459  0.00  0.00    +0.000 OA
ATOM      3  N   UNL     1      -5.792   0.653 128.719  0.00  0.00    +0.000 N 
ATOM      4  H   UNL     1      -5.074   0.354 128.074  0.00  0.00    +0.000 HD
ENDROOT
BRANCH   3   5
ATOM      5  CA  UNL     1      -6.141   2.090 128.940  0.00  0.00    +0.000 C 
ATOM      6  C   UNL     1      -5.392   3.096 128.020  0.00  0.00    +0.000 C 
ATOM      7  C   UNL     1      -4.358   2.595 127.042  0.00  0.00    +0.000 C 
ATOM      8  C   UNL     1      -4.289   3.565 125.877  0.00  0.00    +0.000 C 
ATOM      9  C   UNL     1      -5.642   3.987 125.358  0.00  0.00    +0.000 C 
ATOM     10 CL   UNL     1      -5.507   4.575 123.728  0.00  0.00    +0.000 Cl
ATOM     11  CA  UNL     1      -6.783   3.877 126.083  0.00  0.00    +0.000 C 
ATOM     12  N   UNL     1      -6.673   3.356 127.355  0.00  0.00    +0.000 N 
ATOM     13  C   UNL     1      -7.438   2.629 128.194  0.00  0.00    +0.000 C 
ATOM     14  O   UNL     1      -8.641   2.461 128.172  0.00  0.00    +0.000 OA
BRANCH  11  15
ATOM     15  C   UNL     1      -8.101   4.324 125.484  0.00  0.00    +0.000 C 
ATOM     16  OXT UNL     1      -8.904   3.567 124.958  0.00  0.00    +0.000 OA
BRANCH  15  17
ATOM     17  O   UNL     1      -8.347   5.649 125.469  0.00  0.00    +0.000 OA
ATOM     18  H   UNL     1      -9.216   5.959 125.797  0.00  0.00    +0.000 HD
ENDBRANCH  15  17
ENDBRANCH  11  15
ENDBRANCH   3   5
BRANCH   1  19
ATOM     19  CA  UNL     1      -5.902  -1.774 129.243  0.00  0.00    +0.000 C 
BRANCH  19  20
ATOM     20  C   UNL     1      -6.964  -2.472 128.421  0.00  0.00    +0.000 A 
ATOM     21  C   UNL     1      -7.036  -2.231 127.037  0.00  0.00    +0.000 A 
ATOM     22  C   UNL     1      -8.081  -2.741 126.279  0.00  0.00    +0.000 A 
ATOM     23  C   UNL     1      -9.010  -3.587 126.874  0.00  0.00    +0.000 A 
ATOM     24  C   UNL     1      -8.938  -3.860 128.241  0.00  0.00    +0.000 A 
ATOM     25  C   UNL     1      -7.927  -3.293 129.020  0.00  0.00    +0.000 A 
ENDBRANCH  19  20
BRANCH  19  26
ATOM     26  N   UNL     1      -4.608  -1.816 128.533  0.00  0.00    +0.000 NA
ATOM     27  H1  UNL     1      -4.173  -2.728 128.583  0.00  0.00    +0.000 HD
ATOM     28  H2  UNL     1      -3.972  -1.156 128.984  0.00  0.00    +0.000 HD
ENDBRANCH  19  26
ENDBRANCH   1  19
TORSDOF 6
ENDMDL
