MODEL 1
REMARK VINA RESULT:      -6.2      0.000      0.000
REMARK  Name = Lorcaserin
REMARK  1 active torsions:
REMARK  status: ('A' for Active; 'I' for Inactive)
REMARK    1  A    between atoms: C_1  and  C_2
REMARK                            x       y       z     vdW  Elec       q    Type
REMARK                         _______ _______ _______ _____ _____    ______ ____
ROOT
ATOM      1  C   UNL     1      -8.903  -3.583 126.598  0.00  0.00    +0.000 C 
ATOM      2  C   UNL     1      -8.944  -2.494 125.512  0.00  0.00    +0.000 C 
ATOM      3  C   UNL     1      -9.011  -1.071 126.148  0.00  0.00    +0.000 C 
ATOM      4  N   UNL     1      -9.689  -0.039 125.337  0.00  0.00    +0.000 NA
ATOM      5  C   UNL     1      -9.005   0.278 124.079  0.00  0.00    +0.000 C 
ATOM      6  C   UNL     1      -9.045  -0.877 123.078  0.00  0.00    +0.000 C 
ATOM      7  C   UNL     1      -7.874  -1.796 123.320  0.00  0.00    +0.000 A 
ATOM      8  C   UNL     1      -6.809  -1.779 122.402  0.00  0.00    +0.000 A 
ATOM      9  C   UNL     1      -5.674  -2.551 122.625  0.00  0.00    +0.000 A 
ATOM     10  C   UNL     1      -5.606  -3.348 123.760  0.00  0.00    +0.000 A 
ATOM     11 CL   UNL     1      -4.201  -4.305 124.034  0.00  0.00    +0.000 Cl
ATOM     12  C   UNL     1      -6.654  -3.368 124.688  0.00  0.00    +0.000 A 
ATOM     13  C   UNL     1      -7.803  -2.579 124.491  0.00  0.00    +0.000 A 
ATOM     14  H   UNL     1      -9.751   0.818 125.888  0.00  0.00    +0.000 HD
ENDROOT
TORSDOF 0
ENDMDL
MODEL 2
REMARK VINA RESULT:      -5.7      2.755      3.274
REMARK  Name = Lorcaserin
REMARK  1 active torsions:
REMARK  status: ('A' for Active; 'I' for Inactive)
REMARK    1  A    between atoms: C_1  and  C_2
REMARK                            x       y       z     vdW  Elec       q    Type
REMARK                         _______ _______ _______ _____ _____    ______ ____
ROOT
ATOM      1  C   UNL     1      -8.800  -3.775 128.051  0.00  0.00    +0.000 C 
ATOM      2  C   UNL     1      -8.466  -3.439 126.587  0.00  0.00    +0.000 C 
ATOM      3  C   UNL     1      -9.732  -2.943 125.823  0.00  0.00    +0.000 C 
ATOM      4  N   UNL     1      -9.749  -3.208 124.371  0.00  0.00    +0.000 NA
ATOM      5  C   UNL     1      -8.707  -2.498 123.621  0.00  0.00    +0.000 C 
ATOM      6  C   UNL     1      -7.300  -3.005 123.941  0.00  0.00    +0.000 C 
ATOM      7  C   UNL     1      -6.753  -2.259 125.133  0.00  0.00    +0.000 A 
ATOM      8  C   UNL     1      -5.750  -1.298 124.918  0.00  0.00    +0.000 A 
ATOM      9  C   UNL     1      -5.271  -0.532 125.976  0.00  0.00    +0.000 A 
ATOM     10  C   UNL     1      -5.787  -0.731 127.248  0.00  0.00    +0.000 A 
ATOM     11 CL   UNL     1      -5.193   0.217 128.557  0.00  0.00    +0.000 Cl
ATOM     12  C   UNL     1      -6.794  -1.678 127.475  0.00  0.00    +0.000 A 
ATOM     13  C   UNL     1      -7.307  -2.450 126.416  0.00  0.00    +0.000 A 
ATOM     14  H   UNL     1     -10.656  -2.923 123.999  0.00  0.00    +0.000 HD
ENDROOT
TORSDOF 0
ENDMDL
MODEL 3
REMARK VINA RESULT:      -5.7      2.686      3.899
REMARK  Name = Lorcaserin
REMARK  1 active torsions:
REMARK  status: ('A' for Active; 'I' for Inactive)
REMARK    1  A    between atoms: C_1  and  C_2
REMARK                            x       y       z     vdW  Elec       q    Type
REMARK                         _______ _______ _______ _____ _____    ______ ____
ROOT
ATOM      1  C   UNL     1      -9.603  -3.291 123.254  0.00  0.00    +0.000 C 
ATOM      2  C   UNL     1      -8.447  -2.436 123.800  0.00  0.00    +0.000 C 
ATOM      3  C   UNL     1      -8.686  -0.922 123.514  0.00  0.00    +0.000 C 
ATOM      4  N   UNL     1      -7.469  -0.097 123.368  0.00  0.00    +0.000 NA
ATOM      5  C   UNL     1      -6.663  -0.000 124.588  0.00  0.00    +0.000 C 
ATOM      6  C   UNL     1      -6.008  -1.328 124.971  0.00  0.00    +0.000 C 
ATOM      7  C   UNL     1      -6.955  -2.129 125.830  0.00  0.00    +0.000 A 
ATOM      8  C   UNL     1      -6.680  -2.242 127.204  0.00  0.00    +0.000 A 
ATOM      9  C   UNL     1      -7.566  -2.905 128.046  0.00  0.00    +0.000 A 
ATOM     10  C   UNL     1      -8.720  -3.464 127.516  0.00  0.00    +0.000 A 
ATOM     11 CL   UNL     1      -9.815  -4.286 128.561  0.00  0.00    +0.000 Cl
ATOM     12  C   UNL     1      -9.012  -3.350 126.152  0.00  0.00    +0.000 A 
ATOM     13  C   UNL     1      -8.140  -2.666 125.284  0.00  0.00    +0.000 A 
ATOM     14  H   UNL     1      -7.747   0.846 123.096  0.00  0.00    +0.000 HD
ENDROOT
TORSDOF 0
ENDMDL
MODEL 4
REMARK VINA RESULT:      -5.6      2.943      4.609
REMARK  Name = Lorcaserin
REMARK  1 active torsions:
REMARK  status: ('A' for Active; 'I' for Inactive)
REMARK    1  A    between atoms: C_1  and  C_2
REMARK                            x       y       z     vdW  Elec       q    Type
REMARK                         _______ _______ _______ _____ _____    ______ ____
ROOT
ATOM      1  C   UNL     1      -5.551  -0.566 125.823  0.00  0.00    +0.000 C 
ATOM      2  C   UNL     1      -6.759  -1.491 125.595  0.00  0.00    +0.000 C 
ATOM      3  C   UNL     1      -6.489  -2.487 124.425  0.00  0.00    +0.000 C 
ATOM      4  N   UNL     1      -7.682  -2.943 123.683  0.00  0.00    +0.000 NA
ATOM      5  C   UNL     1      -8.616  -3.740 124.484  0.00  0.00    +0.000 C 
ATOM      6  C   UNL     1      -9.310  -2.920 125.573  0.00  0.00    +0.000 C 
ATOM      7  C   UNL     1      -8.463  -2.918 126.821  0.00  0.00    +0.000 A 
ATOM      8  C   UNL     1      -8.885  -3.688 127.919  0.00  0.00    +0.000 A 
ATOM      9  C   UNL     1      -8.096  -3.777 129.061  0.00  0.00    +0.000 A 
ATOM     10  C   UNL     1      -6.892  -3.091 129.111  0.00  0.00    +0.000 A 
ATOM     11 CL   UNL     1      -5.917  -3.201 130.527  0.00  0.00    +0.000 Cl
ATOM     12  C   UNL     1      -6.453  -2.328 128.022  0.00  0.00    +0.000 A 
ATOM     13  C   UNL     1      -7.226  -2.239 126.849  0.00  0.00    +0.000 A 
ATOM     14  H   UNL     1      -7.376  -3.513 122.894  0.00  0.00    +0.000 HD
ENDROOT
TORSDOF 0
ENDMDL
MODEL 5
REMARK VINA RESULT:      -5.5      2.396      3.521
REMARK  Name = Lorcaserin
REMARK  1 active torsions:
REMARK  status: ('A' for Active; 'I' for Inactive)
REMARK    1  A    between atoms: C_1  and  C_2
REMARK                            x       y       z     vdW  Elec       q    Type
REMARK                         _______ _______ _______ _____ _____    ______ ____
ROOT
ATOM      1  C   UNL     1      -5.781   1.905 125.714  0.00  0.00    +0.000 C 
ATOM      2  C   UNL     1      -7.031   1.856 124.818  0.00  0.00    +0.000 C 
ATOM      3  C   UNL     1      -6.961   2.941 123.700  0.00  0.00    +0.000 C 
ATOM      4  N   UNL     1      -8.262   3.449 123.219  0.00  0.00    +0.000 NA
ATOM      5  C   UNL     1      -9.084   2.441 122.542  0.00  0.00    +0.000 C 
ATOM      6  C   UNL     1      -9.588   1.355 123.493  0.00  0.00    +0.000 C 
ATOM      7  C   UNL     1      -8.565   0.252 123.589  0.00  0.00    +0.000 A 
ATOM      8  C   UNL     1      -8.836  -0.971 122.949  0.00  0.00    +0.000 A 
ATOM      9  C   UNL     1      -7.888  -1.989 122.945  0.00  0.00    +0.000 A 
ATOM     10  C   UNL     1      -6.674  -1.790 123.586  0.00  0.00    +0.000 A 
ATOM     11 CL   UNL     1      -5.502  -3.052 123.582  0.00  0.00    +0.000 Cl
ATOM     12  C   UNL     1      -6.386  -0.574 124.218  0.00  0.00    +0.000 A 
ATOM     13  C   UNL     1      -7.322   0.476 124.218  0.00  0.00    +0.000 A 
ATOM     14  H   UNL     1      -8.090   4.211 122.561  0.00  0.00    +0.000 HD
ENDROOT
TORSDOF 0
ENDMDL
MODEL 6
REMARK VINA RESULT:      -5.2     10.184     11.819
REMARK  Name = Lorcaserin
REMARK  1 active torsions:
REMARK  status: ('A' for Active; 'I' for Inactive)
REMARK    1  A    between atoms: C_1  and  C_2
REMARK                            x       y       z     vdW  Elec       q    Type
REMARK                         _______ _______ _______ _____ _____    ______ ____
ROOT
ATOM      1  C   UNL     1     -13.202   9.745 129.879  0.00  0.00    +0.000 C 
ATOM      2  C   UNL     1     -12.307   8.556 130.267  0.00  0.00    +0.000 C 
ATOM      3  C   UNL     1     -13.135   7.439 130.974  0.00  0.00    +0.000 C 
ATOM      4  N   UNL     1     -12.392   6.606 131.941  0.00  0.00    +0.000 NA
ATOM      5  C   UNL     1     -11.332   5.792 131.338  0.00  0.00    +0.000 C 
ATOM      6  C   UNL     1     -10.171   6.633 130.807  0.00  0.00    +0.000 C 
ATOM      7  C   UNL     1     -10.461   7.054 129.387  0.00  0.00    +0.000 A 
ATOM      8  C   UNL     1      -9.749   6.432 128.346  0.00  0.00    +0.000 A 
ATOM      9  C   UNL     1     -10.037   6.732 127.019  0.00  0.00    +0.000 A 
ATOM     10  C   UNL     1     -11.029   7.659 126.731  0.00  0.00    +0.000 A 
ATOM     11 CL   UNL     1     -11.384   8.030 125.087  0.00  0.00    +0.000 Cl
ATOM     12  C   UNL     1     -11.753   8.278 127.757  0.00  0.00    +0.000 A 
ATOM     13  C   UNL     1     -11.491   7.975 129.106  0.00  0.00    +0.000 A 
ATOM     14  H   UNL     1     -13.051   5.976 132.401  0.00  0.00    +0.000 HD
ENDROOT
TORSDOF 0
ENDMDL
MODEL 7
REMARK VINA RESULT:      -5.1      2.937      4.578
REMARK  Name = Lorcaserin
REMARK  1 active torsions:
REMARK  status: ('A' for Active; 'I' for Inactive)
REMARK    1  A    between atoms: C_1  and  C_2
REMARK                            x       y       z     vdW  Elec       q    Type
REMARK                         _______ _______ _______ _____ _____    ______ ____
ROOT
ATOM      1  C   UNL     1      -6.992   0.935 127.335  0.00  0.00    +0.000 C 
ATOM      2  C   UNL     1      -7.475  -0.206 126.423  0.00  0.00    +0.000 C 
ATOM      3  C   UNL     1      -6.402  -0.556 125.347  0.00  0.00    +0.000 C 
ATOM      4  N   UNL     1      -6.922  -1.101 124.077  0.00  0.00    +0.000 NA
ATOM      5  C   UNL     1      -7.581  -2.405 124.212  0.00  0.00    +0.000 C 
ATOM      6  C   UNL     1      -8.892  -2.327 124.994  0.00  0.00    +0.000 C 
ATOM      7  C   UNL     1      -8.610  -2.475 126.468  0.00  0.00    +0.000 A 
ATOM      8  C   UNL     1      -8.959  -3.683 127.099  0.00  0.00    +0.000 A 
ATOM      9  C   UNL     1      -8.648  -3.893 128.438  0.00  0.00    +0.000 A 
ATOM     10  C   UNL     1      -7.997  -2.896 129.150  0.00  0.00    +0.000 A 
ATOM     11 CL   UNL     1      -7.614  -3.157 130.808  0.00  0.00    +0.000 Cl
ATOM     12  C   UNL     1      -7.634  -1.692 128.533  0.00  0.00    +0.000 A 
ATOM     13  C   UNL     1      -7.922  -1.466 127.174  0.00  0.00    +0.000 A 
ATOM     14  H   UNL     1      -6.144  -1.206 123.425  0.00  0.00    +0.000 HD
ENDROOT
TORSDOF 0
ENDMDL
MODEL 8
REMARK VINA RESULT:      -5.1     10.863     11.745
REMARK  Name = Lorcaserin
REMARK  1 active torsions:
REMARK  status: ('A' for Active; 'I' for Inactive)
REMARK    1  A    between atoms: C_1  and  C_2
REMARK                            x       y       z     vdW  Elec       q    Type
REMARK                         _______ _______ _______ _____ _____    ______ ____
ROOT
ATOM      1  C   UNL     1      -8.306   4.519 134.708  0.00  0.00    +0.000 C 
ATOM      2  C   UNL     1      -7.467   5.086 133.549  0.00  0.00    +0.000 C 
ATOM      3  C   UNL     1      -6.607   3.969 132.882  0.00  0.00    +0.000 C 
ATOM      4  N   UNL     1      -5.343   4.418 132.262  0.00  0.00    +0.000 NA
ATOM      5  C   UNL     1      -5.525   5.316 131.117  0.00  0.00    +0.000 C 
ATOM      6  C   UNL     1      -6.093   6.678 131.518  0.00  0.00    +0.000 C 
ATOM      7  C   UNL     1      -7.600   6.614 131.528  0.00  0.00    +0.000 A 
ATOM      8  C   UNL     1      -8.304   7.254 130.492  0.00  0.00    +0.000 A 
ATOM      9  C   UNL     1      -9.689   7.156 130.418  0.00  0.00    +0.000 A 
ATOM     10  C   UNL     1     -10.373   6.428 131.381  0.00  0.00    +0.000 A 
ATOM     11 CL   UNL     1     -12.088   6.309 131.288  0.00  0.00    +0.000 Cl
ATOM     12  C   UNL     1      -9.684   5.777 132.412  0.00  0.00    +0.000 A 
ATOM     13  C   UNL     1      -8.281   5.846 132.495  0.00  0.00    +0.000 A 
ATOM     14  H   UNL     1      -4.828   3.597 131.942  0.00  0.00    +0.000 HD
ENDROOT
TORSDOF 0
ENDMDL
MODEL 9
REMARK VINA RESULT:      -5.0     10.196     11.027
REMARK  Name = Lorcaserin
REMARK  1 active torsions:
REMARK  status: ('A' for Active; 'I' for Inactive)
REMARK    1  A    between atoms: C_1  and  C_2
REMARK                            x       y       z     vdW  Elec       q    Type
REMARK                         _______ _______ _______ _____ _____    ______ ____
ROOT
ATOM      1  C   UNL     1      -4.142   2.881 131.998  0.00  0.00    +0.000 C 
ATOM      2  C   UNL     1      -3.326   4.185 131.967  0.00  0.00    +0.000 C 
ATOM      3  C   UNL     1      -1.995   4.031 132.765  0.00  0.00    +0.000 C 
ATOM      4  N   UNL     1      -1.463   5.270 133.368  0.00  0.00    +0.000 NA
ATOM      5  C   UNL     1      -1.056   6.284 132.389  0.00  0.00    +0.000 C 
ATOM      6  C   UNL     1      -2.241   6.878 131.627  0.00  0.00    +0.000 C 
ATOM      7  C   UNL     1      -2.538   6.031 130.414  0.00  0.00    +0.000 A 
ATOM      8  C   UNL     1      -2.194   6.531 129.146  0.00  0.00    +0.000 A 
ATOM      9  C   UNL     1      -2.378   5.753 128.009  0.00  0.00    +0.000 A 
ATOM     10  C   UNL     1      -2.914   4.479 128.135  0.00  0.00    +0.000 A 
ATOM     11 CL   UNL     1      -3.143   3.517 126.725  0.00  0.00    +0.000 Cl
ATOM     12  C   UNL     1      -3.252   3.964 129.392  0.00  0.00    +0.000 A 
ATOM     13  C   UNL     1      -3.056   4.726 130.559  0.00  0.00    +0.000 A 
ATOM     14  H   UNL     1      -0.648   5.032 133.934  0.00  0.00    +0.000 HD
ENDROOT
TORSDOF 0
ENDMDL
