MODEL 1
REMARK VINA RESULT:      -9.5      0.000      0.000
REMARK  Name = Lorlatinib
REMARK  5 active torsions:
REMARK  status: ('A' for Active; 'I' for Inactive)
REMARK    1  A    between atoms: C_1  and  C_2
REMARK    2  A    between atoms: C_5  and  N_6
REMARK    3  A    between atoms: C_12  and  C_13
REMARK    4  A    between atoms: N_15  and  C_16
REMARK    5  A    between atoms: N_20  and  C_21
REMARK                            x       y       z     vdW  Elec       q    Type
REMARK                         _______ _______ _______ _____ _____    ______ ____
ROOT
ATOM      1  C   UNL     1      -8.170  -0.852 125.025  0.00  0.00    +0.000 C 
ATOM      2  C   UNL     1      -6.263  -0.348 125.834  0.00  0.00    +0.000 C 
ATOM      3  O   UNL     1      -4.706   1.139 126.364  0.00  0.00    +0.000 OA
ATOM      4  C   UNL     1      -3.688   2.673 127.303  0.00  0.00    +0.000 A 
ATOM      5  C   UNL     1      -3.291   4.575 127.933  0.00  0.00    +0.000 A 
ATOM      6  N   UNL     1      -3.888   5.763 127.535  0.00  0.00    +0.000 NA
ATOM      7  C   UNL     1      -4.689   5.269 126.705  0.00  0.00    +0.000 A 
ATOM      8  C   UNL     1      -4.330   3.997 126.073  0.00  0.00    +0.000 A 
ATOM      9  C   UNL     1      -3.143   3.369 126.410  0.00  0.00    +0.000 A 
ATOM     10  C   UNL     1      -5.485   3.270 125.744  0.00  0.00    +0.000 A 
ATOM     11  C   UNL     1      -5.855   3.090 124.412  0.00  0.00    +0.000 A 
ATOM     12  N   UNL     1      -6.583   1.932 124.408  0.00  0.00    +0.000 N 
ATOM     13  C   UNL     1      -7.374   1.102 123.469  0.00  0.00    +0.000 C 
ATOM     14  N   UNL     1      -6.880   1.676 125.672  0.00  0.00    +0.000 NA
ATOM     15  C   UNL     1      -6.219   2.368 126.612  0.00  0.00    +0.000 A 
ATOM     16  C   UNL     1      -5.609   1.502 128.156  0.00  0.00    +0.000 C 
ATOM     17  N   UNL     1      -6.144   0.203 128.411  0.00  0.00    +0.000 N 
ATOM     18  C   UNL     1      -5.917  -0.398 129.677  0.00  0.00    +0.000 C 
ATOM     19  C   UNL     1      -7.264  -0.195 127.806  0.00  0.00    +0.000 C 
ATOM     20  O   UNL     1      -8.037   0.367 127.050  0.00  0.00    +0.000 OA
ATOM     21  C   UNL     1      -7.352  -1.593 127.779  0.00  0.00    +0.000 A 
ATOM     22  C   UNL     1      -7.330  -1.930 126.540  0.00  0.00    +0.000 A 
ATOM     23  C   UNL     1      -8.561  -3.183 126.649  0.00  0.00    +0.000 A 
ATOM     24  C   UNL     1      -9.112  -3.815 127.987  0.00  0.00    +0.000 A 
ATOM     25  F   UNL     1     -10.026  -4.803 128.238  0.00  0.00    +0.000 F 
ATOM     26  C   UNL     1      -8.508  -3.396 129.095  0.00  0.00    +0.000 A 
ATOM     27  C   UNL     1      -7.617  -2.404 128.868  0.00  0.00    +0.000 A 
ENDROOT
BRANCH   5  28
ATOM     28  N   UNL     1      -2.090   5.922 128.438  0.00  0.00    +0.000 N 
ATOM     29  H   UNL     1      -1.052   6.309 128.533  0.00  0.00    +0.000 HD
ATOM     30  H   UNL     1      -2.405   7.079 128.879  0.00  0.00    +0.000 HD
ENDBRANCH   5  28
BRANCH  11  31
ATOM     31  C   UNL     1      -5.693   4.021 123.358  0.00  0.00    +0.000 C 
ATOM     32  N   UNL     1      -5.480   4.738 122.472  0.00  0.00    +0.000 NA
ENDBRANCH  11  31
TORSDOF 2
ENDMDL
MODEL 2
REMARK VINA RESULT:      -8.3      3.502      6.527
REMARK  Name = Lorlatinib
REMARK  5 active torsions:
REMARK  status: ('A' for Active; 'I' for Inactive)
REMARK    1  A    between atoms: C_1  and  C_2
REMARK    2  A    between atoms: C_5  and  N_6
REMARK    3  A    between atoms: C_12  and  C_13
REMARK    4  A    between atoms: N_15  and  C_16
REMARK    5  A    between atoms: N_20  and  C_21
REMARK                            x       y       z     vdW  Elec       q    Type
REMARK                         _______ _______ _______ _____ _____    ______ ____
ROOT
ATOM      1  C   UNL     1      -5.245   4.298 123.978  0.00  0.00    +0.000 C 
ATOM      2  C   UNL     1      -5.955   2.537 124.947  0.00  0.00    +0.000 C 
ATOM      3  O   UNL     1      -6.569   1.431 126.768  0.00  0.00    +0.000 OA
ATOM      4  C   UNL     1      -7.639   0.799 128.418  0.00  0.00    +0.000 A 
ATOM      5  C   UNL     1      -8.515   0.901 130.260  0.00  0.00    +0.000 A 
ATOM      6  N   UNL     1      -8.357   1.868 131.244  0.00  0.00    +0.000 NA
ATOM      7  C   UNL     1      -7.533   2.588 130.629  0.00  0.00    +0.000 A 
ATOM      8  C   UNL     1      -6.686   1.954 129.615  0.00  0.00    +0.000 A 
ATOM      9  C   UNL     1      -6.820   0.602 129.350  0.00  0.00    +0.000 A 
ATOM     10  C   UNL     1      -6.351   2.876 128.612  0.00  0.00    +0.000 A 
ATOM     11  C   UNL     1      -5.044   3.345 128.486  0.00  0.00    +0.000 A 
ATOM     12  N   UNL     1      -4.926   3.694 127.168  0.00  0.00    +0.000 N 
ATOM     13  C   UNL     1      -3.943   4.319 126.252  0.00  0.00    +0.000 C 
ATOM     14  N   UNL     1      -6.157   3.738 126.685  0.00  0.00    +0.000 NA
ATOM     15  C   UNL     1      -7.131   3.194 127.430  0.00  0.00    +0.000 A 
ATOM     16  C   UNL     1      -8.466   2.163 126.618  0.00  0.00    +0.000 C 
ATOM     17  N   UNL     1      -8.565   2.256 125.196  0.00  0.00    +0.000 N 
ATOM     18  C   UNL     1      -9.701   1.700 124.549  0.00  0.00    +0.000 C 
ATOM     19  C   UNL     1      -8.005   3.276 124.546  0.00  0.00    +0.000 C 
ATOM     20  O   UNL     1      -7.414   4.271 124.928  0.00  0.00    +0.000 OA
ATOM     21  C   UNL     1      -7.774   2.952 123.204  0.00  0.00    +0.000 A 
ATOM     22  C   UNL     1      -6.500   2.991 123.040  0.00  0.00    +0.000 A 
ATOM     23  C   UNL     1      -6.522   3.774 121.464  0.00  0.00    +0.000 A 
ATOM     24  C   UNL     1      -7.791   3.938 120.538  0.00  0.00    +0.000 A 
ATOM     25  F   UNL     1      -7.966   4.481 119.293  0.00  0.00    +0.000 F 
ATOM     26  C   UNL     1      -8.894   3.347 120.988  0.00  0.00    +0.000 A 
ATOM     27  C   UNL     1      -8.745   2.824 122.226  0.00  0.00    +0.000 A 
ENDROOT
BRANCH   5  28
ATOM     28  N   UNL     1      -9.115   0.096 131.843  0.00  0.00    +0.000 N 
ATOM     29  H   UNL     1      -9.943  -0.235 132.508  0.00  0.00    +0.000 HD
ATOM     30  H   UNL     1      -8.379  -0.464 132.724  0.00  0.00    +0.000 HD
ENDBRANCH   5  28
BRANCH  11  31
ATOM     31  C   UNL     1      -4.134   3.600 129.539  0.00  0.00    +0.000 C 
ATOM     32  N   UNL     1      -3.380   3.897 130.369  0.00  0.00    +0.000 NA
ENDBRANCH  11  31
TORSDOF 2
ENDMDL
MODEL 3
REMARK VINA RESULT:      -8.3      3.729      6.718
REMARK  Name = Lorlatinib
REMARK  5 active torsions:
REMARK  status: ('A' for Active; 'I' for Inactive)
REMARK    1  A    between atoms: C_1  and  C_2
REMARK    2  A    between atoms: C_5  and  N_6
REMARK    3  A    between atoms: C_12  and  C_13
REMARK    4  A    between atoms: N_15  and  C_16
REMARK    5  A    between atoms: N_20  and  C_21
REMARK                            x       y       z     vdW  Elec       q    Type
REMARK                         _______ _______ _______ _____ _____    ______ ____
ROOT
ATOM      1  C   UNL     1      -5.984  -0.220 126.213  0.00  0.00    +0.000 C 
ATOM      2  C   UNL     1      -5.893  -1.867 127.563  0.00  0.00    +0.000 C 
ATOM      3  O   UNL     1      -5.978  -2.711 129.611  0.00  0.00    +0.000 OA
ATOM      4  C   UNL     1      -6.677  -3.355 131.446  0.00  0.00    +0.000 A 
ATOM      5  C   UNL     1      -7.501  -3.225 133.311  0.00  0.00    +0.000 A 
ATOM      6  N   UNL     1      -7.747  -2.091 134.073  0.00  0.00    +0.000 NA
ATOM      7  C   UNL     1      -7.300  -1.249 133.256  0.00  0.00    +0.000 A 
ATOM      8  C   UNL     1      -6.276  -1.688 132.305  0.00  0.00    +0.000 A 
ATOM      9  C   UNL     1      -5.841  -3.002 132.316  0.00  0.00    +0.000 A 
ATOM     10  C   UNL     1      -6.361  -0.946 131.118  0.00  0.00    +0.000 A 
ATOM     11  C   UNL     1      -5.366  -0.028 130.780  0.00  0.00    +0.000 A 
ATOM     12  N   UNL     1      -5.415   0.049 129.415  0.00  0.00    +0.000 N 
ATOM     13  C   UNL     1      -4.787   0.806 128.308  0.00  0.00    +0.000 C 
ATOM     14  N   UNL     1      -6.558  -0.510 129.052  0.00  0.00    +0.000 NA
ATOM     15  C   UNL     1      -7.213  -1.228 129.977  0.00  0.00    +0.000 A 
ATOM     16  C   UNL     1      -8.010  -2.855 129.508  0.00  0.00    +0.000 C 
ATOM     17  N   UNL     1      -8.151  -3.115 128.110  0.00  0.00    +0.000 N 
ATOM     18  C   UNL     1      -8.961  -4.204 127.692  0.00  0.00    +0.000 C 
ATOM     19  C   UNL     1      -8.068  -2.119 127.228  0.00  0.00    +0.000 C 
ATOM     20  O   UNL     1      -7.938  -0.914 127.355  0.00  0.00    +0.000 OA
ATOM     21  C   UNL     1      -7.736  -2.600 125.955  0.00  0.00    +0.000 A 
ATOM     22  C   UNL     1      -6.593  -2.088 125.666  0.00  0.00    +0.000 A 
ATOM     23  C   UNL     1      -6.952  -1.735 123.980  0.00  0.00    +0.000 A 
ATOM     24  C   UNL     1      -8.183  -2.296 123.165  0.00  0.00    +0.000 A 
ATOM     25  F   UNL     1      -8.578  -2.148 121.862  0.00  0.00    +0.000 F 
ATOM     26  C   UNL     1      -8.939  -3.170 123.823  0.00  0.00    +0.000 A 
ATOM     27  C   UNL     1      -8.575  -3.313 125.118  0.00  0.00    +0.000 A 
ENDROOT
BRANCH   5  28
ATOM     28  N   UNL     1      -7.700  -3.847 135.068  0.00  0.00    +0.000 N 
ATOM     29  H   UNL     1      -7.872  -3.655 136.149  0.00  0.00    +0.000 HD
ATOM     30  H   UNL     1      -7.732  -5.072 135.429  0.00  0.00    +0.000 HD
ENDBRANCH   5  28
BRANCH  11  31
ATOM     31  C   UNL     1      -4.635   0.789 131.674  0.00  0.00    +0.000 C 
ATOM     32  N   UNL     1      -3.958   1.438 132.357  0.00  0.00    +0.000 NA
ENDBRANCH  11  31
TORSDOF 2
ENDMDL
MODEL 4
REMARK VINA RESULT:      -8.1      1.941      4.349
REMARK  Name = Lorlatinib
REMARK  5 active torsions:
REMARK  status: ('A' for Active; 'I' for Inactive)
REMARK    1  A    between atoms: C_1  and  C_2
REMARK    2  A    between atoms: C_5  and  N_6
REMARK    3  A    between atoms: C_12  and  C_13
REMARK    4  A    between atoms: N_15  and  C_16
REMARK    5  A    between atoms: N_20  and  C_21
REMARK                            x       y       z     vdW  Elec       q    Type
REMARK                         _______ _______ _______ _____ _____    ______ ____
ROOT
ATOM      1  C   UNL     1      -7.498  -2.062 127.661  0.00  0.00    +0.000 C 
ATOM      2  C   UNL     1      -7.700   0.057 127.551  0.00  0.00    +0.000 C 
ATOM      3  O   UNL     1      -6.909   2.106 127.856  0.00  0.00    +0.000 OA
ATOM      4  C   UNL     1      -5.805   3.840 127.647  0.00  0.00    +0.000 A 
ATOM      5  C   UNL     1      -4.158   5.048 127.650  0.00  0.00    +0.000 A 
ATOM      6  N   UNL     1      -2.893   4.789 128.160  0.00  0.00    +0.000 NA
ATOM      7  C   UNL     1      -3.128   3.634 128.590  0.00  0.00    +0.000 A 
ATOM      8  C   UNL     1      -4.507   3.300 128.951  0.00  0.00    +0.000 A 
ATOM      9  C   UNL     1      -5.509   4.243 128.799  0.00  0.00    +0.000 A 
ATOM     10  C   UNL     1      -4.745   1.930 128.761  0.00  0.00    +0.000 A 
ATOM     11  C   UNL     1      -4.934   1.083 129.853  0.00  0.00    +0.000 A 
ATOM     12  N   UNL     1      -5.692   0.054 129.367  0.00  0.00    +0.000 N 
ATOM     13  C   UNL     1      -6.250  -1.244 129.815  0.00  0.00    +0.000 C 
ATOM     14  N   UNL     1      -5.639   0.145 128.048  0.00  0.00    +0.000 NA
ATOM     15  C   UNL     1      -5.155   1.283 127.528  0.00  0.00    +0.000 A 
ATOM     16  C   UNL     1      -5.983   2.059 126.040  0.00  0.00    +0.000 C 
ATOM     17  N   UNL     1      -6.912   1.240 125.329  0.00  0.00    +0.000 N 
ATOM     18  C   UNL     1      -7.384   1.674 124.061  0.00  0.00    +0.000 C 
ATOM     19  C   UNL     1      -6.903  -0.084 125.488  0.00  0.00    +0.000 C 
ATOM     20  O   UNL     1      -6.181  -0.832 126.124  0.00  0.00    +0.000 OA
ATOM     21  C   UNL     1      -8.137  -0.643 125.135  0.00  0.00    +0.000 A 
ATOM     22  C   UNL     1      -8.614  -1.167 126.207  0.00  0.00    +0.000 A 
ATOM     23  C   UNL     1      -9.241  -2.629 125.456  0.00  0.00    +0.000 A 
ATOM     24  C   UNL     1      -9.418  -2.862 123.904  0.00  0.00    +0.000 A 
ATOM     25  F   UNL     1      -9.914  -3.908 123.174  0.00  0.00    +0.000 F 
ATOM     26  C   UNL     1      -9.136  -1.808 123.143  0.00  0.00    +0.000 A 
ATOM     27  C   UNL     1      -8.625  -0.772 123.846  0.00  0.00    +0.000 A 
ENDROOT
BRANCH   5  28
ATOM     28  N   UNL     1      -3.353   6.729 127.846  0.00  0.00    +0.000 N 
ATOM     29  H   UNL     1      -2.559   7.460 127.578  0.00  0.00    +0.000 HD
ATOM     30  H   UNL     1      -3.794   7.692 128.560  0.00  0.00    +0.000 HD
ENDBRANCH   5  28
BRANCH  11  31
ATOM     31  C   UNL     1      -4.293   1.175 131.112  0.00  0.00    +0.000 C 
ATOM     32  N   UNL     1      -3.850   1.225 132.182  0.00  0.00    +0.000 NA
ENDBRANCH  11  31
TORSDOF 2
ENDMDL
MODEL 5
REMARK VINA RESULT:      -8.0      2.528      3.869
REMARK  Name = Lorlatinib
REMARK  5 active torsions:
REMARK  status: ('A' for Active; 'I' for Inactive)
REMARK    1  A    between atoms: C_1  and  C_2
REMARK    2  A    between atoms: C_5  and  N_6
REMARK    3  A    between atoms: C_12  and  C_13
REMARK    4  A    between atoms: N_15  and  C_16
REMARK    5  A    between atoms: N_20  and  C_21
REMARK                            x       y       z     vdW  Elec       q    Type
REMARK                         _______ _______ _______ _____ _____    ______ ____
ROOT
ATOM      1  C   UNL     1      -7.902  -3.346 128.086  0.00  0.00    +0.000 C 
ATOM      2  C   UNL     1      -6.541  -1.849 127.414  0.00  0.00    +0.000 C 
ATOM      3  O   UNL     1      -6.111   0.079 126.407  0.00  0.00    +0.000 OA
ATOM      4  C   UNL     1      -5.984   2.101 126.000  0.00  0.00    +0.000 A 
ATOM      5  C   UNL     1      -6.630   3.996 125.600  0.00  0.00    +0.000 A 
ATOM      6  N   UNL     1      -7.905   4.423 125.252  0.00  0.00    +0.000 NA
ATOM      7  C   UNL     1      -8.459   3.297 125.265  0.00  0.00    +0.000 A 
ATOM      8  C   UNL     1      -7.628   2.117 125.014  0.00  0.00    +0.000 A 
ATOM      9  C   UNL     1      -6.270   2.263 124.788  0.00  0.00    +0.000 A 
ATOM     10  C   UNL     1      -8.151   0.999 125.682  0.00  0.00    +0.000 A 
ATOM     11  C   UNL     1      -8.729  -0.050 124.968  0.00  0.00    +0.000 A 
ATOM     12  N   UNL     1      -8.578  -1.144 125.775  0.00  0.00    +0.000 N 
ATOM     13  C   UNL     1      -8.957  -2.575 125.814  0.00  0.00    +0.000 C 
ATOM     14  N   UNL     1      -8.257  -0.680 126.972  0.00  0.00    +0.000 NA
ATOM     15  C   UNL     1      -7.889   0.608 127.055  0.00  0.00    +0.000 A 
ATOM     16  C   UNL     1      -6.445   1.101 128.139  0.00  0.00    +0.000 C 
ATOM     17  N   UNL     1      -5.988   0.124 129.075  0.00  0.00    +0.000 N 
ATOM     18  C   UNL     1      -5.071   0.516 130.086  0.00  0.00    +0.000 C 
ATOM     19  C   UNL     1      -6.766  -0.907 129.407  0.00  0.00    +0.000 C 
ATOM     20  O   UNL     1      -7.908  -1.208 129.105  0.00  0.00    +0.000 OA
ATOM     21  C   UNL     1      -6.006  -1.971 129.908  0.00  0.00    +0.000 A 
ATOM     22  C   UNL     1      -6.170  -2.946 129.087  0.00  0.00    +0.000 A 
ATOM     23  C   UNL     1      -6.301  -4.212 130.302  0.00  0.00    +0.000 A 
ATOM     24  C   UNL     1      -5.920  -4.065 131.827  0.00  0.00    +0.000 A 
ATOM     25  F   UNL     1      -5.930  -4.947 132.875  0.00  0.00    +0.000 F 
ATOM     26  C   UNL     1      -5.381  -2.896 132.160  0.00  0.00    +0.000 A 
ATOM     27  C   UNL     1      -5.382  -2.005 131.143  0.00  0.00    +0.000 A 
ENDROOT
BRANCH   5  28
ATOM     28  N   UNL     1      -6.389   5.687 124.828  0.00  0.00    +0.000 N 
ATOM     29  H   UNL     1      -6.179   6.775 124.924  0.00  0.00    +0.000 HD
ATOM     30  H   UNL     1      -6.370   5.943 123.577  0.00  0.00    +0.000 HD
ENDBRANCH   5  28
BRANCH  11  31
ATOM     31  C   UNL     1      -9.488   0.057 123.779  0.00  0.00    +0.000 C 
ATOM     32  N   UNL     1     -10.185   0.168 122.858  0.00  0.00    +0.000 NA
ENDBRANCH  11  31
TORSDOF 2
ENDMDL
MODEL 6
REMARK VINA RESULT:      -8.0      2.312      3.416
REMARK  Name = Lorlatinib
REMARK  5 active torsions:
REMARK  status: ('A' for Active; 'I' for Inactive)
REMARK    1  A    between atoms: C_1  and  C_2
REMARK    2  A    between atoms: C_5  and  N_6
REMARK    3  A    between atoms: C_12  and  C_13
REMARK    4  A    between atoms: N_15  and  C_16
REMARK    5  A    between atoms: N_20  and  C_21
REMARK                            x       y       z     vdW  Elec       q    Type
REMARK                         _______ _______ _______ _____ _____    ______ ____
ROOT
ATOM      1  C   UNL     1      -7.189   0.766 124.272  0.00  0.00    +0.000 C 
ATOM      2  C   UNL     1      -6.055   0.217 125.991  0.00  0.00    +0.000 C 
ATOM      3  O   UNL     1      -5.176   0.683 127.972  0.00  0.00    +0.000 OA
ATOM      4  C   UNL     1      -4.972   1.088 129.988  0.00  0.00    +0.000 A 
ATOM      5  C   UNL     1      -5.171   2.114 131.742  0.00  0.00    +0.000 A 
ATOM      6  N   UNL     1      -5.597   3.421 131.940  0.00  0.00    +0.000 NA
ATOM      7  C   UNL     1      -5.787   3.711 130.734  0.00  0.00    +0.000 A 
ATOM      8  C   UNL     1      -5.015   2.986 129.721  0.00  0.00    +0.000 A 
ATOM      9  C   UNL     1      -4.120   2.004 130.107  0.00  0.00    +0.000 A 
ATOM     10  C   UNL     1      -5.741   2.898 128.523  0.00  0.00    +0.000 A 
ATOM     11  C   UNL     1      -5.338   3.612 127.395  0.00  0.00    +0.000 A 
ATOM     12  N   UNL     1      -5.827   2.893 126.338  0.00  0.00    +0.000 N 
ATOM     13  C   UNL     1      -5.914   2.979 124.862  0.00  0.00    +0.000 C 
ATOM     14  N   UNL     1      -6.711   2.047 126.842  0.00  0.00    +0.000 NA
ATOM     15  C   UNL     1      -6.718   1.884 128.173  0.00  0.00    +0.000 A 
ATOM     16  C   UNL     1      -6.915   0.172 128.906  0.00  0.00    +0.000 C 
ATOM     17  N   UNL     1      -7.361  -0.853 128.017  0.00  0.00    +0.000 N 
ATOM     18  C   UNL     1      -7.765  -2.103 128.556  0.00  0.00    +0.000 C 
ATOM     19  C   UNL     1      -7.948  -0.536 126.862  0.00  0.00    +0.000 C 
ATOM     20  O   UNL     1      -8.268   0.530 126.366  0.00  0.00    +0.000 OA
ATOM     21  C   UNL     1      -7.858  -1.590 125.945  0.00  0.00    +0.000 A 
ATOM     22  C   UNL     1      -7.154  -1.152 124.963  0.00  0.00    +0.000 A 
ATOM     23  C   UNL     1      -8.117  -1.883 123.684  0.00  0.00    +0.000 A 
ATOM     24  C   UNL     1      -9.214  -3.001 123.884  0.00  0.00    +0.000 A 
ATOM     25  F   UNL     1     -10.011  -3.685 123.006  0.00  0.00    +0.000 F 
ATOM     26  C   UNL     1      -9.328  -3.458 125.127  0.00  0.00    +0.000 A 
ATOM     27  C   UNL     1      -8.563  -2.779 126.012  0.00  0.00    +0.000 A 
ENDROOT
BRANCH   5  28
ATOM     28  N   UNL     1      -4.566   2.575 133.456  0.00  0.00    +0.000 N 
ATOM     29  H   UNL     1      -4.747   2.700 134.545  0.00  0.00    +0.000 HD
ATOM     30  H   UNL     1      -3.368   2.893 133.766  0.00  0.00    +0.000 HD
ENDBRANCH   5  28
BRANCH  11  31
ATOM     31  C   UNL     1      -4.751   4.899 127.375  0.00  0.00    +0.000 C 
ATOM     32  N   UNL     1      -4.310   5.969 127.444  0.00  0.00    +0.000 NA
ENDBRANCH  11  31
TORSDOF 2
ENDMDL
MODEL 7
REMARK VINA RESULT:      -7.9      3.267      7.493
REMARK  Name = Lorlatinib
REMARK  5 active torsions:
REMARK  status: ('A' for Active; 'I' for Inactive)
REMARK    1  A    between atoms: C_1  and  C_2
REMARK    2  A    between atoms: C_5  and  N_6
REMARK    3  A    between atoms: C_12  and  C_13
REMARK    4  A    between atoms: N_15  and  C_16
REMARK    5  A    between atoms: N_20  and  C_21
REMARK                            x       y       z     vdW  Elec       q    Type
REMARK                         _______ _______ _______ _____ _____    ______ ____
ROOT
ATOM      1  C   UNL     1      -4.739   2.332 130.369  0.00  0.00    +0.000 C 
ATOM      2  C   UNL     1      -4.508   1.471 128.433  0.00  0.00    +0.000 C 
ATOM      3  O   UNL     1      -5.265   0.252 126.742  0.00  0.00    +0.000 OA
ATOM      4  C   UNL     1      -6.349  -0.372 125.097  0.00  0.00    +0.000 A 
ATOM      5  C   UNL     1      -7.978  -0.959 124.014  0.00  0.00    +0.000 A 
ATOM      6  N   UNL     1      -9.238  -1.321 124.470  0.00  0.00    +0.000 NA
ATOM      7  C   UNL     1      -9.013  -1.174 125.696  0.00  0.00    +0.000 A 
ATOM      8  C   UNL     1      -7.632  -1.316 126.164  0.00  0.00    +0.000 A 
ATOM      9  C   UNL     1      -6.620  -1.588 125.260  0.00  0.00    +0.000 A 
ATOM     10  C   UNL     1      -7.417  -0.519 127.299  0.00  0.00    +0.000 A 
ATOM     11  C   UNL     1      -7.223  -1.103 128.551  0.00  0.00    +0.000 A 
ATOM     12  N   UNL     1      -6.487  -0.186 129.251  0.00  0.00    +0.000 N 
ATOM     13  C   UNL     1      -5.940   0.015 130.613  0.00  0.00    +0.000 C 
ATOM     14  N   UNL     1      -6.560   0.946 128.570  0.00  0.00    +0.000 NA
ATOM     15  C   UNL     1      -7.036   0.881 127.317  0.00  0.00    +0.000 A 
ATOM     16  C   UNL     1      -6.221   1.872 125.954  0.00  0.00    +0.000 C 
ATOM     17  N   UNL     1      -5.315   2.896 126.365  0.00  0.00    +0.000 N 
ATOM     18  C   UNL     1      -4.858   3.837 125.404  0.00  0.00    +0.000 C 
ATOM     19  C   UNL     1      -5.340   3.356 127.617  0.00  0.00    +0.000 C 
ATOM     20  O   UNL     1      -6.063   3.114 128.568  0.00  0.00    +0.000 OA
ATOM     21  C   UNL     1      -4.120   3.950 127.960  0.00  0.00    +0.000 A 
ATOM     22  C   UNL     1      -3.634   3.243 128.917  0.00  0.00    +0.000 A 
ATOM     23  C   UNL     1      -3.039   4.589 129.881  0.00  0.00    +0.000 A 
ATOM     24  C   UNL     1      -2.890   6.081 129.383  0.00  0.00    +0.000 A 
ATOM     25  F   UNL     1      -2.421   7.217 129.986  0.00  0.00    +0.000 F 
ATOM     26  C   UNL     1      -3.170   6.273 128.098  0.00  0.00    +0.000 A 
ATOM     27  C   UNL     1      -3.655   5.166 127.491  0.00  0.00    +0.000 A 
ENDROOT
BRANCH   5  28
ATOM     28  N   UNL     1      -8.756  -1.914 122.601  0.00  0.00    +0.000 N 
ATOM     29  H   UNL     1      -8.663  -2.501 121.662  0.00  0.00    +0.000 HD
ATOM     30  H   UNL     1      -9.997  -2.189 122.478  0.00  0.00    +0.000 HD
ENDBRANCH   5  28
BRANCH  11  31
ATOM     31  C   UNL     1      -7.841  -2.279 129.038  0.00  0.00    +0.000 C 
ATOM     32  N   UNL     1      -8.269  -3.288 129.417  0.00  0.00    +0.000 NA
ENDBRANCH  11  31
TORSDOF 2
ENDMDL
MODEL 8
REMARK VINA RESULT:      -7.9      3.244      6.290
REMARK  Name = Lorlatinib
REMARK  5 active torsions:
REMARK  status: ('A' for Active; 'I' for Inactive)
REMARK    1  A    between atoms: C_1  and  C_2
REMARK    2  A    between atoms: C_5  and  N_6
REMARK    3  A    between atoms: C_12  and  C_13
REMARK    4  A    between atoms: N_15  and  C_16
REMARK    5  A    between atoms: N_20  and  C_21
REMARK                            x       y       z     vdW  Elec       q    Type
REMARK                         _______ _______ _______ _____ _____    ______ ____
ROOT
ATOM      1  C   UNL     1      -5.804   0.699 130.267  0.00  0.00    +0.000 C 
ATOM      2  C   UNL     1      -5.200   1.238 128.295  0.00  0.00    +0.000 C 
ATOM      3  O   UNL     1      -5.651   1.627 126.159  0.00  0.00    +0.000 OA
ATOM      4  C   UNL     1      -6.349   2.506 124.425  0.00  0.00    +0.000 A 
ATOM      5  C   UNL     1      -7.708   3.204 123.069  0.00  0.00    +0.000 A 
ATOM      6  N   UNL     1      -9.079   2.991 123.027  0.00  0.00    +0.000 NA
ATOM      7  C   UNL     1      -9.158   2.261 124.045  0.00  0.00    +0.000 A 
ATOM      8  C   UNL     1      -7.975   1.491 124.434  0.00  0.00    +0.000 A 
ATOM      9  C   UNL     1      -6.809   1.594 123.695  0.00  0.00    +0.000 A 
ATOM     10  C   UNL     1      -7.955   1.292 125.823  0.00  0.00    +0.000 A 
ATOM     11  C   UNL     1      -8.167   0.023 126.363  0.00  0.00    +0.000 A 
ATOM     12  N   UNL     1      -7.521   0.048 127.569  0.00  0.00    +0.000 N 
ATOM     13  C   UNL     1      -7.321  -0.815 128.756  0.00  0.00    +0.000 C 
ATOM     14  N   UNL     1      -7.269   1.321 127.829  0.00  0.00    +0.000 NA
ATOM     15  C   UNL     1      -7.412   2.195 126.821  0.00  0.00    +0.000 A 
ATOM     16  C   UNL     1      -6.153   3.558 126.579  0.00  0.00    +0.000 C 
ATOM     17  N   UNL     1      -5.257   3.798 127.665  0.00  0.00    +0.000 N 
ATOM     18  C   UNL     1      -4.450   4.967 127.645  0.00  0.00    +0.000 C 
ATOM     19  C   UNL     1      -5.542   3.346 128.886  0.00  0.00    +0.000 C 
ATOM     20  O   UNL     1      -6.509   2.762 129.344  0.00  0.00    +0.000 OA
ATOM     21  C   UNL     1      -4.383   3.232 129.664  0.00  0.00    +0.000 A 
ATOM     22  C   UNL     1      -4.255   1.983 129.935  0.00  0.00    +0.000 A 
ATOM     23  C   UNL     1      -3.757   2.190 131.610  0.00  0.00    +0.000 A 
ATOM     24  C   UNL     1      -3.292   3.548 132.270  0.00  0.00    +0.000 A 
ATOM     25  F   UNL     1      -2.849   3.864 133.526  0.00  0.00    +0.000 F 
ATOM     26  C   UNL     1      -3.205   4.576 131.432  0.00  0.00    +0.000 A 
ATOM     27  C   UNL     1      -3.659   4.287 130.191  0.00  0.00    +0.000 A 
ENDROOT
BRANCH   5  28
ATOM     28  N   UNL     1      -8.216   3.614 121.312  0.00  0.00    +0.000 N 
ATOM     29  H   UNL     1      -9.004   3.787 120.547  0.00  0.00    +0.000 HD
ATOM     30  H   UNL     1      -7.427   3.936 120.361  0.00  0.00    +0.000 HD
ENDBRANCH   5  28
BRANCH  11  31
ATOM     31  C   UNL     1      -9.037  -0.972 125.861  0.00  0.00    +0.000 C 
ATOM     32  N   UNL     1      -9.746  -1.830 125.534  0.00  0.00    +0.000 NA
ENDBRANCH  11  31
TORSDOF 2
ENDMDL
MODEL 9
REMARK VINA RESULT:      -7.8      5.411      7.769
REMARK  Name = Lorlatinib
REMARK  5 active torsions:
REMARK  status: ('A' for Active; 'I' for Inactive)
REMARK    1  A    between atoms: C_1  and  C_2
REMARK    2  A    between atoms: C_5  and  N_6
REMARK    3  A    between atoms: C_12  and  C_13
REMARK    4  A    between atoms: N_15  and  C_16
REMARK    5  A    between atoms: N_20  and  C_21
REMARK                            x       y       z     vdW  Elec       q    Type
REMARK                         _______ _______ _______ _____ _____    ______ ____
ROOT
ATOM      1  C   UNL     1      -3.782  -0.393 133.016  0.00  0.00    +0.000 C 
ATOM      2  C   UNL     1      -5.871   0.028 132.951  0.00  0.00    +0.000 C 
ATOM      3  O   UNL     1      -7.581   1.425 133.143  0.00  0.00    +0.000 OA
ATOM      4  C   UNL     1      -8.926   2.951 132.777  0.00  0.00    +0.000 A 
ATOM      5  C   UNL     1      -9.600   4.864 132.535  0.00  0.00    +0.000 A 
ATOM      6  N   UNL     1      -8.957   6.055 132.843  0.00  0.00    +0.000 NA
ATOM      7  C   UNL     1      -7.900   5.554 133.297  0.00  0.00    +0.000 A 
ATOM      8  C   UNL     1      -7.965   4.205 133.863  0.00  0.00    +0.000 A 
ATOM      9  C   UNL     1      -9.166   3.517 133.872  0.00  0.00    +0.000 A 
ATOM     10  C   UNL     1      -6.736   3.547 133.704  0.00  0.00    +0.000 A 
ATOM     11  C   UNL     1      -5.927   3.277 134.808  0.00  0.00    +0.000 A 
ATOM     12  N   UNL     1      -5.189   2.186 134.437  0.00  0.00    +0.000 N 
ATOM     13  C   UNL     1      -4.090   1.340 134.959  0.00  0.00    +0.000 C 
ATOM     14  N   UNL     1      -5.328   2.072 133.126  0.00  0.00    +0.000 NA
ATOM     15  C   UNL     1      -6.300   2.790 132.545  0.00  0.00    +0.000 A 
ATOM     16  C   UNL     1      -7.359   2.023 131.206  0.00  0.00    +0.000 C 
ATOM     17  N   UNL     1      -6.883   0.800 130.641  0.00  0.00    +0.000 N 
ATOM     18  C   UNL     1      -7.500   0.300 129.464  0.00  0.00    +0.000 C 
ATOM     19  C   UNL     1      -5.608   0.440 130.790  0.00  0.00    +0.000 C 
ATOM     20  O   UNL     1      -4.651   0.992 131.303  0.00  0.00    +0.000 OA
ATOM     21  C   UNL     1      -5.453  -0.942 130.627  0.00  0.00    +0.000 A 
ATOM     22  C   UNL     1      -5.037  -1.392 131.756  0.00  0.00    +0.000 A 
ATOM     23  C   UNL     1      -3.861  -2.526 131.102  0.00  0.00    +0.000 A 
ATOM     24  C   UNL     1      -3.770  -2.987 129.594  0.00  0.00    +0.000 A 
ATOM     25  F   UNL     1      -2.951  -3.870 128.942  0.00  0.00    +0.000 F 
ATOM     26  C   UNL     1      -4.732  -2.518 128.805  0.00  0.00    +0.000 A 
ATOM     27  C   UNL     1      -5.537  -1.627 129.427  0.00  0.00    +0.000 A 
ENDROOT
BRANCH   5  28
ATOM     28  N   UNL     1     -10.961   6.150 132.614  0.00  0.00    +0.000 N 
ATOM     29  H   UNL     1     -11.298   7.208 132.555  0.00  0.00    +0.000 HD
ATOM     30  H   UNL     1     -12.208   5.912 132.752  0.00  0.00    +0.000 HD
ENDBRANCH   5  28
BRANCH  11  31
ATOM     31  C   UNL     1      -5.764   4.091 135.953  0.00  0.00    +0.000 C 
ATOM     32  N   UNL     1      -5.563   4.698 136.921  0.00  0.00    +0.000 NA
ENDBRANCH  11  31
TORSDOF 2
ENDMDL
