MODEL 1
REMARK VINA RESULT:      -7.6      0.000      0.000
REMARK  Name = Lormetazepam
REMARK  3 active torsions:
REMARK  status: ('A' for Active; 'I' for Inactive)
REMARK    1  A    between atoms: C_1  and  N_2
REMARK    2  A    between atoms: C_10  and  C_16
REMARK    3  A    between atoms: C_12  and  O_13
REMARK                            x       y       z     vdW  Elec       q    Type
REMARK                         _______ _______ _______ _____ _____    ______ ____
ROOT
ATOM      1  C   UNL     1      -4.059   3.927 125.705  0.00  0.00    +0.000 C 
ATOM      2  N   UNL     1      -5.429   4.134 125.251  0.00  0.00    +0.000 N 
ATOM      3  C   UNL     1      -5.707   4.121 123.855  0.00  0.00    +0.000 A 
ATOM      4  C   UNL     1      -6.865   3.551 123.293  0.00  0.00    +0.000 A 
ATOM      5  C   UNL     1      -7.026   3.517 121.895  0.00  0.00    +0.000 A 
ATOM      6  C   UNL     1      -6.054   4.063 121.062  0.00  0.00    +0.000 A 
ATOM      7 CL   UNL     1      -6.260   4.010 119.357  0.00  0.00    +0.000 Cl
ATOM      8  C   UNL     1      -4.921   4.650 121.601  0.00  0.00    +0.000 A 
ATOM      9  C   UNL     1      -4.750   4.674 122.984  0.00  0.00    +0.000 A 
ATOM     10  C   UNL     1      -7.900   2.864 124.119  0.00  0.00    +0.000 C 
ATOM     11  N   UNL     1      -8.359   3.288 125.245  0.00  0.00    +0.000 NA
ATOM     12  C   UNL     1      -7.859   4.534 125.807  0.00  0.00    +0.000 C 
ATOM     13  C   UNL     1      -6.386   4.323 126.245  0.00  0.00    +0.000 C 
ATOM     14  O   UNL     1      -6.067   4.368 127.445  0.00  0.00    +0.000 OA
ENDROOT
BRANCH  10  15
ATOM     15  C   UNL     1      -8.469   1.579 123.614  0.00  0.00    +0.000 A 
ATOM     16  C   UNL     1      -9.700   1.623 122.940  0.00  0.00    +0.000 A 
ATOM     17  C   UNL     1     -10.336   0.436 122.572  0.00  0.00    +0.000 A 
ATOM     18  C   UNL     1      -9.705  -0.789 122.792  0.00  0.00    +0.000 A 
ATOM     19  C   UNL     1      -8.437  -0.828 123.375  0.00  0.00    +0.000 A 
ATOM     20  C   UNL     1      -7.841   0.348 123.838  0.00  0.00    +0.000 A 
ATOM     21 CL   UNL     1      -6.370   0.194 124.731  0.00  0.00    +0.000 Cl
ENDBRANCH  10  15
BRANCH  12  22
ATOM     22  O   UNL     1      -8.626   4.938 126.936  0.00  0.00    +0.000 OA
ATOM     23  H   UNL     1      -9.480   4.487 126.802  0.00  0.00    +0.000 HD
ENDBRANCH  12  22
TORSDOF 2
ENDMDL
MODEL 2
REMARK VINA RESULT:      -7.5      1.507      1.925
REMARK  Name = Lormetazepam
REMARK  3 active torsions:
REMARK  status: ('A' for Active; 'I' for Inactive)
REMARK    1  A    between atoms: C_1  and  N_2
REMARK    2  A    between atoms: C_10  and  C_16
REMARK    3  A    between atoms: C_12  and  O_13
REMARK                            x       y       z     vdW  Elec       q    Type
REMARK                         _______ _______ _______ _____ _____    ______ ____
ROOT
ATOM      1  C   UNL     1      -3.965   3.441 126.203  0.00  0.00    +0.000 C 
ATOM      2  N   UNL     1      -5.376   3.347 125.846  0.00  0.00    +0.000 N 
ATOM      3  C   UNL     1      -5.754   3.447 124.478  0.00  0.00    +0.000 A 
ATOM      4  C   UNL     1      -6.777   2.677 123.890  0.00  0.00    +0.000 A 
ATOM      5  C   UNL     1      -7.036   2.787 122.511  0.00  0.00    +0.000 A 
ATOM      6  C   UNL     1      -6.301   3.668 121.725  0.00  0.00    +0.000 A 
ATOM      7 CL   UNL     1      -6.625   3.788 120.041  0.00  0.00    +0.000 Cl
ATOM      8  C   UNL     1      -5.309   4.451 122.293  0.00  0.00    +0.000 A 
ATOM      9  C   UNL     1      -5.038   4.337 123.656  0.00  0.00    +0.000 A 
ATOM     10  C   UNL     1      -7.538   1.645 124.651  0.00  0.00    +0.000 C 
ATOM     11  N   UNL     1      -7.995   1.785 125.847  0.00  0.00    +0.000 NA
ATOM     12  C   UNL     1      -7.776   3.033 126.564  0.00  0.00    +0.000 C 
ATOM     13  C   UNL     1      -6.267   3.152 126.900  0.00  0.00    +0.000 C 
ATOM     14  O   UNL     1      -5.872   3.119 128.077  0.00  0.00    +0.000 OA
ENDROOT
BRANCH  10  15
ATOM     15  C   UNL     1      -7.810   0.334 123.988  0.00  0.00    +0.000 A 
ATOM     16  C   UNL     1      -6.757  -0.589 123.896  0.00  0.00    +0.000 A 
ATOM     17  C   UNL     1      -6.925  -1.767 123.166  0.00  0.00    +0.000 A 
ATOM     18  C   UNL     1      -8.167  -2.069 122.607  0.00  0.00    +0.000 A 
ATOM     19  C   UNL     1      -9.243  -1.196 122.782  0.00  0.00    +0.000 A 
ATOM     20  C   UNL     1      -9.055   0.032 123.422  0.00  0.00    +0.000 A 
ATOM     21 CL   UNL     1     -10.378   1.142 123.415  0.00  0.00    +0.000 Cl
ENDBRANCH  10  15
BRANCH  12  22
ATOM     22  O   UNL     1      -8.525   3.074 127.774  0.00  0.00    +0.000 OA
ATOM     23  H   UNL     1      -7.962   2.588 128.405  0.00  0.00    +0.000 HD
ENDBRANCH  12  22
TORSDOF 2
ENDMDL
MODEL 3
REMARK VINA RESULT:      -7.2      4.333      6.292
REMARK  Name = Lormetazepam
REMARK  3 active torsions:
REMARK  status: ('A' for Active; 'I' for Inactive)
REMARK    1  A    between atoms: C_1  and  N_2
REMARK    2  A    between atoms: C_10  and  C_16
REMARK    3  A    between atoms: C_12  and  O_13
REMARK                            x       y       z     vdW  Elec       q    Type
REMARK                         _______ _______ _______ _____ _____    ______ ____
ROOT
ATOM      1  C   UNL     1      -6.712   1.592 123.357  0.00  0.00    +0.000 C 
ATOM      2  N   UNL     1      -7.419   0.506 124.026  0.00  0.00    +0.000 N 
ATOM      3  C   UNL     1      -6.867  -0.805 123.996  0.00  0.00    +0.000 A 
ATOM      4  C   UNL     1      -6.907  -1.696 125.086  0.00  0.00    +0.000 A 
ATOM      5  C   UNL     1      -6.269  -2.948 124.995  0.00  0.00    +0.000 A 
ATOM      6  C   UNL     1      -5.616  -3.322 123.825  0.00  0.00    +0.000 A 
ATOM      7 CL   UNL     1      -4.838  -4.851 123.729  0.00  0.00    +0.000 Cl
ATOM      8  C   UNL     1      -5.591  -2.466 122.735  0.00  0.00    +0.000 A 
ATOM      9  C   UNL     1      -6.208  -1.219 122.824  0.00  0.00    +0.000 A 
ATOM     10  C   UNL     1      -7.504  -1.325 126.401  0.00  0.00    +0.000 C 
ATOM     11  N   UNL     1      -8.614  -0.691 126.564  0.00  0.00    +0.000 NA
ATOM     12  C   UNL     1      -9.387  -0.274 125.404  0.00  0.00    +0.000 C 
ATOM     13  C   UNL     1      -8.609   0.848 124.668  0.00  0.00    +0.000 C 
ATOM     14  O   UNL     1      -9.057   2.005 124.616  0.00  0.00    +0.000 OA
ENDROOT
BRANCH  10  15
ATOM     15  C   UNL     1      -6.777  -1.717 127.645  0.00  0.00    +0.000 A 
ATOM     16  C   UNL     1      -5.588  -1.040 127.955  0.00  0.00    +0.000 A 
ATOM     17  C   UNL     1      -4.804  -1.463 129.030  0.00  0.00    +0.000 A 
ATOM     18  C   UNL     1      -5.249  -2.499 129.850  0.00  0.00    +0.000 A 
ATOM     19  C   UNL     1      -6.479  -3.110 129.600  0.00  0.00    +0.000 A 
ATOM     20  C   UNL     1      -7.219  -2.762 128.467  0.00  0.00    +0.000 A 
ATOM     21 CL   UNL     1      -8.623  -3.704 128.114  0.00  0.00    +0.000 Cl
ENDBRANCH  10  15
BRANCH  12  22
ATOM     22  O   UNL     1     -10.666   0.221 125.784  0.00  0.00    +0.000 OA
ATOM     23  H   UNL     1     -10.741  -0.041 126.720  0.00  0.00    +0.000 HD
ENDBRANCH  12  22
TORSDOF 2
ENDMDL
MODEL 4
REMARK VINA RESULT:      -7.1      7.526      9.970
REMARK  Name = Lormetazepam
REMARK  3 active torsions:
REMARK  status: ('A' for Active; 'I' for Inactive)
REMARK    1  A    between atoms: C_1  and  N_2
REMARK    2  A    between atoms: C_10  and  C_16
REMARK    3  A    between atoms: C_12  and  O_13
REMARK                            x       y       z     vdW  Elec       q    Type
REMARK                         _______ _______ _______ _____ _____    ______ ____
ROOT
ATOM      1  C   UNL     1     -10.035   3.379 130.970  0.00  0.00    +0.000 C 
ATOM      2  N   UNL     1      -9.399   4.665 131.226  0.00  0.00    +0.000 N 
ATOM      3  C   UNL     1      -8.630   4.837 132.410  0.00  0.00    +0.000 A 
ATOM      4  C   UNL     1      -7.430   5.573 132.465  0.00  0.00    +0.000 A 
ATOM      5  C   UNL     1      -6.693   5.630 133.663  0.00  0.00    +0.000 A 
ATOM      6  C   UNL     1      -7.153   4.980 134.804  0.00  0.00    +0.000 A 
ATOM      7 CL   UNL     1      -6.241   5.053 136.258  0.00  0.00    +0.000 Cl
ATOM      8  C   UNL     1      -8.345   4.272 134.772  0.00  0.00    +0.000 A 
ATOM      9  C   UNL     1      -9.072   4.200 133.585  0.00  0.00    +0.000 A 
ATOM     10  C   UNL     1      -6.830   6.214 131.260  0.00  0.00    +0.000 C 
ATOM     11  N   UNL     1      -7.479   6.872 130.363  0.00  0.00    +0.000 NA
ATOM     12  C   UNL     1      -8.921   7.031 130.483  0.00  0.00    +0.000 C 
ATOM     13  C   UNL     1      -9.591   5.651 130.259  0.00  0.00    +0.000 C 
ATOM     14  O   UNL     1     -10.313   5.447 129.269  0.00  0.00    +0.000 OA
ENDROOT
BRANCH  10  15
ATOM     15  C   UNL     1      -5.354   6.102 131.060  0.00  0.00    +0.000 A 
ATOM     16  C   UNL     1      -4.575   7.256 131.237  0.00  0.00    +0.000 A 
ATOM     17  C   UNL     1      -3.214   7.233 130.928  0.00  0.00    +0.000 A 
ATOM     18  C   UNL     1      -2.611   6.040 130.531  0.00  0.00    +0.000 A 
ATOM     19  C   UNL     1      -3.366   4.868 130.448  0.00  0.00    +0.000 A 
ATOM     20  C   UNL     1      -4.747   4.907 130.656  0.00  0.00    +0.000 A 
ATOM     21 CL   UNL     1      -5.640   3.463 130.332  0.00  0.00    +0.000 Cl
ENDBRANCH  10  15
BRANCH  12  22
ATOM     22  O   UNL     1      -9.423   7.953 129.522  0.00  0.00    +0.000 OA
ATOM     23  H   UNL     1      -9.028   7.644 128.685  0.00  0.00    +0.000 HD
ENDBRANCH  12  22
TORSDOF 2
ENDMDL
MODEL 5
REMARK VINA RESULT:      -6.8      5.075      6.786
REMARK  Name = Lormetazepam
REMARK  3 active torsions:
REMARK  status: ('A' for Active; 'I' for Inactive)
REMARK    1  A    between atoms: C_1  and  N_2
REMARK    2  A    between atoms: C_10  and  C_16
REMARK    3  A    between atoms: C_12  and  O_13
REMARK                            x       y       z     vdW  Elec       q    Type
REMARK                         _______ _______ _______ _____ _____    ______ ____
ROOT
ATOM      1  C   UNL     1      -8.494   0.108 123.501  0.00  0.00    +0.000 C 
ATOM      2  N   UNL     1      -7.226  -0.396 124.017  0.00  0.00    +0.000 N 
ATOM      3  C   UNL     1      -6.572   0.311 125.064  0.00  0.00    +0.000 A 
ATOM      4  C   UNL     1      -5.894  -0.316 126.127  0.00  0.00    +0.000 A 
ATOM      5  C   UNL     1      -5.337   0.460 127.162  0.00  0.00    +0.000 A 
ATOM      6  C   UNL     1      -5.435   1.847 127.132  0.00  0.00    +0.000 A 
ATOM      7 CL   UNL     1      -4.757   2.782 128.404  0.00  0.00    +0.000 Cl
ATOM      8  C   UNL     1      -6.078   2.480 126.079  0.00  0.00    +0.000 A 
ATOM      9  C   UNL     1      -6.644   1.717 125.059  0.00  0.00    +0.000 A 
ATOM     10  C   UNL     1      -5.833  -1.798 126.273  0.00  0.00    +0.000 C 
ATOM     11  N   UNL     1      -5.615  -2.634 125.318  0.00  0.00    +0.000 NA
ATOM     12  C   UNL     1      -5.407  -2.147 123.962  0.00  0.00    +0.000 C 
ATOM     13  C   UNL     1      -6.746  -1.568 123.435  0.00  0.00    +0.000 C 
ATOM     14  O   UNL     1      -7.346  -2.109 122.491  0.00  0.00    +0.000 OA
ENDROOT
BRANCH  10  15
ATOM     15  C   UNL     1      -6.032  -2.384 127.632  0.00  0.00    +0.000 A 
ATOM     16  C   UNL     1      -4.901  -2.579 128.439  0.00  0.00    +0.000 A 
ATOM     17  C   UNL     1      -5.020  -3.248 129.658  0.00  0.00    +0.000 A 
ATOM     18  C   UNL     1      -6.277  -3.641 130.116  0.00  0.00    +0.000 A 
ATOM     19  C   UNL     1      -7.416  -3.361 129.359  0.00  0.00    +0.000 A 
ATOM     20  C   UNL     1      -7.293  -2.784 128.092  0.00  0.00    +0.000 A 
ATOM     21 CL   UNL     1      -8.725  -2.660 127.133  0.00  0.00    +0.000 Cl
ENDBRANCH  10  15
BRANCH  12  22
ATOM     22  O   UNL     1      -4.979  -3.191 123.095  0.00  0.00    +0.000 OA
ATOM     23  H   UNL     1      -4.008  -3.167 123.175  0.00  0.00    +0.000 HD
ENDBRANCH  12  22
TORSDOF 2
ENDMDL
MODEL 6
REMARK VINA RESULT:      -6.6      4.210      7.049
REMARK  Name = Lormetazepam
REMARK  3 active torsions:
REMARK  status: ('A' for Active; 'I' for Inactive)
REMARK    1  A    between atoms: C_1  and  N_2
REMARK    2  A    between atoms: C_10  and  C_16
REMARK    3  A    between atoms: C_12  and  O_13
REMARK                            x       y       z     vdW  Elec       q    Type
REMARK                         _______ _______ _______ _____ _____    ______ ____
ROOT
ATOM      1  C   UNL     1      -8.599  -2.535 123.156  0.00  0.00    +0.000 C 
ATOM      2  N   UNL     1      -8.991  -1.559 124.166  0.00  0.00    +0.000 N 
ATOM      3  C   UNL     1      -8.683  -1.811 125.532  0.00  0.00    +0.000 A 
ATOM      4  C   UNL     1      -8.269  -0.815 126.437  0.00  0.00    +0.000 A 
ATOM      5  C   UNL     1      -7.912  -1.164 127.754  0.00  0.00    +0.000 A 
ATOM      6  C   UNL     1      -7.985  -2.488 128.174  0.00  0.00    +0.000 A 
ATOM      7 CL   UNL     1      -7.541  -2.902 129.782  0.00  0.00    +0.000 Cl
ATOM      8  C   UNL     1      -8.414  -3.476 127.302  0.00  0.00    +0.000 A 
ATOM      9  C   UNL     1      -8.756  -3.138 125.993  0.00  0.00    +0.000 A 
ATOM     10  C   UNL     1      -8.076   0.607 126.030  0.00  0.00    +0.000 C 
ATOM     11  N   UNL     1      -8.871   1.280 125.272  0.00  0.00    +0.000 NA
ATOM     12  C   UNL     1     -10.071   0.651 124.740  0.00  0.00    +0.000 C 
ATOM     13  C   UNL     1      -9.647  -0.420 123.701  0.00  0.00    +0.000 C 
ATOM     14  O   UNL     1      -9.926  -0.285 122.498  0.00  0.00    +0.000 OA
ENDROOT
BRANCH  10  15
ATOM     15  C   UNL     1      -6.872   1.331 126.534  0.00  0.00    +0.000 A 
ATOM     16  C   UNL     1      -5.652   1.121 125.873  0.00  0.00    +0.000 A 
ATOM     17  C   UNL     1      -4.475   1.667 126.391  0.00  0.00    +0.000 A 
ATOM     18  C   UNL     1      -4.527   2.495 127.511  0.00  0.00    +0.000 A 
ATOM     19  C   UNL     1      -5.754   2.783 128.113  0.00  0.00    +0.000 A 
ATOM     20  C   UNL     1      -6.920   2.159 127.662  0.00  0.00    +0.000 A 
ATOM     21 CL   UNL     1      -8.359   2.404 128.586  0.00  0.00    +0.000 Cl
ENDBRANCH  10  15
BRANCH  12  22
ATOM     22  O   UNL     1     -10.919   1.602 124.106  0.00  0.00    +0.000 OA
ATOM     23  H   UNL     1     -10.704   1.500 123.160  0.00  0.00    +0.000 HD
ENDBRANCH  12  22
TORSDOF 2
ENDMDL
MODEL 7
REMARK VINA RESULT:      -6.6      3.785      4.610
REMARK  Name = Lormetazepam
REMARK  3 active torsions:
REMARK  status: ('A' for Active; 'I' for Inactive)
REMARK    1  A    between atoms: C_1  and  N_2
REMARK    2  A    between atoms: C_10  and  C_16
REMARK    3  A    between atoms: C_12  and  O_13
REMARK                            x       y       z     vdW  Elec       q    Type
REMARK                         _______ _______ _______ _____ _____    ______ ____
ROOT
ATOM      1  C   UNL     1      -6.832   4.293 129.981  0.00  0.00    +0.000 C 
ATOM      2  N   UNL     1      -6.682   4.086 128.545  0.00  0.00    +0.000 N 
ATOM      3  C   UNL     1      -5.399   3.769 128.019  0.00  0.00    +0.000 A 
ATOM      4  C   UNL     1      -5.187   2.852 126.972  0.00  0.00    +0.000 A 
ATOM      5  C   UNL     1      -3.876   2.541 126.562  0.00  0.00    +0.000 A 
ATOM      6  C   UNL     1      -2.786   3.152 127.172  0.00  0.00    +0.000 A 
ATOM      7 CL   UNL     1      -1.191   2.760 126.666  0.00  0.00    +0.000 Cl
ATOM      8  C   UNL     1      -2.979   4.076 128.187  0.00  0.00    +0.000 A 
ATOM      9  C   UNL     1      -4.274   4.377 128.606  0.00  0.00    +0.000 A 
ATOM     10  C   UNL     1      -6.302   2.090 126.339  0.00  0.00    +0.000 C 
ATOM     11  N   UNL     1      -7.446   2.579 126.007  0.00  0.00    +0.000 NA
ATOM     12  C   UNL     1      -7.731   3.986 126.250  0.00  0.00    +0.000 C 
ATOM     13  C   UNL     1      -7.841   4.210 127.780  0.00  0.00    +0.000 C 
ATOM     14  O   UNL     1      -8.922   4.534 128.300  0.00  0.00    +0.000 OA
ENDROOT
BRANCH  10  15
ATOM     15  C   UNL     1      -6.094   0.639 126.051  0.00  0.00    +0.000 A 
ATOM     16  C   UNL     1      -6.244   0.201 124.726  0.00  0.00    +0.000 A 
ATOM     17  C   UNL     1      -6.195  -1.163 124.433  0.00  0.00    +0.000 A 
ATOM     18  C   UNL     1      -5.905  -2.081 125.441  0.00  0.00    +0.000 A 
ATOM     19  C   UNL     1      -5.658  -1.638 126.741  0.00  0.00    +0.000 A 
ATOM     20  C   UNL     1      -5.807  -0.286 127.063  0.00  0.00    +0.000 A 
ATOM     21 CL   UNL     1      -5.689   0.152 128.730  0.00  0.00    +0.000 Cl
ENDBRANCH  10  15
BRANCH  12  22
ATOM     22  O   UNL     1      -8.951   4.382 125.633  0.00  0.00    +0.000 OA
ATOM     23  H   UNL     1      -9.364   4.959 126.302  0.00  0.00    +0.000 HD
ENDBRANCH  12  22
TORSDOF 2
ENDMDL
MODEL 8
REMARK VINA RESULT:      -6.5      4.156      6.062
REMARK  Name = Lormetazepam
REMARK  3 active torsions:
REMARK  status: ('A' for Active; 'I' for Inactive)
REMARK    1  A    between atoms: C_1  and  N_2
REMARK    2  A    between atoms: C_10  and  C_16
REMARK    3  A    between atoms: C_12  and  O_13
REMARK                            x       y       z     vdW  Elec       q    Type
REMARK                         _______ _______ _______ _____ _____    ______ ____
ROOT
ATOM      1  C   UNL     1      -6.937   2.131 129.682  0.00  0.00    +0.000 C 
ATOM      2  N   UNL     1      -6.272   1.559 128.517  0.00  0.00    +0.000 N 
ATOM      3  C   UNL     1      -5.668   0.275 128.622  0.00  0.00    +0.000 A 
ATOM      4  C   UNL     1      -5.700  -0.692 127.598  0.00  0.00    +0.000 A 
ATOM      5  C   UNL     1      -5.140  -1.965 127.815  0.00  0.00    +0.000 A 
ATOM      6  C   UNL     1      -4.535  -2.270 129.029  0.00  0.00    +0.000 A 
ATOM      7 CL   UNL     1      -3.859  -3.830 129.283  0.00  0.00    +0.000 Cl
ATOM      8  C   UNL     1      -4.473  -1.321 130.037  0.00  0.00    +0.000 A 
ATOM      9  C   UNL     1      -5.038  -0.063 129.834  0.00  0.00    +0.000 A 
ATOM     10  C   UNL     1      -6.415  -0.468 126.309  0.00  0.00    +0.000 C 
ATOM     11  N   UNL     1      -6.384   0.619 125.618  0.00  0.00    +0.000 NA
ATOM     12  C   UNL     1      -5.606   1.755 126.089  0.00  0.00    +0.000 C 
ATOM     13  C   UNL     1      -6.289   2.331 127.356  0.00  0.00    +0.000 C 
ATOM     14  O   UNL     1      -6.796   3.465 127.347  0.00  0.00    +0.000 OA
ENDROOT
BRANCH  10  15
ATOM     15  C   UNL     1      -7.236  -1.584 125.751  0.00  0.00    +0.000 A 
ATOM     16  C   UNL     1      -8.524  -1.779 126.272  0.00  0.00    +0.000 A 
ATOM     17  C   UNL     1      -9.274  -2.890 125.880  0.00  0.00    +0.000 A 
ATOM     18  C   UNL     1      -8.779  -3.754 124.904  0.00  0.00    +0.000 A 
ATOM     19  C   UNL     1      -7.537  -3.506 124.315  0.00  0.00    +0.000 A 
ATOM     20  C   UNL     1      -6.739  -2.456 124.775  0.00  0.00    +0.000 A 
ATOM     21 CL   UNL     1      -5.135  -2.341 124.142  0.00  0.00    +0.000 Cl
ENDBRANCH  10  15
BRANCH  12  22
ATOM     22  O   UNL     1      -5.528   2.776 125.100  0.00  0.00    +0.000 OA
ATOM     23  H   UNL     1      -6.416   3.178 125.120  0.00  0.00    +0.000 HD
ENDBRANCH  12  22
TORSDOF 2
ENDMDL
MODEL 9
REMARK VINA RESULT:      -6.5      2.811      3.536
REMARK  Name = Lormetazepam
REMARK  3 active torsions:
REMARK  status: ('A' for Active; 'I' for Inactive)
REMARK    1  A    between atoms: C_1  and  N_2
REMARK    2  A    between atoms: C_10  and  C_16
REMARK    3  A    between atoms: C_12  and  O_13
REMARK                            x       y       z     vdW  Elec       q    Type
REMARK                         _______ _______ _______ _____ _____    ______ ____
ROOT
ATOM      1  C   UNL     1      -3.810   2.343 126.499  0.00  0.00    +0.000 C 
ATOM      2  N   UNL     1      -5.203   2.014 126.776  0.00  0.00    +0.000 N 
ATOM      3  C   UNL     1      -6.167   2.144 125.737  0.00  0.00    +0.000 A 
ATOM      4  C   UNL     1      -7.231   1.243 125.539  0.00  0.00    +0.000 A 
ATOM      5  C   UNL     1      -8.096   1.405 124.440  0.00  0.00    +0.000 A 
ATOM      6  C   UNL     1      -7.920   2.466 123.558  0.00  0.00    +0.000 A 
ATOM      7 CL   UNL     1      -8.980   2.650 122.218  0.00  0.00    +0.000 Cl
ATOM      8  C   UNL     1      -6.893   3.376 123.754  0.00  0.00    +0.000 A 
ATOM      9  C   UNL     1      -6.025   3.212 124.832  0.00  0.00    +0.000 A 
ATOM     10  C   UNL     1      -7.421   0.032 126.388  0.00  0.00    +0.000 C 
ATOM     11  N   UNL     1      -7.305  -0.007 127.670  0.00  0.00    +0.000 NA
ATOM     12  C   UNL     1      -6.956   1.202 128.403  0.00  0.00    +0.000 C 
ATOM     13  C   UNL     1      -5.488   1.576 128.068  0.00  0.00    +0.000 C 
ATOM     14  O   UNL     1      -4.605   1.529 128.940  0.00  0.00    +0.000 OA
ENDROOT
BRANCH  10  15
ATOM     15  C   UNL     1      -7.784  -1.253 125.718  0.00  0.00    +0.000 A 
ATOM     16  C   UNL     1      -9.091  -1.736 125.883  0.00  0.00    +0.000 A 
ATOM     17  C   UNL     1      -9.436  -2.996 125.391  0.00  0.00    +0.000 A 
ATOM     18  C   UNL     1      -8.508  -3.735 124.657  0.00  0.00    +0.000 A 
ATOM     19  C   UNL     1      -7.238  -3.212 124.410  0.00  0.00    +0.000 A 
ATOM     20  C   UNL     1      -6.853  -1.998 124.985  0.00  0.00    +0.000 A 
ATOM     21 CL   UNL     1      -5.202  -1.521 124.804  0.00  0.00    +0.000 Cl
ENDBRANCH  10  15
BRANCH  12  22
ATOM     22  O   UNL     1      -7.077   1.011 129.808  0.00  0.00    +0.000 OA
ATOM     23  H   UNL     1      -6.270   1.428 130.163  0.00  0.00    +0.000 HD
ENDBRANCH  12  22
TORSDOF 2
ENDMDL
