MODEL 1
REMARK VINA RESULT:      -7.6      0.000      0.000
REMARK  Name = Lornoxicam
REMARK  4 active torsions:
REMARK  status: ('A' for Active; 'I' for Inactive)
REMARK    1  A    between atoms: C_1  and  N_2
REMARK    2  A    between atoms: C_3  and  C_4
REMARK    3  A    between atoms: N_6  and  C_7
REMARK    4  A    between atoms: C_13  and  O_14
REMARK                            x       y       z     vdW  Elec       q    Type
REMARK                         _______ _______ _______ _____ _____    ______ ____
ROOT
ATOM      1  C   UNL     1      -5.559   3.463 125.405  0.00  0.00    +0.000 C 
ATOM      2  N   UNL     1      -6.405   2.309 125.187  0.00  0.00    +0.000 N 
ATOM      3  C   UNL     1      -7.215   1.965 124.032  0.00  0.00    +0.000 C 
ATOM      4  C   UNL     1      -7.960   0.814 124.021  0.00  0.00    +0.000 C 
ATOM      5  C   UNL     1      -7.962  -0.126 125.106  0.00  0.00    +0.000 A 
ATOM      6  C   UNL     1      -7.242  -0.036 126.267  0.00  0.00    +0.000 A 
ATOM      7  C   UNL     1      -7.395  -1.078 127.203  0.00  0.00    +0.000 A 
ATOM      8  C   UNL     1      -8.273  -1.993 126.702  0.00  0.00    +0.000 A 
ATOM      9 CL   UNL     1      -8.764  -3.436 127.485  0.00  0.00    +0.000 Cl
ATOM     10  S   UNL     1      -8.879  -1.593 125.167  0.00  0.00    +0.000 S 
ATOM     11  S   UNL     1      -6.232   1.283 126.498  0.00  0.00    +0.000 S 
ATOM     12  O   UNL     1      -4.893   0.718 126.456  0.00  0.00    +0.000 OA
ATOM     13  O   UNL     1      -6.752   1.943 127.664  0.00  0.00    +0.000 OA
ENDROOT
BRANCH   3  14
ATOM     14  C   UNL     1      -7.359   2.883 122.814  0.00  0.00    +0.000 C 
ATOM     15  O   UNL     1      -8.449   3.435 122.619  0.00  0.00    +0.000 OA
ATOM     16  N   UNL     1      -6.319   3.042 121.939  0.00  0.00    +0.000 N 
ATOM     17  H   UNL     1      -5.594   2.380 121.757  0.00  0.00    +0.000 HD
BRANCH  16  18
ATOM     18  C   UNL     1      -6.292   3.885 120.854  0.00  0.00    +0.000 A 
ATOM     19  C   UNL     1      -7.277   3.844 119.897  0.00  0.00    +0.000 A 
ATOM     20  C   UNL     1      -7.146   4.704 118.828  0.00  0.00    +0.000 A 
ATOM     21  C   UNL     1      -6.047   5.562 118.771  0.00  0.00    +0.000 A 
ATOM     22  C   UNL     1      -5.149   5.574 119.825  0.00  0.00    +0.000 A 
ATOM     23  N   UNL     1      -5.275   4.771 120.893  0.00  0.00    +0.000 NA
ENDBRANCH  16  18
ENDBRANCH   3  14
BRANCH   4  24
ATOM     24  O   UNL     1      -8.795   0.422 122.983  0.00  0.00    +0.000 OA
ATOM     25  H   UNL     1      -9.600  -0.008 123.351  0.00  0.00    +0.000 HD
ENDBRANCH   4  24
TORSDOF 3
ENDMDL
MODEL 2
REMARK VINA RESULT:      -7.5      8.020      9.636
REMARK  Name = Lornoxicam
REMARK  4 active torsions:
REMARK  status: ('A' for Active; 'I' for Inactive)
REMARK    1  A    between atoms: C_1  and  N_2
REMARK    2  A    between atoms: C_3  and  C_4
REMARK    3  A    between atoms: N_6  and  C_7
REMARK    4  A    between atoms: C_13  and  O_14
REMARK                            x       y       z     vdW  Elec       q    Type
REMARK                         _______ _______ _______ _____ _____    ______ ____
ROOT
ATOM      1  C   UNL     1      -8.906   2.294 130.098  0.00  0.00    +0.000 C 
ATOM      2  N   UNL     1      -8.750   3.189 131.225  0.00  0.00    +0.000 N 
ATOM      3  C   UNL     1      -9.478   4.403 131.545  0.00  0.00    +0.000 C 
ATOM      4  C   UNL     1      -9.172   5.122 132.673  0.00  0.00    +0.000 C 
ATOM      5  C   UNL     1      -8.164   4.715 133.610  0.00  0.00    +0.000 A 
ATOM      6  C   UNL     1      -7.390   3.587 133.540  0.00  0.00    +0.000 A 
ATOM      7  C   UNL     1      -6.456   3.381 134.574  0.00  0.00    +0.000 A 
ATOM      8  C   UNL     1      -6.550   4.411 135.463  0.00  0.00    +0.000 A 
ATOM      9 CL   UNL     1      -5.615   4.587 136.888  0.00  0.00    +0.000 Cl
ATOM     10  S   UNL     1      -7.719   5.571 135.047  0.00  0.00    +0.000 S 
ATOM     11  S   UNL     1      -7.603   2.533 132.252  0.00  0.00    +0.000 S 
ATOM     12  O   UNL     1      -8.170   1.339 132.860  0.00  0.00    +0.000 OA
ATOM     13  O   UNL     1      -6.336   2.523 131.575  0.00  0.00    +0.000 OA
ENDROOT
BRANCH   3  14
ATOM     14  C   UNL     1     -10.549   4.998 130.626  0.00  0.00    +0.000 C 
ATOM     15  O   UNL     1     -11.483   4.273 130.264  0.00  0.00    +0.000 OA
ATOM     16  N   UNL     1     -10.438   6.288 130.178  0.00  0.00    +0.000 N 
ATOM     17  H   UNL     1      -9.590   6.800 130.057  0.00  0.00    +0.000 HD
BRANCH  16  18
ATOM     18  C   UNL     1     -11.358   6.962 129.412  0.00  0.00    +0.000 A 
ATOM     19  C   UNL     1     -12.178   7.918 129.962  0.00  0.00    +0.000 A 
ATOM     20  C   UNL     1     -13.092   8.515 129.122  0.00  0.00    +0.000 A 
ATOM     21  C   UNL     1     -13.139   8.135 127.781  0.00  0.00    +0.000 A 
ATOM     22  C   UNL     1     -12.219   7.213 127.311  0.00  0.00    +0.000 A 
ATOM     23  N   UNL     1     -11.296   6.644 128.102  0.00  0.00    +0.000 NA
ENDBRANCH  16  18
ENDBRANCH   3  14
BRANCH   4  24
ATOM     24  O   UNL     1      -9.783   6.314 133.041  0.00  0.00    +0.000 OA
ATOM     25  H   UNL     1      -9.639   6.476 134.000  0.00  0.00    +0.000 HD
ENDBRANCH   4  24
TORSDOF 3
ENDMDL
MODEL 3
REMARK VINA RESULT:      -7.3      9.231      9.856
REMARK  Name = Lornoxicam
REMARK  4 active torsions:
REMARK  status: ('A' for Active; 'I' for Inactive)
REMARK    1  A    between atoms: C_1  and  N_2
REMARK    2  A    between atoms: C_3  and  C_4
REMARK    3  A    between atoms: N_6  and  C_7
REMARK    4  A    between atoms: C_13  and  O_14
REMARK                            x       y       z     vdW  Elec       q    Type
REMARK                         _______ _______ _______ _____ _____    ______ ____
ROOT
ATOM      1  C   UNL     1      -9.294   3.745 133.262  0.00  0.00    +0.000 C 
ATOM      2  N   UNL     1      -8.212   4.538 132.719  0.00  0.00    +0.000 N 
ATOM      3  C   UNL     1      -8.268   5.723 131.882  0.00  0.00    +0.000 C 
ATOM      4  C   UNL     1      -7.115   6.336 131.463  0.00  0.00    +0.000 C 
ATOM      5  C   UNL     1      -5.806   5.882 131.844  0.00  0.00    +0.000 A 
ATOM      6  C   UNL     1      -5.514   4.824 132.661  0.00  0.00    +0.000 A 
ATOM      7  C   UNL     1      -4.152   4.554 132.904  0.00  0.00    +0.000 A 
ATOM      8  C   UNL     1      -3.396   5.470 132.234  0.00  0.00    +0.000 A 
ATOM      9 CL   UNL     1      -1.684   5.544 132.237  0.00  0.00    +0.000 Cl
ATOM     10  S   UNL     1      -4.309   6.598 131.351  0.00  0.00    +0.000 S 
ATOM     11  S   UNL     1      -6.772   3.931 133.319  0.00  0.00    +0.000 S 
ATOM     12  O   UNL     1      -6.714   4.229 134.742  0.00  0.00    +0.000 OA
ATOM     13  O   UNL     1      -6.587   2.603 132.803  0.00  0.00    +0.000 OA
ENDROOT
BRANCH   3  14
ATOM     14  C   UNL     1      -9.581   6.304 131.349  0.00  0.00    +0.000 C 
ATOM     15  O   UNL     1     -10.423   6.700 132.164  0.00  0.00    +0.000 OA
ATOM     16  N   UNL     1      -9.830   6.332 130.003  0.00  0.00    +0.000 N 
ATOM     17  H   UNL     1      -9.454   5.708 129.320  0.00  0.00    +0.000 HD
BRANCH  16  18
ATOM     18  C   UNL     1     -10.929   6.886 129.392  0.00  0.00    +0.000 A 
ATOM     19  C   UNL     1     -10.908   8.178 128.925  0.00  0.00    +0.000 A 
ATOM     20  C   UNL     1     -12.069   8.658 128.359  0.00  0.00    +0.000 A 
ATOM     21  C   UNL     1     -13.186   7.827 128.283  0.00  0.00    +0.000 A 
ATOM     22  C   UNL     1     -13.080   6.516 128.719  0.00  0.00    +0.000 A 
ATOM     23  N   UNL     1     -11.950   6.016 129.240  0.00  0.00    +0.000 NA
ENDBRANCH  16  18
ENDBRANCH   3  14
BRANCH   4  24
ATOM     24  O   UNL     1      -7.066   7.445 130.629  0.00  0.00    +0.000 OA
ATOM     25  H   UNL     1      -7.323   8.249 131.135  0.00  0.00    +0.000 HD
ENDBRANCH   4  24
TORSDOF 3
ENDMDL
MODEL 4
REMARK VINA RESULT:      -7.2      3.667      7.335
REMARK  Name = Lornoxicam
REMARK  4 active torsions:
REMARK  status: ('A' for Active; 'I' for Inactive)
REMARK    1  A    between atoms: C_1  and  N_2
REMARK    2  A    between atoms: C_3  and  C_4
REMARK    3  A    between atoms: N_6  and  C_7
REMARK    4  A    between atoms: C_13  and  O_14
REMARK                            x       y       z     vdW  Elec       q    Type
REMARK                         _______ _______ _______ _____ _____    ______ ____
ROOT
ATOM      1  C   UNL     1      -5.781   2.978 127.892  0.00  0.00    +0.000 C 
ATOM      2  N   UNL     1      -6.091   2.801 126.489  0.00  0.00    +0.000 N 
ATOM      3  C   UNL     1      -6.953   1.821 125.853  0.00  0.00    +0.000 C 
ATOM      4  C   UNL     1      -7.114   1.815 124.491  0.00  0.00    +0.000 C 
ATOM      5  C   UNL     1      -6.488   2.775 123.626  0.00  0.00    +0.000 A 
ATOM      6  C   UNL     1      -5.679   3.813 124.005  0.00  0.00    +0.000 A 
ATOM      7  C   UNL     1      -5.169   4.639 122.984  0.00  0.00    +0.000 A 
ATOM      8  C   UNL     1      -5.634   4.191 121.783  0.00  0.00    +0.000 A 
ATOM      9 CL   UNL     1      -5.285   4.888 120.257  0.00  0.00    +0.000 Cl
ATOM     10  S   UNL     1      -6.639   2.828 121.902  0.00  0.00    +0.000 S 
ATOM     11  S   UNL     1      -5.355   4.038 125.635  0.00  0.00    +0.000 S 
ATOM     12  O   UNL     1      -6.034   5.281 125.965  0.00  0.00    +0.000 OA
ATOM     13  O   UNL     1      -3.931   3.887 125.750  0.00  0.00    +0.000 OA
ENDROOT
BRANCH   3  14
ATOM     14  C   UNL     1      -7.653   0.701 126.627  0.00  0.00    +0.000 C 
ATOM     15  O   UNL     1      -8.663   0.981 127.284  0.00  0.00    +0.000 OA
ATOM     16  N   UNL     1      -7.136  -0.567 126.630  0.00  0.00    +0.000 N 
ATOM     17  H   UNL     1      -6.177  -0.814 126.506  0.00  0.00    +0.000 HD
BRANCH  16  18
ATOM     18  C   UNL     1      -7.700  -1.672 127.221  0.00  0.00    +0.000 A 
ATOM     19  C   UNL     1      -8.466  -2.553 126.497  0.00  0.00    +0.000 A 
ATOM     20  C   UNL     1      -9.018  -3.612 127.184  0.00  0.00    +0.000 A 
ATOM     21  C   UNL     1      -8.775  -3.742 128.551  0.00  0.00    +0.000 A 
ATOM     22  C   UNL     1      -7.929  -2.838 129.172  0.00  0.00    +0.000 A 
ATOM     23  N   UNL     1      -7.351  -1.820 128.516  0.00  0.00    +0.000 NA
ENDBRANCH  16  18
ENDBRANCH   3  14
BRANCH   4  24
ATOM     24  O   UNL     1      -7.882   0.895 123.788  0.00  0.00    +0.000 OA
ATOM     25  H   UNL     1      -7.336   0.481 123.082  0.00  0.00    +0.000 HD
ENDBRANCH   4  24
TORSDOF 3
ENDMDL
MODEL 5
REMARK VINA RESULT:      -7.1      3.272      6.153
REMARK  Name = Lornoxicam
REMARK  4 active torsions:
REMARK  status: ('A' for Active; 'I' for Inactive)
REMARK    1  A    between atoms: C_1  and  N_2
REMARK    2  A    between atoms: C_3  and  C_4
REMARK    3  A    between atoms: N_6  and  C_7
REMARK    4  A    between atoms: C_13  and  O_14
REMARK                            x       y       z     vdW  Elec       q    Type
REMARK                         _______ _______ _______ _____ _____    ______ ____
ROOT
ATOM      1  C   UNL     1      -5.847   4.532 124.274  0.00  0.00    +0.000 C 
ATOM      2  N   UNL     1      -5.949   3.141 124.660  0.00  0.00    +0.000 N 
ATOM      3  C   UNL     1      -5.280   2.433 125.736  0.00  0.00    +0.000 C 
ATOM      4  C   UNL     1      -5.509   1.095 125.939  0.00  0.00    +0.000 C 
ATOM      5  C   UNL     1      -6.432   0.332 125.146  0.00  0.00    +0.000 A 
ATOM      6  C   UNL     1      -7.206   0.798 124.117  0.00  0.00    +0.000 A 
ATOM      7  C   UNL     1      -8.047  -0.130 123.473  0.00  0.00    +0.000 A 
ATOM      8  C   UNL     1      -7.891  -1.349 124.063  0.00  0.00    +0.000 A 
ATOM      9 CL   UNL     1      -8.715  -2.785 123.620  0.00  0.00    +0.000 Cl
ATOM     10  S   UNL     1      -6.769  -1.355 125.338  0.00  0.00    +0.000 S 
ATOM     11  S   UNL     1      -7.114   2.420 123.699  0.00  0.00    +0.000 S 
ATOM     12  O   UNL     1      -8.410   2.960 124.079  0.00  0.00    +0.000 OA
ATOM     13  O   UNL     1      -6.649   2.421 122.340  0.00  0.00    +0.000 OA
ENDROOT
BRANCH   3  14
ATOM     14  C   UNL     1      -4.231   3.089 126.639  0.00  0.00    +0.000 C 
ATOM     15  O   UNL     1      -3.058   2.707 126.553  0.00  0.00    +0.000 OA
ATOM     16  N   UNL     1      -4.602   4.038 127.554  0.00  0.00    +0.000 N 
ATOM     17  H   UNL     1      -5.497   4.123 127.988  0.00  0.00    +0.000 HD
BRANCH  16  18
ATOM     18  C   UNL     1      -3.757   4.752 128.370  0.00  0.00    +0.000 A 
ATOM     19  C   UNL     1      -3.532   4.369 129.670  0.00  0.00    +0.000 A 
ATOM     20  C   UNL     1      -2.696   5.167 130.421  0.00  0.00    +0.000 A 
ATOM     21  C   UNL     1      -2.127   6.299 129.838  0.00  0.00    +0.000 A 
ATOM     22  C   UNL     1      -2.363   6.556 128.497  0.00  0.00    +0.000 A 
ATOM     23  N   UNL     1      -3.143   5.774 127.737  0.00  0.00    +0.000 NA
ENDBRANCH  16  18
ENDBRANCH   3  14
BRANCH   4  24
ATOM     24  O   UNL     1      -4.887   0.324 126.912  0.00  0.00    +0.000 OA
ATOM     25  H   UNL     1      -5.223  -0.599 126.865  0.00  0.00    +0.000 HD
ENDBRANCH   4  24
TORSDOF 3
ENDMDL
MODEL 6
REMARK VINA RESULT:      -7.0      4.182      6.705
REMARK  Name = Lornoxicam
REMARK  4 active torsions:
REMARK  status: ('A' for Active; 'I' for Inactive)
REMARK    1  A    between atoms: C_1  and  N_2
REMARK    2  A    between atoms: C_3  and  C_4
REMARK    3  A    between atoms: N_6  and  C_7
REMARK    4  A    between atoms: C_13  and  O_14
REMARK                            x       y       z     vdW  Elec       q    Type
REMARK                         _______ _______ _______ _____ _____    ______ ____
ROOT
ATOM      1  C   UNL     1      -7.965   3.110 123.931  0.00  0.00    +0.000 C 
ATOM      2  N   UNL     1      -6.860   2.996 124.860  0.00  0.00    +0.000 N 
ATOM      3  C   UNL     1      -6.183   1.807 125.345  0.00  0.00    +0.000 C 
ATOM      4  C   UNL     1      -5.147   1.910 126.238  0.00  0.00    +0.000 C 
ATOM      5  C   UNL     1      -4.648   3.170 126.714  0.00  0.00    +0.000 A 
ATOM      6  C   UNL     1      -5.096   4.414 126.357  0.00  0.00    +0.000 A 
ATOM      7  C   UNL     1      -4.458   5.522 126.949  0.00  0.00    +0.000 A 
ATOM      8  C   UNL     1      -3.479   5.072 127.784  0.00  0.00    +0.000 A 
ATOM      9 CL   UNL     1      -2.433   6.057 128.717  0.00  0.00    +0.000 Cl
ATOM     10  S   UNL     1      -3.352   3.379 127.842  0.00  0.00    +0.000 S 
ATOM     11  S   UNL     1      -6.350   4.541 125.251  0.00  0.00    +0.000 S 
ATOM     12  O   UNL     1      -5.726   5.123 124.072  0.00  0.00    +0.000 OA
ATOM     13  O   UNL     1      -7.405   5.203 125.968  0.00  0.00    +0.000 OA
ENDROOT
BRANCH   3  14
ATOM     14  C   UNL     1      -6.624   0.388 124.973  0.00  0.00    +0.000 C 
ATOM     15  O   UNL     1      -5.752  -0.463 124.763  0.00  0.00    +0.000 OA
ATOM     16  N   UNL     1      -7.953   0.092 124.827  0.00  0.00    +0.000 N 
ATOM     17  H   UNL     1      -8.676   0.731 124.569  0.00  0.00    +0.000 HD
BRANCH  16  18
ATOM     18  C   UNL     1      -8.484  -1.149 124.568  0.00  0.00    +0.000 A 
ATOM     19  C   UNL     1      -8.640  -1.601 123.280  0.00  0.00    +0.000 A 
ATOM     20  C   UNL     1      -9.213  -2.844 123.119  0.00  0.00    +0.000 A 
ATOM     21  C   UNL     1      -9.596  -3.571 124.246  0.00  0.00    +0.000 A 
ATOM     22  C   UNL     1      -9.328  -3.054 125.503  0.00  0.00    +0.000 A 
ATOM     23  N   UNL     1      -8.738  -1.863 125.684  0.00  0.00    +0.000 NA
ENDBRANCH  16  18
ENDBRANCH   3  14
BRANCH   4  24
ATOM     24  O   UNL     1      -4.467   0.832 126.789  0.00  0.00    +0.000 OA
ATOM     25  H   UNL     1      -4.007   0.334 126.077  0.00  0.00    +0.000 HD
ENDBRANCH   4  24
TORSDOF 3
ENDMDL
MODEL 7
REMARK VINA RESULT:      -7.0      7.317      8.780
REMARK  Name = Lornoxicam
REMARK  4 active torsions:
REMARK  status: ('A' for Active; 'I' for Inactive)
REMARK    1  A    between atoms: C_1  and  N_2
REMARK    2  A    between atoms: C_3  and  C_4
REMARK    3  A    between atoms: N_6  and  C_7
REMARK    4  A    between atoms: C_13  and  O_14
REMARK                            x       y       z     vdW  Elec       q    Type
REMARK                         _______ _______ _______ _____ _____    ______ ____
ROOT
ATOM      1  C   UNL     1      -8.823   2.504 129.261  0.00  0.00    +0.000 C 
ATOM      2  N   UNL     1      -7.977   3.580 129.733  0.00  0.00    +0.000 N 
ATOM      3  C   UNL     1      -8.325   4.954 130.048  0.00  0.00    +0.000 C 
ATOM      4  C   UNL     1      -7.366   5.833 130.483  0.00  0.00    +0.000 C 
ATOM      5  C   UNL     1      -5.996   5.456 130.689  0.00  0.00    +0.000 A 
ATOM      6  C   UNL     1      -5.454   4.211 130.507  0.00  0.00    +0.000 A 
ATOM      7  C   UNL     1      -4.078   4.063 130.771  0.00  0.00    +0.000 A 
ATOM      8  C   UNL     1      -3.576   5.264 131.178  0.00  0.00    +0.000 A 
ATOM      9 CL   UNL     1      -1.948   5.566 131.616  0.00  0.00    +0.000 Cl
ATOM     10  S   UNL     1      -4.731   6.508 131.230  0.00  0.00    +0.000 S 
ATOM     11  S   UNL     1      -6.446   2.959 129.998  0.00  0.00    +0.000 S 
ATOM     12  O   UNL     1      -6.512   2.067 131.145  0.00  0.00    +0.000 OA
ATOM     13  O   UNL     1      -5.897   2.547 128.735  0.00  0.00    +0.000 OA
ENDROOT
BRANCH   3  14
ATOM     14  C   UNL     1      -9.729   5.527 129.836  0.00  0.00    +0.000 C 
ATOM     15  O   UNL     1     -10.660   5.070 130.510  0.00  0.00    +0.000 OA
ATOM     16  N   UNL     1      -9.949   6.486 128.883  0.00  0.00    +0.000 N 
ATOM     17  H   UNL     1      -9.418   6.624 128.049  0.00  0.00    +0.000 HD
BRANCH  16  18
ATOM     18  C   UNL     1     -11.139   7.131 128.640  0.00  0.00    +0.000 A 
ATOM     19  C   UNL     1     -11.471   8.284 129.309  0.00  0.00    +0.000 A 
ATOM     20  C   UNL     1     -12.700   8.839 129.023  0.00  0.00    +0.000 A 
ATOM     21  C   UNL     1     -13.528   8.221 128.086  0.00  0.00    +0.000 A 
ATOM     22  C   UNL     1     -13.067   7.101 127.416  0.00  0.00    +0.000 A 
ATOM     23  N   UNL     1     -11.860   6.563 127.651  0.00  0.00    +0.000 NA
ENDBRANCH  16  18
ENDBRANCH   3  14
BRANCH   4  24
ATOM     24  O   UNL     1      -7.592   7.174 130.768  0.00  0.00    +0.000 OA
ATOM     25  H   UNL     1      -6.837   7.532 131.288  0.00  0.00    +0.000 HD
ENDBRANCH   4  24
TORSDOF 3
ENDMDL
MODEL 8
REMARK VINA RESULT:      -6.9      4.933      6.604
REMARK  Name = Lornoxicam
REMARK  4 active torsions:
REMARK  status: ('A' for Active; 'I' for Inactive)
REMARK    1  A    between atoms: C_1  and  N_2
REMARK    2  A    between atoms: C_3  and  C_4
REMARK    3  A    between atoms: N_6  and  C_7
REMARK    4  A    between atoms: C_13  and  O_14
REMARK                            x       y       z     vdW  Elec       q    Type
REMARK                         _______ _______ _______ _____ _____    ______ ____
ROOT
ATOM      1  C   UNL     1      -7.477   3.733 126.157  0.00  0.00    +0.000 C 
ATOM      2  N   UNL     1      -7.748   3.085 127.423  0.00  0.00    +0.000 N 
ATOM      3  C   UNL     1      -7.862   1.670 127.728  0.00  0.00    +0.000 C 
ATOM      4  C   UNL     1      -8.131   1.253 129.007  0.00  0.00    +0.000 C 
ATOM      5  C   UNL     1      -8.276   2.159 130.111  0.00  0.00    +0.000 A 
ATOM      6  C   UNL     1      -8.160   3.523 130.069  0.00  0.00    +0.000 A 
ATOM      7  C   UNL     1      -8.341   4.222 131.279  0.00  0.00    +0.000 A 
ATOM      8  C   UNL     1      -8.599   3.324 132.272  0.00  0.00    +0.000 A 
ATOM      9 CL   UNL     1      -8.879   3.709 133.918  0.00  0.00    +0.000 Cl
ATOM     10  S   UNL     1      -8.620   1.709 131.747  0.00  0.00    +0.000 S 
ATOM     11  S   UNL     1      -7.807   4.266 128.608  0.00  0.00    +0.000 S 
ATOM     12  O   UNL     1      -6.463   4.791 128.790  0.00  0.00    +0.000 OA
ATOM     13  O   UNL     1      -8.936   5.116 128.348  0.00  0.00    +0.000 OA
ENDROOT
BRANCH   3  14
ATOM     14  C   UNL     1      -7.783   0.579 126.657  0.00  0.00    +0.000 C 
ATOM     15  O   UNL     1      -6.674   0.290 126.192  0.00  0.00    +0.000 OA
ATOM     16  N   UNL     1      -8.923  -0.020 126.193  0.00  0.00    +0.000 N 
ATOM     17  H   UNL     1      -9.836   0.382 126.173  0.00  0.00    +0.000 HD
BRANCH  16  18
ATOM     18  C   UNL     1      -8.986  -1.056 125.291  0.00  0.00    +0.000 A 
ATOM     19  C   UNL     1      -8.938  -2.365 125.707  0.00  0.00    +0.000 A 
ATOM     20  C   UNL     1      -8.973  -3.333 124.727  0.00  0.00    +0.000 A 
ATOM     21  C   UNL     1      -9.059  -2.949 123.389  0.00  0.00    +0.000 A 
ATOM     22  C   UNL     1      -9.174  -1.603 123.082  0.00  0.00    +0.000 A 
ATOM     23  N   UNL     1      -9.179  -0.645 124.021  0.00  0.00    +0.000 NA
ENDBRANCH  16  18
ENDBRANCH   3  14
BRANCH   4  24
ATOM     24  O   UNL     1      -8.300  -0.072 129.388  0.00  0.00    +0.000 OA
ATOM     25  H   UNL     1      -8.777  -0.110 130.248  0.00  0.00    +0.000 HD
ENDBRANCH   4  24
TORSDOF 3
ENDMDL
MODEL 9
REMARK VINA RESULT:      -6.7      4.601      8.940
REMARK  Name = Lornoxicam
REMARK  4 active torsions:
REMARK  status: ('A' for Active; 'I' for Inactive)
REMARK    1  A    between atoms: C_1  and  N_2
REMARK    2  A    between atoms: C_3  and  C_4
REMARK    3  A    between atoms: N_6  and  C_7
REMARK    4  A    between atoms: C_13  and  O_14
REMARK                            x       y       z     vdW  Elec       q    Type
REMARK                         _______ _______ _______ _____ _____    ______ ____
ROOT
ATOM      1  C   UNL     1      -8.235  -4.323 125.282  0.00  0.00    +0.000 C 
ATOM      2  N   UNL     1      -8.210  -2.891 125.494  0.00  0.00    +0.000 N 
ATOM      3  C   UNL     1      -8.017  -2.146 126.726  0.00  0.00    +0.000 C 
ATOM      4  C   UNL     1      -8.032  -0.774 126.719  0.00  0.00    +0.000 C 
ATOM      5  C   UNL     1      -8.196  -0.000 125.521  0.00  0.00    +0.000 A 
ATOM      6  C   UNL     1      -8.342  -0.485 124.248  0.00  0.00    +0.000 A 
ATOM      7  C   UNL     1      -8.488   0.460 123.213  0.00  0.00    +0.000 A 
ATOM      8  C   UNL     1      -8.440   1.712 123.749  0.00  0.00    +0.000 A 
ATOM      9 CL   UNL     1      -8.567   3.179 122.872  0.00  0.00    +0.000 Cl
ATOM     10  S   UNL     1      -8.230   1.729 125.435  0.00  0.00    +0.000 S 
ATOM     11  S   UNL     1      -8.331  -2.143 124.002  0.00  0.00    +0.000 S 
ATOM     12  O   UNL     1      -7.096  -2.387 123.273  0.00  0.00    +0.000 OA
ATOM     13  O   UNL     1      -9.623  -2.440 123.447  0.00  0.00    +0.000 OA
ENDROOT
BRANCH   3  14
ATOM     14  C   UNL     1      -7.879  -2.820 128.094  0.00  0.00    +0.000 C 
ATOM     15  O   UNL     1      -8.784  -3.572 128.474  0.00  0.00    +0.000 OA
ATOM     16  N   UNL     1      -6.800  -2.550 128.893  0.00  0.00    +0.000 N 
ATOM     17  H   UNL     1      -6.261  -1.710 128.893  0.00  0.00    +0.000 HD
BRANCH  16  18
ATOM     18  C   UNL     1      -6.520  -3.137 130.103  0.00  0.00    +0.000 A 
ATOM     19  C   UNL     1      -5.693  -4.231 130.189  0.00  0.00    +0.000 A 
ATOM     20  C   UNL     1      -5.499  -4.771 131.442  0.00  0.00    +0.000 A 
ATOM     21  C   UNL     1      -6.133  -4.192 132.541  0.00  0.00    +0.000 A 
ATOM     22  C   UNL     1      -6.889  -3.047 132.356  0.00  0.00    +0.000 A 
ATOM     23  N   UNL     1      -7.063  -2.482 131.151  0.00  0.00    +0.000 NA
ENDBRANCH  16  18
ENDBRANCH   3  14
BRANCH   4  24
ATOM     24  O   UNL     1      -7.899   0.024 127.848  0.00  0.00    +0.000 OA
ATOM     25  H   UNL     1      -8.559   0.752 127.816  0.00  0.00    +0.000 HD
ENDBRANCH   4  24
TORSDOF 3
ENDMDL
