MODEL 1
REMARK VINA RESULT:      -9.1      0.000      0.000
REMARK  Name = Lorpiprazole
REMARK  5 active torsions:
REMARK  status: ('A' for Active; 'I' for Inactive)
REMARK    1  A    between atoms: C_11  and  C_12
REMARK    2  A    between atoms: C_12  and  C_13
REMARK    3  A    between atoms: C_13  and  N_14
REMARK    4  A    between atoms: N_17  and  C_20
REMARK    5  A    between atoms: C_24  and  C_26
REMARK                            x       y       z     vdW  Elec       q    Type
REMARK                         _______ _______ _______ _____ _____    ______ ____
ROOT
ATOM      1  N   UNL     1      -6.981   2.587 128.579  0.00  0.00    +0.000 NA
ATOM      2  C   UNL     1      -7.932   1.431 128.585  0.00  0.00    +0.000 C 
ATOM      3  C   UNL     1      -8.691   1.191 127.244  0.00  0.00    +0.000 C 
ATOM      4  N   UNL     1      -7.765   1.257 126.101  0.00  0.00    +0.000 N 
ATOM      5  C   UNL     1      -6.729   2.276 126.111  0.00  0.00    +0.000 C 
ATOM      6  C   UNL     1      -6.021   2.295 127.485  0.00  0.00    +0.000 C 
ENDROOT
BRANCH   4   7
ATOM      7  C   UNL     1      -7.684   0.242 125.187  0.00  0.00    +0.000 A 
ATOM      8  C   UNL     1      -6.901   0.384 124.043  0.00  0.00    +0.000 A 
ATOM      9  C   UNL     1      -6.846  -0.628 123.089  0.00  0.00    +0.000 A 
ATOM     10  C   UNL     1      -7.558  -1.810 123.288  0.00  0.00    +0.000 A 
ATOM     11  C   UNL     1      -8.336  -1.982 124.441  0.00  0.00    +0.000 A 
ATOM     12  C   UNL     1      -8.374  -0.957 125.387  0.00  0.00    +0.000 A 
BRANCH  11  13
ATOM     13  C   UNL     1      -9.167  -3.220 124.632  0.00  0.00    +0.000 C 
ATOM     14  F   UNL     1      -9.936  -3.495 123.542  0.00  0.00    +0.000 F 
ATOM     15  F   UNL     1      -8.415  -4.332 124.855  0.00  0.00    +0.000 F 
ATOM     16  F   UNL     1     -10.032  -3.141 125.683  0.00  0.00    +0.000 F 
ENDBRANCH  11  13
ENDBRANCH   4   7
BRANCH   1  17
ATOM     17  C   UNL     1      -7.677   3.887 128.327  0.00  0.00    +0.000 C 
BRANCH  17  18
ATOM     18  C   UNL     1      -8.020   4.636 129.634  0.00  0.00    +0.000 C 
BRANCH  18  27
ATOM     19  C   UNL     1     -11.013   7.201 128.637  0.00  0.00    +0.000 C 
ATOM     20  C   UNL     1     -12.145   8.024 127.988  0.00  0.00    +0.000 C 
ATOM     21  C   UNL     1     -12.725   8.879 129.120  0.00  0.00    +0.000 C 
ATOM     22  C   UNL     1     -12.564   8.015 130.383  0.00  0.00    +0.000 C 
ATOM     23  C   UNL     1     -12.116   6.725 129.716  0.00  0.00    +0.000 C 
ATOM     24  C   UNL     1     -11.399   5.611 130.339  0.00  0.00    +0.000 A 
ATOM     25  N   UNL     1     -11.594   4.320 130.089  0.00  0.00    +0.000 NA
ATOM     26  N   UNL     1     -10.374   3.760 129.808  0.00  0.00    +0.000 NA
ATOM     27  C   UNL     1      -9.443   4.701 129.964  0.00  0.00    +0.000 A 
ATOM     28  N   UNL     1     -10.060   5.861 130.317  0.00  0.00    +0.000 N 
ATOM     29  C   UNL     1      -9.857   7.194 129.733  0.00  0.00    +0.000 C 
ENDBRANCH  18  27
ENDBRANCH  17  18
ENDBRANCH   1  17
TORSDOF 5
ENDMDL
MODEL 2
REMARK VINA RESULT:      -9.0      1.232      1.812
REMARK  Name = Lorpiprazole
REMARK  5 active torsions:
REMARK  status: ('A' for Active; 'I' for Inactive)
REMARK    1  A    between atoms: C_11  and  C_12
REMARK    2  A    between atoms: C_12  and  C_13
REMARK    3  A    between atoms: C_13  and  N_14
REMARK    4  A    between atoms: N_17  and  C_20
REMARK    5  A    between atoms: C_24  and  C_26
REMARK                            x       y       z     vdW  Elec       q    Type
REMARK                         _______ _______ _______ _____ _____    ______ ____
ROOT
ATOM      1  N   UNL     1      -6.561   2.870 127.846  0.00  0.00    +0.000 NA
ATOM      2  C   UNL     1      -6.780   1.711 128.768  0.00  0.00    +0.000 C 
ATOM      3  C   UNL     1      -8.056   0.864 128.473  0.00  0.00    +0.000 C 
ATOM      4  N   UNL     1      -8.168   0.573 127.034  0.00  0.00    +0.000 N 
ATOM      5  C   UNL     1      -7.829   1.624 126.090  0.00  0.00    +0.000 C 
ATOM      6  C   UNL     1      -6.486   2.278 126.487  0.00  0.00    +0.000 C 
ENDROOT
BRANCH   4   7
ATOM      7  C   UNL     1      -8.315  -0.708 126.572  0.00  0.00    +0.000 A 
ATOM      8  C   UNL     1      -8.061  -1.792 127.409  0.00  0.00    +0.000 A 
ATOM      9  C   UNL     1      -8.170  -3.096 126.935  0.00  0.00    +0.000 A 
ATOM     10  C   UNL     1      -8.562  -3.326 125.616  0.00  0.00    +0.000 A 
ATOM     11  C   UNL     1      -8.841  -2.250 124.763  0.00  0.00    +0.000 A 
ATOM     12  C   UNL     1      -8.730  -0.951 125.260  0.00  0.00    +0.000 A 
BRANCH  11  13
ATOM     13  C   UNL     1      -9.192  -2.482 123.320  0.00  0.00    +0.000 C 
ATOM     14  F   UNL     1     -10.017  -3.553 123.160  0.00  0.00    +0.000 F 
ATOM     15  F   UNL     1      -9.833  -1.422 122.756  0.00  0.00    +0.000 F 
ATOM     16  F   UNL     1      -8.111  -2.726 122.526  0.00  0.00    +0.000 F 
ENDBRANCH  11  13
ENDBRANCH   4   7
BRANCH   1  17
ATOM     17  C   UNL     1      -7.674   3.867 127.919  0.00  0.00    +0.000 C 
BRANCH  17  18
ATOM     18  C   UNL     1      -7.869   4.430 129.345  0.00  0.00    +0.000 C 
BRANCH  18  27
ATOM     19  C   UNL     1     -11.054   6.913 128.873  0.00  0.00    +0.000 C 
ATOM     20  C   UNL     1     -12.286   7.721 128.416  0.00  0.00    +0.000 C 
ATOM     21  C   UNL     1     -12.757   8.481 129.662  0.00  0.00    +0.000 C 
ATOM     22  C   UNL     1     -12.413   7.551 130.839  0.00  0.00    +0.000 C 
ATOM     23  C   UNL     1     -12.001   6.325 130.042  0.00  0.00    +0.000 C 
ATOM     24  C   UNL     1     -11.174   5.209 130.503  0.00  0.00    +0.000 A 
ATOM     25  N   UNL     1     -11.349   3.928 130.195  0.00  0.00    +0.000 NA
ATOM     26  N   UNL     1     -10.150   3.441 129.737  0.00  0.00    +0.000 NA
ATOM     27  C   UNL     1      -9.244   4.412 129.843  0.00  0.00    +0.000 A 
ATOM     28  N   UNL     1      -9.857   5.520 130.340  0.00  0.00    +0.000 N 
ATOM     29  C   UNL     1      -9.775   6.893 129.823  0.00  0.00    +0.000 C 
ENDBRANCH  18  27
ENDBRANCH  17  18
ENDBRANCH   1  17
TORSDOF 5
ENDMDL
MODEL 3
REMARK VINA RESULT:      -8.8      1.685      2.177
REMARK  Name = Lorpiprazole
REMARK  5 active torsions:
REMARK  status: ('A' for Active; 'I' for Inactive)
REMARK    1  A    between atoms: C_11  and  C_12
REMARK    2  A    between atoms: C_12  and  C_13
REMARK    3  A    between atoms: C_13  and  N_14
REMARK    4  A    between atoms: N_17  and  C_20
REMARK    5  A    between atoms: C_24  and  C_26
REMARK                            x       y       z     vdW  Elec       q    Type
REMARK                         _______ _______ _______ _____ _____    ______ ____
ROOT
ATOM      1  N   UNL     1      -6.493   2.792 127.606  0.00  0.00    +0.000 NA
ATOM      2  C   UNL     1      -6.703   1.510 128.348  0.00  0.00    +0.000 C 
ATOM      3  C   UNL     1      -7.896   0.642 127.844  0.00  0.00    +0.000 C 
ATOM      4  N   UNL     1      -7.884   0.540 126.375  0.00  0.00    +0.000 N 
ATOM      5  C   UNL     1      -7.546   1.726 125.605  0.00  0.00    +0.000 C 
ATOM      6  C   UNL     1      -6.281   2.393 126.191  0.00  0.00    +0.000 C 
ENDROOT
BRANCH   4   7
ATOM      7  C   UNL     1      -7.913  -0.673 125.741  0.00  0.00    +0.000 A 
ATOM      8  C   UNL     1      -9.039  -1.489 125.831  0.00  0.00    +0.000 A 
ATOM      9  C   UNL     1      -9.060  -2.740 125.222  0.00  0.00    +0.000 A 
ATOM     10  C   UNL     1      -7.955  -3.176 124.492  0.00  0.00    +0.000 A 
ATOM     11  C   UNL     1      -6.820  -2.364 124.372  0.00  0.00    +0.000 A 
ATOM     12  C   UNL     1      -6.822  -1.110 124.986  0.00  0.00    +0.000 A 
BRANCH  11  13
ATOM     13  C   UNL     1      -5.595  -2.852 123.650  0.00  0.00    +0.000 C 
ATOM     14  F   UNL     1      -4.453  -2.315 124.160  0.00  0.00    +0.000 F 
ATOM     15  F   UNL     1      -5.444  -4.202 123.721  0.00  0.00    +0.000 F 
ATOM     16  F   UNL     1      -5.586  -2.547 122.321  0.00  0.00    +0.000 F 
ENDBRANCH  11  13
ENDBRANCH   4   7
BRANCH   1  17
ATOM     17  C   UNL     1      -7.671   3.708 127.716  0.00  0.00    +0.000 C 
BRANCH  17  18
ATOM     18  C   UNL     1      -7.794   4.343 129.119  0.00  0.00    +0.000 C 
BRANCH  18  27
ATOM     19  C   UNL     1     -11.054   6.773 129.034  0.00  0.00    +0.000 C 
ATOM     20  C   UNL     1     -12.334   7.574 128.720  0.00  0.00    +0.000 C 
ATOM     21  C   UNL     1     -12.716   8.260 130.036  0.00  0.00    +0.000 C 
ATOM     22  C   UNL     1     -12.259   7.283 131.133  0.00  0.00    +0.000 C 
ATOM     23  C   UNL     1     -11.891   6.106 130.244  0.00  0.00    +0.000 C 
ATOM     24  C   UNL     1     -11.007   4.989 130.580  0.00  0.00    +0.000 A 
ATOM     25  N   UNL     1     -11.183   3.720 130.222  0.00  0.00    +0.000 NA
ATOM     26  N   UNL     1     -10.017   3.284 129.645  0.00  0.00    +0.000 NA
ATOM     27  C   UNL     1      -9.123   4.269 129.726  0.00  0.00    +0.000 A 
ATOM     28  N   UNL     1      -9.714   5.337 130.326  0.00  0.00    +0.000 N 
ATOM     29  C   UNL     1      -9.701   6.735 129.875  0.00  0.00    +0.000 C 
ENDBRANCH  18  27
ENDBRANCH  17  18
ENDBRANCH   1  17
TORSDOF 5
ENDMDL
MODEL 4
REMARK VINA RESULT:      -8.4      6.265      9.652
REMARK  Name = Lorpiprazole
REMARK  5 active torsions:
REMARK  status: ('A' for Active; 'I' for Inactive)
REMARK    1  A    between atoms: C_11  and  C_12
REMARK    2  A    between atoms: C_12  and  C_13
REMARK    3  A    between atoms: C_13  and  N_14
REMARK    4  A    between atoms: N_17  and  C_20
REMARK    5  A    between atoms: C_24  and  C_26
REMARK                            x       y       z     vdW  Elec       q    Type
REMARK                         _______ _______ _______ _____ _____    ______ ____
ROOT
ATOM      1  N   UNL     1      -6.272   4.558 131.217  0.00  0.00    +0.000 NA
ATOM      2  C   UNL     1      -6.669   5.730 132.059  0.00  0.00    +0.000 C 
ATOM      3  C   UNL     1      -7.474   6.838 131.313  0.00  0.00    +0.000 C 
ATOM      4  N   UNL     1      -8.543   6.243 130.493  0.00  0.00    +0.000 N 
ATOM      5  C   UNL     1      -8.253   5.020 129.763  0.00  0.00    +0.000 C 
ATOM      6  C   UNL     1      -7.547   4.006 130.692  0.00  0.00    +0.000 C 
ENDROOT
BRANCH   4   7
ATOM      7  C   UNL     1      -9.845   6.647 130.612  0.00  0.00    +0.000 A 
ATOM      8  C   UNL     1     -10.594   6.292 131.732  0.00  0.00    +0.000 A 
ATOM      9  C   UNL     1     -11.930   6.666 131.841  0.00  0.00    +0.000 A 
ATOM     10  C   UNL     1     -12.524   7.426 130.834  0.00  0.00    +0.000 A 
ATOM     11  C   UNL     1     -11.784   7.811 129.708  0.00  0.00    +0.000 A 
ATOM     12  C   UNL     1     -10.444   7.429 129.621  0.00  0.00    +0.000 A 
BRANCH  11  13
ATOM     13  C   UNL     1     -12.431   8.566 128.581  0.00  0.00    +0.000 C 
ATOM     14  F   UNL     1     -13.545   7.936 128.116  0.00  0.00    +0.000 F 
ATOM     15  F   UNL     1     -12.828   9.816 128.943  0.00  0.00    +0.000 F 
ATOM     16  F   UNL     1     -11.621   8.732 127.497  0.00  0.00    +0.000 F 
ENDBRANCH  11  13
ENDBRANCH   4   7
BRANCH   1  17
ATOM     17  C   UNL     1      -5.373   4.952 130.089  0.00  0.00    +0.000 C 
BRANCH  17  18
ATOM     18  C   UNL     1      -4.106   4.071 130.008  0.00  0.00    +0.000 C 
BRANCH  18  27
ATOM     19  C   UNL     1      -2.682   7.169 132.225  0.00  0.00    +0.000 C 
ATOM     20  C   UNL     1      -2.423   8.340 133.195  0.00  0.00    +0.000 C 
ATOM     21  C   UNL     1      -0.921   8.627 133.091  0.00  0.00    +0.000 C 
ATOM     22  C   UNL     1      -0.280   7.257 132.808  0.00  0.00    +0.000 C 
ATOM     23  C   UNL     1      -1.510   6.389 133.016  0.00  0.00    +0.000 C 
ATOM     24  C   UNL     1      -1.726   5.030 132.515  0.00  0.00    +0.000 A 
ATOM     25  N   UNL     1      -2.342   4.047 133.166  0.00  0.00    +0.000 NA
ATOM     26  N   UNL     1      -3.302   3.532 132.332  0.00  0.00    +0.000 NA
ATOM     27  C   UNL     1      -3.208   4.158 131.159  0.00  0.00    +0.000 A 
ATOM     28  N   UNL     1      -2.215   5.084 131.244  0.00  0.00    +0.000 N 
ATOM     29  C   UNL     1      -2.273   6.495 130.840  0.00  0.00    +0.000 C 
ENDBRANCH  18  27
ENDBRANCH  17  18
ENDBRANCH   1  17
TORSDOF 5
ENDMDL
MODEL 5
REMARK VINA RESULT:      -8.4      4.271      9.337
REMARK  Name = Lorpiprazole
REMARK  5 active torsions:
REMARK  status: ('A' for Active; 'I' for Inactive)
REMARK    1  A    between atoms: C_11  and  C_12
REMARK    2  A    between atoms: C_12  and  C_13
REMARK    3  A    between atoms: C_13  and  N_14
REMARK    4  A    between atoms: N_17  and  C_20
REMARK    5  A    between atoms: C_24  and  C_26
REMARK                            x       y       z     vdW  Elec       q    Type
REMARK                         _______ _______ _______ _____ _____    ______ ____
ROOT
ATOM      1  N   UNL     1      -7.717   2.849 130.925  0.00  0.00    +0.000 NA
ATOM      2  C   UNL     1      -7.448   4.275 131.293  0.00  0.00    +0.000 C 
ATOM      3  C   UNL     1      -8.101   5.335 130.355  0.00  0.00    +0.000 C 
ATOM      4  N   UNL     1      -9.508   4.995 130.081  0.00  0.00    +0.000 N 
ATOM      5  C   UNL     1      -9.848   3.601 129.855  0.00  0.00    +0.000 C 
ATOM      6  C   UNL     1      -9.196   2.715 130.941  0.00  0.00    +0.000 C 
ENDROOT
BRANCH   4   7
ATOM      7  C   UNL     1     -10.517   5.894 130.299  0.00  0.00    +0.000 A 
ATOM      8  C   UNL     1     -11.121   5.986 131.551  0.00  0.00    +0.000 A 
ATOM      9  C   UNL     1     -12.174   6.870 131.769  0.00  0.00    +0.000 A 
ATOM     10  C   UNL     1     -12.616   7.693 130.734  0.00  0.00    +0.000 A 
ATOM     11  C   UNL     1     -12.009   7.631 129.472  0.00  0.00    +0.000 A 
ATOM     12  C   UNL     1     -10.952   6.742 129.277  0.00  0.00    +0.000 A 
BRANCH  11  13
ATOM     13  C   UNL     1     -12.524   8.459 128.328  0.00  0.00    +0.000 C 
ATOM     14  F   UNL     1     -11.529   8.821 127.471  0.00  0.00    +0.000 F 
ATOM     15  F   UNL     1     -13.450   7.804 127.577  0.00  0.00    +0.000 F 
ATOM     16  F   UNL     1     -13.117   9.623 128.718  0.00  0.00    +0.000 F 
ENDBRANCH  11  13
ENDBRANCH   4   7
BRANCH   1  17
ATOM     17  C   UNL     1      -7.180   2.506 129.572  0.00  0.00    +0.000 C 
BRANCH  17  18
ATOM     18  C   UNL     1      -7.519   1.058 129.152  0.00  0.00    +0.000 C 
BRANCH  18  27
ATOM     19  C   UNL     1      -8.495  -2.173 126.883  0.00  0.00    +0.000 C 
ATOM     20  C   UNL     1      -9.129  -3.394 126.185  0.00  0.00    +0.000 C 
ATOM     21  C   UNL     1      -8.202  -3.713 125.006  0.00  0.00    +0.000 C 
ATOM     22  C   UNL     1      -7.645  -2.347 124.567  0.00  0.00    +0.000 C 
ATOM     23  C   UNL     1      -8.521  -1.459 125.435  0.00  0.00    +0.000 C 
ATOM     24  C   UNL     1      -8.258  -0.074 125.829  0.00  0.00    +0.000 A 
ATOM     25  N   UNL     1      -9.165   0.892 125.935  0.00  0.00    +0.000 NA
ATOM     26  N   UNL     1      -9.018   1.469 127.171  0.00  0.00    +0.000 NA
ATOM     27  C   UNL     1      -7.976   0.896 127.771  0.00  0.00    +0.000 A 
ATOM     28  N   UNL     1      -7.472  -0.057 126.942  0.00  0.00    +0.000 N 
ATOM     29  C   UNL     1      -7.133  -1.446 127.279  0.00  0.00    +0.000 C 
ENDBRANCH  18  27
ENDBRANCH  17  18
ENDBRANCH   1  17
TORSDOF 5
ENDMDL
MODEL 6
REMARK VINA RESULT:      -8.4      5.531      9.144
REMARK  Name = Lorpiprazole
REMARK  5 active torsions:
REMARK  status: ('A' for Active; 'I' for Inactive)
REMARK    1  A    between atoms: C_11  and  C_12
REMARK    2  A    between atoms: C_12  and  C_13
REMARK    3  A    between atoms: C_13  and  N_14
REMARK    4  A    between atoms: N_17  and  C_20
REMARK    5  A    between atoms: C_24  and  C_26
REMARK                            x       y       z     vdW  Elec       q    Type
REMARK                         _______ _______ _______ _____ _____    ______ ____
ROOT
ATOM      1  N   UNL     1      -6.901   3.974 131.988  0.00  0.00    +0.000 NA
ATOM      2  C   UNL     1      -8.194   3.871 132.735  0.00  0.00    +0.000 C 
ATOM      3  C   UNL     1      -8.913   5.229 133.003  0.00  0.00    +0.000 C 
ATOM      4  N   UNL     1      -8.938   6.055 131.784  0.00  0.00    +0.000 N 
ATOM      5  C   UNL     1      -7.752   6.080 130.944  0.00  0.00    +0.000 C 
ATOM      6  C   UNL     1      -7.244   4.640 130.706  0.00  0.00    +0.000 C 
ENDROOT
BRANCH   4   7
ATOM      7  C   UNL     1     -10.107   6.570 131.292  0.00  0.00    +0.000 A 
ATOM      8  C   UNL     1     -11.275   6.516 132.049  0.00  0.00    +0.000 A 
ATOM      9  C   UNL     1     -12.476   7.001 131.539  0.00  0.00    +0.000 A 
ATOM     10  C   UNL     1     -12.510   7.572 130.267  0.00  0.00    +0.000 A 
ATOM     11  C   UNL     1     -11.343   7.654 129.495  0.00  0.00    +0.000 A 
ATOM     12  C   UNL     1     -10.149   7.166 130.028  0.00  0.00    +0.000 A 
BRANCH  11  13
ATOM     13  C   UNL     1     -11.381   8.198 128.095  0.00  0.00    +0.000 C 
ATOM     14  F   UNL     1     -12.473   8.983 127.880  0.00  0.00    +0.000 F 
ATOM     15  F   UNL     1     -10.298   8.968 127.799  0.00  0.00    +0.000 F 
ATOM     16  F   UNL     1     -11.425   7.233 127.133  0.00  0.00    +0.000 F 
ENDBRANCH  11  13
ENDBRANCH   4   7
BRANCH   1  17
ATOM     17  C   UNL     1      -5.882   4.776 132.733  0.00  0.00    +0.000 C 
BRANCH  17  18
ATOM     18  C   UNL     1      -4.444   4.255 132.511  0.00  0.00    +0.000 C 
BRANCH  18  27
ATOM     19  C   UNL     1      -4.492   4.174 128.446  0.00  0.00    +0.000 C 
ATOM     20  C   UNL     1      -4.764   4.319 126.934  0.00  0.00    +0.000 C 
ATOM     21  C   UNL     1      -3.527   3.735 126.243  0.00  0.00    +0.000 C 
ATOM     22  C   UNL     1      -2.361   4.050 127.197  0.00  0.00    +0.000 C 
ATOM     23  C   UNL     1      -3.105   4.953 128.167  0.00  0.00    +0.000 C 
ATOM     24  C   UNL     1      -2.717   5.283 129.539  0.00  0.00    +0.000 A 
ATOM     25  N   UNL     1      -2.860   6.467 130.127  0.00  0.00    +0.000 NA
ATOM     26  N   UNL     1      -3.503   6.265 131.322  0.00  0.00    +0.000 NA
ATOM     27  C   UNL     1      -3.677   4.953 131.480  0.00  0.00    +0.000 A 
ATOM     28  N   UNL     1      -3.174   4.318 130.387  0.00  0.00    +0.000 N 
ATOM     29  C   UNL     1      -3.825   3.277 129.581  0.00  0.00    +0.000 C 
ENDBRANCH  18  27
ENDBRANCH  17  18
ENDBRANCH   1  17
TORSDOF 5
ENDMDL
MODEL 7
REMARK VINA RESULT:      -8.4      3.599      4.378
REMARK  Name = Lorpiprazole
REMARK  5 active torsions:
REMARK  status: ('A' for Active; 'I' for Inactive)
REMARK    1  A    between atoms: C_11  and  C_12
REMARK    2  A    between atoms: C_12  and  C_13
REMARK    3  A    between atoms: C_13  and  N_14
REMARK    4  A    between atoms: N_17  and  C_20
REMARK    5  A    between atoms: C_24  and  C_26
REMARK                            x       y       z     vdW  Elec       q    Type
REMARK                         _______ _______ _______ _____ _____    ______ ____
ROOT
ATOM      1  N   UNL     1      -6.378   2.803 129.842  0.00  0.00    +0.000 NA
ATOM      2  C   UNL     1      -5.413   1.819 130.426  0.00  0.00    +0.000 C 
ATOM      3  C   UNL     1      -6.066   0.596 131.139  0.00  0.00    +0.000 C 
ATOM      4  N   UNL     1      -7.146   0.027 130.316  0.00  0.00    +0.000 N 
ATOM      5  C   UNL     1      -8.029   0.940 129.610  0.00  0.00    +0.000 C 
ATOM      6  C   UNL     1      -7.198   2.021 128.882  0.00  0.00    +0.000 C 
ENDROOT
BRANCH   4   7
ATOM      7  C   UNL     1      -7.171  -1.302 129.987  0.00  0.00    +0.000 A 
ATOM      8  C   UNL     1      -8.000  -1.760 128.965  0.00  0.00    +0.000 A 
ATOM      9  C   UNL     1      -8.060  -3.115 128.652  0.00  0.00    +0.000 A 
ATOM     10  C   UNL     1      -7.266  -4.025 129.348  0.00  0.00    +0.000 A 
ATOM     11  C   UNL     1      -6.411  -3.584 130.368  0.00  0.00    +0.000 A 
ATOM     12  C   UNL     1      -6.362  -2.220 130.662  0.00  0.00    +0.000 A 
BRANCH  11  13
ATOM     13  C   UNL     1      -5.605  -4.562 131.176  0.00  0.00    +0.000 C 
ATOM     14  F   UNL     1      -6.024  -4.624 132.470  0.00  0.00    +0.000 F 
ATOM     15  F   UNL     1      -5.679  -5.832 130.693  0.00  0.00    +0.000 F 
ATOM     16  F   UNL     1      -4.276  -4.262 131.231  0.00  0.00    +0.000 F 
ENDBRANCH  11  13
ENDBRANCH   4   7
BRANCH   1  17
ATOM     17  C   UNL     1      -7.251   3.424 130.886  0.00  0.00    +0.000 C 
BRANCH  17  18
ATOM     18  C   UNL     1      -7.864   4.764 130.421  0.00  0.00    +0.000 C 
BRANCH  18  27
ATOM     19  C   UNL     1     -10.553   7.326 128.766  0.00  0.00    +0.000 C 
ATOM     20  C   UNL     1     -11.499   8.156 127.874  0.00  0.00    +0.000 C 
ATOM     21  C   UNL     1     -12.360   8.972 128.845  0.00  0.00    +0.000 C 
ATOM     22  C   UNL     1     -12.507   8.075 130.086  0.00  0.00    +0.000 C 
ATOM     23  C   UNL     1     -11.884   6.809 129.520  0.00  0.00    +0.000 C 
ATOM     24  C   UNL     1     -11.328   5.685 130.276  0.00  0.00    +0.000 A 
ATOM     25  N   UNL     1     -11.432   4.400 129.952  0.00  0.00    +0.000 NA
ATOM     26  N   UNL     1     -10.171   3.860 129.974  0.00  0.00    +0.000 NA
ATOM     27  C   UNL     1      -9.326   4.806 130.384  0.00  0.00    +0.000 A 
ATOM     28  N   UNL     1     -10.031   5.949 130.598  0.00  0.00    +0.000 N 
ATOM     29  C   UNL     1      -9.710   7.300 130.118  0.00  0.00    +0.000 C 
ENDBRANCH  18  27
ENDBRANCH  17  18
ENDBRANCH   1  17
TORSDOF 5
ENDMDL
MODEL 8
REMARK VINA RESULT:      -8.3      7.331      9.232
REMARK  Name = Lorpiprazole
REMARK  5 active torsions:
REMARK  status: ('A' for Active; 'I' for Inactive)
REMARK    1  A    between atoms: C_11  and  C_12
REMARK    2  A    between atoms: C_12  and  C_13
REMARK    3  A    between atoms: C_13  and  N_14
REMARK    4  A    between atoms: N_17  and  C_20
REMARK    5  A    between atoms: C_24  and  C_26
REMARK                            x       y       z     vdW  Elec       q    Type
REMARK                         _______ _______ _______ _____ _____    ______ ____
ROOT
ATOM      1  N   UNL     1      -6.962   4.676 131.284  0.00  0.00    +0.000 NA
ATOM      2  C   UNL     1      -5.688   3.892 131.214  0.00  0.00    +0.000 C 
ATOM      3  C   UNL     1      -4.494   4.630 130.534  0.00  0.00    +0.000 C 
ATOM      4  N   UNL     1      -4.376   6.008 131.040  0.00  0.00    +0.000 N 
ATOM      5  C   UNL     1      -5.594   6.768 131.261  0.00  0.00    +0.000 C 
ATOM      6  C   UNL     1      -6.619   5.909 132.036  0.00  0.00    +0.000 C 
ENDROOT
BRANCH   4   7
ATOM      7  C   UNL     1      -3.199   6.483 131.553  0.00  0.00    +0.000 A 
ATOM      8  C   UNL     1      -2.083   5.654 131.643  0.00  0.00    +0.000 A 
ATOM      9  C   UNL     1      -0.895   6.118 132.200  0.00  0.00    +0.000 A 
ATOM     10  C   UNL     1      -0.807   7.435 132.650  0.00  0.00    +0.000 A 
ATOM     11  C   UNL     1      -1.911   8.293 132.551  0.00  0.00    +0.000 A 
ATOM     12  C   UNL     1      -3.091   7.808 131.985  0.00  0.00    +0.000 A 
BRANCH  11  13
ATOM     13  C   UNL     1      -1.853   9.691 133.099  0.00  0.00    +0.000 C 
ATOM     14  F   UNL     1      -0.580  10.071 133.399  0.00  0.00    +0.000 F 
ATOM     15  F   UNL     1      -2.329  10.620 132.227  0.00  0.00    +0.000 F 
ATOM     16  F   UNL     1      -2.568   9.859 134.248  0.00  0.00    +0.000 F 
ENDBRANCH  11  13
ENDBRANCH   4   7
BRANCH   1  17
ATOM     17  C   UNL     1      -7.485   5.024 129.926  0.00  0.00    +0.000 C 
BRANCH  17  18
ATOM     18  C   UNL     1      -8.983   4.680 129.765  0.00  0.00    +0.000 C 
BRANCH  18  27
ATOM     19  C   UNL     1     -12.319   6.688 128.594  0.00  0.00    +0.000 C 
ATOM     20  C   UNL     1     -13.722   7.173 128.175  0.00  0.00    +0.000 C 
ATOM     21  C   UNL     1     -13.625   8.702 128.130  0.00  0.00    +0.000 C 
ATOM     22  C   UNL     1     -12.608   9.061 129.227  0.00  0.00    +0.000 C 
ATOM     23  C   UNL     1     -12.463   7.686 129.856  0.00  0.00    +0.000 C 
ATOM     24  C   UNL     1     -11.356   7.207 130.686  0.00  0.00    +0.000 A 
ATOM     25  N   UNL     1     -11.464   6.412 131.747  0.00  0.00    +0.000 NA
ATOM     26  N   UNL     1     -10.591   5.367 131.576  0.00  0.00    +0.000 NA
ATOM     27  C   UNL     1      -9.910   5.580 130.450  0.00  0.00    +0.000 A 
ATOM     28  N   UNL     1     -10.358   6.735 129.888  0.00  0.00    +0.000 N 
ATOM     29  C   UNL     1     -10.752   6.954 128.490  0.00  0.00    +0.000 C 
ENDBRANCH  18  27
ENDBRANCH  17  18
ENDBRANCH   1  17
TORSDOF 5
ENDMDL
MODEL 9
REMARK VINA RESULT:      -8.2      2.989      3.718
REMARK  Name = Lorpiprazole
REMARK  5 active torsions:
REMARK  status: ('A' for Active; 'I' for Inactive)
REMARK    1  A    between atoms: C_11  and  C_12
REMARK    2  A    between atoms: C_12  and  C_13
REMARK    3  A    between atoms: C_13  and  N_14
REMARK    4  A    between atoms: N_17  and  C_20
REMARK    5  A    between atoms: C_24  and  C_26
REMARK                            x       y       z     vdW  Elec       q    Type
REMARK                         _______ _______ _______ _____ _____    ______ ____
ROOT
ATOM      1  N   UNL     1      -7.565   3.114 130.794  0.00  0.00    +0.000 NA
ATOM      2  C   UNL     1      -7.512   2.137 131.927  0.00  0.00    +0.000 C 
ATOM      3  C   UNL     1      -8.375   0.853 131.735  0.00  0.00    +0.000 C 
ATOM      4  N   UNL     1      -8.179   0.289 130.388  0.00  0.00    +0.000 N 
ATOM      5  C   UNL     1      -8.081   1.205 129.265  0.00  0.00    +0.000 C 
ATOM      6  C   UNL     1      -7.105   2.355 129.604  0.00  0.00    +0.000 C 
ENDROOT
BRANCH   4   7
ATOM      7  C   UNL     1      -7.821  -1.020 130.206  0.00  0.00    +0.000 A 
ATOM      8  C   UNL     1      -6.741  -1.559 130.902  0.00  0.00    +0.000 A 
ATOM      9  C   UNL     1      -6.348  -2.878 130.692  0.00  0.00    +0.000 A 
ATOM     10  C   UNL     1      -7.055  -3.679 129.796  0.00  0.00    +0.000 A 
ATOM     11  C   UNL     1      -8.156  -3.163 129.100  0.00  0.00    +0.000 A 
ATOM     12  C   UNL     1      -8.537  -1.840 129.329  0.00  0.00    +0.000 A 
BRANCH  11  13
ATOM     13  C   UNL     1      -8.881  -3.993 128.078  0.00  0.00    +0.000 C 
ATOM     14  F   UNL     1     -10.101  -4.402 128.523  0.00  0.00    +0.000 F 
ATOM     15  F   UNL     1      -9.107  -3.321 126.917  0.00  0.00    +0.000 F 
ATOM     16  F   UNL     1      -8.216  -5.130 127.725  0.00  0.00    +0.000 F 
ENDBRANCH  11  13
ENDBRANCH   4   7
BRANCH   1  17
ATOM     17  C   UNL     1      -8.945   3.644 130.571  0.00  0.00    +0.000 C 
BRANCH  17  18
ATOM     18  C   UNL     1      -8.953   5.157 130.256  0.00  0.00    +0.000 C 
BRANCH  18  27
ATOM     19  C   UNL     1     -12.245   6.845 128.569  0.00  0.00    +0.000 C 
ATOM     20  C   UNL     1     -13.599   7.194 127.917  0.00  0.00    +0.000 C 
ATOM     21  C   UNL     1     -13.682   8.725 127.951  0.00  0.00    +0.000 C 
ATOM     22  C   UNL     1     -12.929   9.128 129.230  0.00  0.00    +0.000 C 
ATOM     23  C   UNL     1     -12.733   7.741 129.820  0.00  0.00    +0.000 C 
ATOM     24  C   UNL     1     -11.743   7.340 130.822  0.00  0.00    +0.000 A 
ATOM     25  N   UNL     1     -11.941   6.475 131.811  0.00  0.00    +0.000 NA
ATOM     26  N   UNL     1     -10.931   5.547 131.764  0.00  0.00    +0.000 NA
ATOM     27  C   UNL     1     -10.091   5.904 130.793  0.00  0.00    +0.000 A 
ATOM     28  N   UNL     1     -10.568   7.033 130.205  0.00  0.00    +0.000 N 
ATOM     29  C   UNL     1     -10.729   7.292 128.767  0.00  0.00    +0.000 C 
ENDBRANCH  18  27
ENDBRANCH  17  18
ENDBRANCH   1  17
TORSDOF 5
ENDMDL
