MODEL 1
REMARK VINA RESULT:      -8.4      0.000      0.000
REMARK  Name = Losartan
REMARK  10 active torsions:
REMARK  status: ('A' for Active; 'I' for Inactive)
REMARK    1  A    between atoms: C_1  and  C_2
REMARK    2  A    between atoms: C_2  and  C_3
REMARK    3  A    between atoms: C_3  and  C_4
REMARK    4  A    between atoms: C_4  and  C_5
REMARK    5  A    between atoms: C_9  and  C_10
REMARK    6  A    between atoms: C_10  and  O_11
REMARK    7  A    between atoms: N_12  and  C_13
REMARK    8  A    between atoms: C_13  and  C_14
REMARK    9  A    between atoms: C_17  and  C_20
REMARK   10  A    between atoms: C_25  and  C_26
REMARK                            x       y       z     vdW  Elec       q    Type
REMARK                         _______ _______ _______ _____ _____    ______ ____
ROOT
ATOM      1  C   UNL     1      -8.104  -2.436 126.871  0.00  0.00    +0.000 A 
ATOM      2  C   UNL     1      -6.814  -1.987 127.173  0.00  0.00    +0.000 A 
ATOM      3  C   UNL     1      -6.182  -2.410 128.386  0.00  0.00    +0.000 A 
ATOM      4  C   UNL     1      -6.843  -3.183 129.320  0.00  0.00    +0.000 A 
ATOM      5  C   UNL     1      -8.022  -3.686 128.870  0.00  0.00    +0.000 A 
ATOM      6  C   UNL     1      -8.603  -3.398 127.656  0.00  0.00    +0.000 A 
ENDROOT
BRANCH   4   7
ATOM      7  C   UNL     1      -6.453  -3.533 130.712  0.00  0.00    +0.000 A 
ATOM      8  C   UNL     1      -5.576  -4.625 130.829  0.00  0.00    +0.000 A 
ATOM      9  C   UNL     1      -5.404  -5.262 132.050  0.00  0.00    +0.000 A 
ATOM     10  C   UNL     1      -5.920  -4.694 133.207  0.00  0.00    +0.000 A 
ATOM     11  C   UNL     1      -6.567  -3.459 133.156  0.00  0.00    +0.000 A 
ATOM     12  C   UNL     1      -6.850  -2.854 131.922  0.00  0.00    +0.000 A 
BRANCH  12  13
ATOM     13  C   UNL     1      -7.539  -1.547 132.000  0.00  0.00    +0.000 A 
ATOM     14  N   UNL     1      -8.218  -0.958 131.002  0.00  0.00    +0.000 NA
ATOM     15  N   UNL     1      -8.364   0.283 131.493  0.00  0.00    +0.000 N 
ATOM     16  N   UNL     1      -7.961   0.464 132.756  0.00  0.00    +0.000 NA
ATOM     17  N   UNL     1      -7.443  -0.710 133.107  0.00  0.00    +0.000 NA
ATOM     18  H   UNL     1      -8.690   1.055 130.917  0.00  0.00    +0.000 HD
ENDBRANCH  12  13
ENDBRANCH   4   7
BRANCH   1  19
ATOM     19  C   UNL     1      -8.956  -2.217 125.676  0.00  0.00    +0.000 C 
BRANCH  19  25
ATOM     20  C   UNL     1      -7.774  -1.223 123.540  0.00  0.00    +0.000 A 
ATOM     21  N   UNL     1      -7.947  -0.090 122.864  0.00  0.00    +0.000 NA
ATOM     22  C   UNL     1      -8.727   0.733 123.643  0.00  0.00    +0.000 A 
ATOM     23 CL   UNL     1      -9.150   2.333 123.221  0.00  0.00    +0.000 Cl
ATOM     24  C   UNL     1      -9.069   0.106 124.822  0.00  0.00    +0.000 A 
ATOM     25  N   UNL     1      -8.612  -1.207 124.660  0.00  0.00    +0.000 N 
BRANCH  20  26
ATOM     26  C   UNL     1      -6.865  -2.368 123.070  0.00  0.00    +0.000 C 
BRANCH  26  27
ATOM     27  C   UNL     1      -5.440  -2.434 123.709  0.00  0.00    +0.000 C 
BRANCH  27  29
ATOM     28  C   UNL     1      -4.232  -4.622 123.477  0.00  0.00    +0.000 C 
ATOM     29  C   UNL     1      -5.106  -3.765 124.413  0.00  0.00    +0.000 C 
ENDBRANCH  27  29
ENDBRANCH  26  27
ENDBRANCH  20  26
BRANCH  24  30
ATOM     30  C   UNL     1      -9.772   0.702 126.001  0.00  0.00    +0.000 C 
BRANCH  30  31
ATOM     31  O   UNL     1      -8.943   1.606 126.712  0.00  0.00    +0.000 OA
ATOM     32  H   UNL     1      -8.027   1.397 126.466  0.00  0.00    +0.000 HD
ENDBRANCH  30  31
ENDBRANCH  24  30
ENDBRANCH  19  25
ENDBRANCH   1  19
TORSDOF 9
ENDMDL
MODEL 2
REMARK VINA RESULT:      -8.2      2.302      2.702
REMARK  Name = Losartan
REMARK  10 active torsions:
REMARK  status: ('A' for Active; 'I' for Inactive)
REMARK    1  A    between atoms: C_1  and  C_2
REMARK    2  A    between atoms: C_2  and  C_3
REMARK    3  A    between atoms: C_3  and  C_4
REMARK    4  A    between atoms: C_4  and  C_5
REMARK    5  A    between atoms: C_9  and  C_10
REMARK    6  A    between atoms: C_10  and  O_11
REMARK    7  A    between atoms: N_12  and  C_13
REMARK    8  A    between atoms: C_13  and  C_14
REMARK    9  A    between atoms: C_17  and  C_20
REMARK   10  A    between atoms: C_25  and  C_26
REMARK                            x       y       z     vdW  Elec       q    Type
REMARK                         _______ _______ _______ _____ _____    ______ ____
ROOT
ATOM      1  C   UNL     1      -8.247  -2.289 127.159  0.00  0.00    +0.000 A 
ATOM      2  C   UNL     1      -7.081  -1.585 127.475  0.00  0.00    +0.000 A 
ATOM      3  C   UNL     1      -6.410  -1.846 128.713  0.00  0.00    +0.000 A 
ATOM      4  C   UNL     1      -6.926  -2.715 129.653  0.00  0.00    +0.000 A 
ATOM      5  C   UNL     1      -7.970  -3.453 129.191  0.00  0.00    +0.000 A 
ATOM      6  C   UNL     1      -8.564  -3.314 127.958  0.00  0.00    +0.000 A 
ENDROOT
BRANCH   4   7
ATOM      7  C   UNL     1      -6.511  -2.949 131.061  0.00  0.00    +0.000 A 
ATOM      8  C   UNL     1      -7.562  -3.205 131.958  0.00  0.00    +0.000 A 
ATOM      9  C   UNL     1      -7.360  -3.105 133.327  0.00  0.00    +0.000 A 
ATOM     10  C   UNL     1      -6.073  -2.969 133.830  0.00  0.00    +0.000 A 
ATOM     11  C   UNL     1      -4.977  -2.986 132.968  0.00  0.00    +0.000 A 
ATOM     12  C   UNL     1      -5.163  -2.973 131.577  0.00  0.00    +0.000 A 
BRANCH  12  13
ATOM     13  C   UNL     1      -3.923  -2.992 130.770  0.00  0.00    +0.000 A 
ATOM     14  N   UNL     1      -3.017  -2.003 130.703  0.00  0.00    +0.000 NA
ATOM     15  N   UNL     1      -2.292  -2.396 129.643  0.00  0.00    +0.000 N 
ATOM     16  N   UNL     1      -2.587  -3.603 129.148  0.00  0.00    +0.000 NA
ATOM     17  N   UNL     1      -3.624  -4.012 129.874  0.00  0.00    +0.000 NA
ATOM     18  H   UNL     1      -1.614  -1.783 129.198  0.00  0.00    +0.000 HD
ENDBRANCH  12  13
ENDBRANCH   4   7
BRANCH   1  19
ATOM     19  C   UNL     1      -9.094  -2.271 125.940  0.00  0.00    +0.000 C 
BRANCH  19  25
ATOM     20  C   UNL     1      -7.977  -1.599 123.649  0.00  0.00    +0.000 A 
ATOM     21  N   UNL     1      -8.150  -0.560 122.837  0.00  0.00    +0.000 NA
ATOM     22  C   UNL     1      -8.877   0.381 123.530  0.00  0.00    +0.000 A 
ATOM     23 CL   UNL     1      -9.277   1.924 122.918  0.00  0.00    +0.000 Cl
ATOM     24  C   UNL     1      -9.185  -0.077 124.793  0.00  0.00    +0.000 A 
ATOM     25  N   UNL     1      -8.768  -1.413 124.788  0.00  0.00    +0.000 N 
BRANCH  20  26
ATOM     26  C   UNL     1      -7.116  -2.823 123.300  0.00  0.00    +0.000 C 
BRANCH  26  27
ATOM     27  C   UNL     1      -5.891  -3.101 124.230  0.00  0.00    +0.000 C 
BRANCH  27  29
ATOM     28  C   UNL     1      -4.216  -4.822 123.500  0.00  0.00    +0.000 C 
ATOM     29  C   UNL     1      -4.554  -3.318 123.492  0.00  0.00    +0.000 C 
ENDBRANCH  27  29
ENDBRANCH  26  27
ENDBRANCH  20  26
BRANCH  24  30
ATOM     30  C   UNL     1      -9.825   0.689 125.909  0.00  0.00    +0.000 C 
BRANCH  30  31
ATOM     31  O   UNL     1      -8.952   1.666 126.451  0.00  0.00    +0.000 OA
ATOM     32  H   UNL     1      -8.097   1.555 126.004  0.00  0.00    +0.000 HD
ENDBRANCH  30  31
ENDBRANCH  24  30
ENDBRANCH  19  25
ENDBRANCH   1  19
TORSDOF 9
ENDMDL
MODEL 3
REMARK VINA RESULT:      -8.0      1.826      3.170
REMARK  Name = Losartan
REMARK  10 active torsions:
REMARK  status: ('A' for Active; 'I' for Inactive)
REMARK    1  A    between atoms: C_1  and  C_2
REMARK    2  A    between atoms: C_2  and  C_3
REMARK    3  A    between atoms: C_3  and  C_4
REMARK    4  A    between atoms: C_4  and  C_5
REMARK    5  A    between atoms: C_9  and  C_10
REMARK    6  A    between atoms: C_10  and  O_11
REMARK    7  A    between atoms: N_12  and  C_13
REMARK    8  A    between atoms: C_13  and  C_14
REMARK    9  A    between atoms: C_17  and  C_20
REMARK   10  A    between atoms: C_25  and  C_26
REMARK                            x       y       z     vdW  Elec       q    Type
REMARK                         _______ _______ _______ _____ _____    ______ ____
ROOT
ATOM      1  C   UNL     1      -6.906  -2.468 126.844  0.00  0.00    +0.000 A 
ATOM      2  C   UNL     1      -7.989  -2.923 127.602  0.00  0.00    +0.000 A 
ATOM      3  C   UNL     1      -7.808  -3.212 128.993  0.00  0.00    +0.000 A 
ATOM      4  C   UNL     1      -6.569  -3.139 129.598  0.00  0.00    +0.000 A 
ATOM      5  C   UNL     1      -5.623  -2.549 128.821  0.00  0.00    +0.000 A 
ATOM      6  C   UNL     1      -5.795  -2.145 127.517  0.00  0.00    +0.000 A 
ENDROOT
BRANCH   4   7
ATOM      7  C   UNL     1      -6.139  -3.603 130.942  0.00  0.00    +0.000 A 
ATOM      8  C   UNL     1      -5.496  -4.853 130.965  0.00  0.00    +0.000 A 
ATOM      9  C   UNL     1      -5.352  -5.549 132.157  0.00  0.00    +0.000 A 
ATOM     10  C   UNL     1      -5.637  -4.924 133.364  0.00  0.00    +0.000 A 
ATOM     11  C   UNL     1      -6.020  -3.584 133.388  0.00  0.00    +0.000 A 
ATOM     12  C   UNL     1      -6.281  -2.895 132.193  0.00  0.00    +0.000 A 
BRANCH  12  13
ATOM     13  C   UNL     1      -6.679  -1.479 132.350  0.00  0.00    +0.000 A 
ATOM     14  N   UNL     1      -5.856  -0.464 132.665  0.00  0.00    +0.000 NA
ATOM     15  N   UNL     1      -6.744   0.496 132.968  0.00  0.00    +0.000 N 
ATOM     16  N   UNL     1      -8.028   0.202 132.732  0.00  0.00    +0.000 NA
ATOM     17  N   UNL     1      -8.004  -1.061 132.314  0.00  0.00    +0.000 NA
ATOM     18  H   UNL     1      -6.465   1.363 133.421  0.00  0.00    +0.000 HD
ENDBRANCH  12  13
ENDBRANCH   4   7
BRANCH   1  19
ATOM     19  C   UNL     1      -6.823  -2.036 125.426  0.00  0.00    +0.000 C 
BRANCH  19  25
ATOM     20  C   UNL     1      -8.001   0.317 125.269  0.00  0.00    +0.000 A 
ATOM     21  N   UNL     1      -8.769   0.876 124.338  0.00  0.00    +0.000 NA
ATOM     22  C   UNL     1      -9.149  -0.123 123.471  0.00  0.00    +0.000 A 
ATOM     23 CL   UNL     1     -10.210   0.105 122.153  0.00  0.00    +0.000 Cl
ATOM     24  C   UNL     1      -8.598  -1.329 123.848  0.00  0.00    +0.000 A 
ATOM     25  N   UNL     1      -7.718  -0.998 124.885  0.00  0.00    +0.000 N 
BRANCH  20  26
ATOM     26  C   UNL     1      -7.460   1.068 126.495  0.00  0.00    +0.000 C 
BRANCH  26  27
ATOM     27  C   UNL     1      -8.424   1.189 127.720  0.00  0.00    +0.000 C 
BRANCH  27  29
ATOM     28  C   UNL     1      -6.509   1.061 129.337  0.00  0.00    +0.000 C 
ATOM     29  C   UNL     1      -7.916   0.520 129.013  0.00  0.00    +0.000 C 
ENDBRANCH  27  29
ENDBRANCH  26  27
ENDBRANCH  20  26
BRANCH  24  30
ATOM     30  C   UNL     1      -8.881  -2.680 123.270  0.00  0.00    +0.000 C 
BRANCH  30  31
ATOM     31  O   UNL     1     -10.104  -3.216 123.748  0.00  0.00    +0.000 OA
ATOM     32  H   UNL     1     -10.358  -3.924 123.133  0.00  0.00    +0.000 HD
ENDBRANCH  30  31
ENDBRANCH  24  30
ENDBRANCH  19  25
ENDBRANCH   1  19
TORSDOF 9
ENDMDL
MODEL 4
REMARK VINA RESULT:      -8.0      4.780      6.379
REMARK  Name = Losartan
REMARK  10 active torsions:
REMARK  status: ('A' for Active; 'I' for Inactive)
REMARK    1  A    between atoms: C_1  and  C_2
REMARK    2  A    between atoms: C_2  and  C_3
REMARK    3  A    between atoms: C_3  and  C_4
REMARK    4  A    between atoms: C_4  and  C_5
REMARK    5  A    between atoms: C_9  and  C_10
REMARK    6  A    between atoms: C_10  and  O_11
REMARK    7  A    between atoms: N_12  and  C_13
REMARK    8  A    between atoms: C_13  and  C_14
REMARK    9  A    between atoms: C_17  and  C_20
REMARK   10  A    between atoms: C_25  and  C_26
REMARK                            x       y       z     vdW  Elec       q    Type
REMARK                         _______ _______ _______ _____ _____    ______ ____
ROOT
ATOM      1  C   UNL     1      -7.142   2.051 127.066  0.00  0.00    +0.000 A 
ATOM      2  C   UNL     1      -8.176   1.603 127.895  0.00  0.00    +0.000 A 
ATOM      3  C   UNL     1      -8.683   2.461 128.922  0.00  0.00    +0.000 A 
ATOM      4  C   UNL     1      -8.123   3.696 129.183  0.00  0.00    +0.000 A 
ATOM      5  C   UNL     1      -7.234   4.097 128.236  0.00  0.00    +0.000 A 
ATOM      6  C   UNL     1      -6.814   3.345 127.163  0.00  0.00    +0.000 A 
ENDROOT
BRANCH   4   7
ATOM      7  C   UNL     1      -8.350   4.621 130.323  0.00  0.00    +0.000 A 
ATOM      8  C   UNL     1      -7.399   4.542 131.355  0.00  0.00    +0.000 A 
ATOM      9  C   UNL     1      -7.667   5.086 132.603  0.00  0.00    +0.000 A 
ATOM     10  C   UNL     1      -8.776   5.903 132.780  0.00  0.00    +0.000 A 
ATOM     11  C   UNL     1      -9.594   6.222 131.696  0.00  0.00    +0.000 A 
ATOM     12  C   UNL     1      -9.407   5.595 130.454  0.00  0.00    +0.000 A 
BRANCH  12  13
ATOM     13  C   UNL     1     -10.338   6.018 129.385  0.00  0.00    +0.000 A 
ATOM     14  N   UNL     1     -10.018   6.779 128.324  0.00  0.00    +0.000 NA
ATOM     15  N   UNL     1     -11.240   7.099 127.866  0.00  0.00    +0.000 N 
ATOM     16  N   UNL     1     -12.268   6.489 128.466  0.00  0.00    +0.000 NA
ATOM     17  N   UNL     1     -11.705   5.773 129.436  0.00  0.00    +0.000 NA
ATOM     18  H   UNL     1     -11.378   7.818 127.159  0.00  0.00    +0.000 HD
ENDBRANCH  12  13
ENDBRANCH   4   7
BRANCH   1  19
ATOM     19  C   UNL     1      -6.483   1.412 125.900  0.00  0.00    +0.000 C 
BRANCH  19  25
ATOM     20  C   UNL     1      -7.155  -0.797 124.629  0.00  0.00    +0.000 A 
ATOM     21  N   UNL     1      -8.178  -1.101 123.835  0.00  0.00    +0.000 NA
ATOM     22  C   UNL     1      -8.790   0.083 123.492  0.00  0.00    +0.000 A 
ATOM     23 CL   UNL     1     -10.112   0.201 122.416  0.00  0.00    +0.000 Cl
ATOM     24  C   UNL     1      -8.157   1.150 124.092  0.00  0.00    +0.000 A 
ATOM     25  N   UNL     1      -7.234   0.559 124.963  0.00  0.00    +0.000 N 
BRANCH  20  26
ATOM     26  C   UNL     1      -6.138  -1.827 125.145  0.00  0.00    +0.000 C 
BRANCH  26  27
ATOM     27  C   UNL     1      -6.032  -3.164 124.342  0.00  0.00    +0.000 C 
BRANCH  27  29
ATOM     28  C   UNL     1      -4.185  -4.671 123.555  0.00  0.00    +0.000 C 
ATOM     29  C   UNL     1      -4.805  -3.267 123.413  0.00  0.00    +0.000 C 
ENDBRANCH  27  29
ENDBRANCH  26  27
ENDBRANCH  20  26
BRANCH  24  30
ATOM     30  C   UNL     1      -8.409   2.607 123.860  0.00  0.00    +0.000 C 
BRANCH  30  31
ATOM     31  O   UNL     1      -9.424   3.112 124.712  0.00  0.00    +0.000 OA
ATOM     32  H   UNL     1      -9.619   4.014 124.410  0.00  0.00    +0.000 HD
ENDBRANCH  30  31
ENDBRANCH  24  30
ENDBRANCH  19  25
ENDBRANCH   1  19
TORSDOF 9
ENDMDL
MODEL 5
REMARK VINA RESULT:      -8.0      3.168      7.581
REMARK  Name = Losartan
REMARK  10 active torsions:
REMARK  status: ('A' for Active; 'I' for Inactive)
REMARK    1  A    between atoms: C_1  and  C_2
REMARK    2  A    between atoms: C_2  and  C_3
REMARK    3  A    between atoms: C_3  and  C_4
REMARK    4  A    between atoms: C_4  and  C_5
REMARK    5  A    between atoms: C_9  and  C_10
REMARK    6  A    between atoms: C_10  and  O_11
REMARK    7  A    between atoms: N_12  and  C_13
REMARK    8  A    between atoms: C_13  and  C_14
REMARK    9  A    between atoms: C_17  and  C_20
REMARK   10  A    between atoms: C_25  and  C_26
REMARK                            x       y       z     vdW  Elec       q    Type
REMARK                         _______ _______ _______ _____ _____    ______ ____
ROOT
ATOM      1  C   UNL     1      -6.851   1.221 128.489  0.00  0.00    +0.000 A 
ATOM      2  C   UNL     1      -8.043   0.777 127.908  0.00  0.00    +0.000 A 
ATOM      3  C   UNL     1      -7.999  -0.162 126.828  0.00  0.00    +0.000 A 
ATOM      4  C   UNL     1      -6.805  -0.581 126.276  0.00  0.00    +0.000 A 
ATOM      5  C   UNL     1      -5.716  -0.214 127.001  0.00  0.00    +0.000 A 
ATOM      6  C   UNL     1      -5.732   0.588 128.118  0.00  0.00    +0.000 A 
ENDROOT
BRANCH   4   7
ATOM      7  C   UNL     1      -6.553  -1.358 125.034  0.00  0.00    +0.000 A 
ATOM      8  C   UNL     1      -5.707  -2.471 125.188  0.00  0.00    +0.000 A 
ATOM      9  C   UNL     1      -5.124  -3.070 124.081  0.00  0.00    +0.000 A 
ATOM     10  C   UNL     1      -5.542  -2.722 122.803  0.00  0.00    +0.000 A 
ATOM     11  C   UNL     1      -6.582  -1.809 122.628  0.00  0.00    +0.000 A 
ATOM     12  C   UNL     1      -7.107  -1.109 123.725  0.00  0.00    +0.000 A 
BRANCH  12  13
ATOM     13  C   UNL     1      -8.206  -0.169 123.411  0.00  0.00    +0.000 A 
ATOM     14  N   UNL     1      -8.098   1.168 123.341  0.00  0.00    +0.000 NA
ATOM     15  N   UNL     1      -9.392   1.526 123.332  0.00  0.00    +0.000 N 
ATOM     16  N   UNL     1     -10.276   0.525 123.247  0.00  0.00    +0.000 NA
ATOM     17  N   UNL     1      -9.529  -0.576 123.277  0.00  0.00    +0.000 NA
ATOM     18  H   UNL     1      -9.684   2.492 123.459  0.00  0.00    +0.000 HD
ENDBRANCH  12  13
ENDBRANCH   4   7
BRANCH   1  19
ATOM     19  C   UNL     1      -6.607   2.121 129.643  0.00  0.00    +0.000 C 
BRANCH  19  25
ATOM     20  C   UNL     1      -7.443   0.863 131.803  0.00  0.00    +0.000 A 
ATOM     21  N   UNL     1      -8.067   1.281 132.901  0.00  0.00    +0.000 NA
ATOM     22  C   UNL     1      -8.520   2.556 132.650  0.00  0.00    +0.000 A 
ATOM     23 CL   UNL     1      -9.453   3.475 133.746  0.00  0.00    +0.000 Cl
ATOM     24  C   UNL     1      -8.163   2.958 131.381  0.00  0.00    +0.000 A 
ATOM     25  N   UNL     1      -7.316   1.942 130.923  0.00  0.00    +0.000 N 
BRANCH  20  26
ATOM     26  C   UNL     1      -6.888  -0.558 131.625  0.00  0.00    +0.000 C 
BRANCH  26  27
ATOM     27  C   UNL     1      -7.802  -1.575 130.868  0.00  0.00    +0.000 C 
BRANCH  27  29
ATOM     28  C   UNL     1      -8.139  -3.147 128.941  0.00  0.00    +0.000 C 
ATOM     29  C   UNL     1      -7.083  -2.422 129.798  0.00  0.00    +0.000 C 
ENDBRANCH  27  29
ENDBRANCH  26  27
ENDBRANCH  20  26
BRANCH  24  30
ATOM     30  C   UNL     1      -8.587   4.202 130.665  0.00  0.00    +0.000 C 
BRANCH  30  31
ATOM     31  O   UNL     1      -9.618   3.949 129.725  0.00  0.00    +0.000 OA
ATOM     32  H   UNL     1     -10.381   3.623 130.229  0.00  0.00    +0.000 HD
ENDBRANCH  30  31
ENDBRANCH  24  30
ENDBRANCH  19  25
ENDBRANCH   1  19
TORSDOF 9
ENDMDL
MODEL 6
REMARK VINA RESULT:      -7.6      3.360      7.837
REMARK  Name = Losartan
REMARK  10 active torsions:
REMARK  status: ('A' for Active; 'I' for Inactive)
REMARK    1  A    between atoms: C_1  and  C_2
REMARK    2  A    between atoms: C_2  and  C_3
REMARK    3  A    between atoms: C_3  and  C_4
REMARK    4  A    between atoms: C_4  and  C_5
REMARK    5  A    between atoms: C_9  and  C_10
REMARK    6  A    between atoms: C_10  and  O_11
REMARK    7  A    between atoms: N_12  and  C_13
REMARK    8  A    between atoms: C_13  and  C_14
REMARK    9  A    between atoms: C_17  and  C_20
REMARK   10  A    between atoms: C_25  and  C_26
REMARK                            x       y       z     vdW  Elec       q    Type
REMARK                         _______ _______ _______ _____ _____    ______ ____
ROOT
ATOM      1  C   UNL     1      -7.015  -2.915 129.367  0.00  0.00    +0.000 A 
ATOM      2  C   UNL     1      -5.783  -2.400 128.955  0.00  0.00    +0.000 A 
ATOM      3  C   UNL     1      -5.582  -2.054 127.580  0.00  0.00    +0.000 A 
ATOM      4  C   UNL     1      -6.545  -2.296 126.621  0.00  0.00    +0.000 A 
ATOM      5  C   UNL     1      -7.749  -2.655 127.141  0.00  0.00    +0.000 A 
ATOM      6  C   UNL     1      -8.011  -2.877 128.473  0.00  0.00    +0.000 A 
ENDROOT
BRANCH   4   7
ATOM      7  C   UNL     1      -6.451  -2.221 125.139  0.00  0.00    +0.000 A 
ATOM      8  C   UNL     1      -5.650  -3.209 124.541  0.00  0.00    +0.000 A 
ATOM      9  C   UNL     1      -5.205  -3.060 123.236  0.00  0.00    +0.000 A 
ATOM     10  C   UNL     1      -5.726  -2.051 122.436  0.00  0.00    +0.000 A 
ATOM     11  C   UNL     1      -6.732  -1.217 122.924  0.00  0.00    +0.000 A 
ATOM     12  C   UNL     1      -7.115  -1.277 124.273  0.00  0.00    +0.000 A 
BRANCH  12  13
ATOM     13  C   UNL     1      -8.192  -0.343 124.668  0.00  0.00    +0.000 A 
ATOM     14  N   UNL     1      -8.023   0.940 125.032  0.00  0.00    +0.000 NA
ATOM     15  N   UNL     1      -9.227   1.214 125.558  0.00  0.00    +0.000 N 
ATOM     16  N   UNL     1     -10.157   0.261 125.421  0.00  0.00    +0.000 NA
ATOM     17  N   UNL     1      -9.514  -0.743 124.831  0.00  0.00    +0.000 NA
ATOM     18  H   UNL     1      -9.399   2.061 126.096  0.00  0.00    +0.000 HD
ENDBRANCH  12  13
ENDBRANCH   4   7
BRANCH   1  19
ATOM     19  C   UNL     1      -7.514  -3.287 130.715  0.00  0.00    +0.000 C 
BRANCH  19  25
ATOM     20  C   UNL     1      -7.570  -1.104 132.191  0.00  0.00    +0.000 A 
ATOM     21  N   UNL     1      -7.256  -0.872 133.463  0.00  0.00    +0.000 NA
ATOM     22  C   UNL     1      -6.566  -1.972 133.918  0.00  0.00    +0.000 A 
ATOM     23 CL   UNL     1      -5.887  -2.098 135.480  0.00  0.00    +0.000 Cl
ATOM     24  C   UNL     1      -6.456  -2.922 132.926  0.00  0.00    +0.000 A 
ATOM     25  N   UNL     1      -7.263  -2.435 131.891  0.00  0.00    +0.000 N 
BRANCH  20  26
ATOM     26  C   UNL     1      -8.247  -0.073 131.276  0.00  0.00    +0.000 C 
BRANCH  26  27
ATOM     27  C   UNL     1      -7.323   0.668 130.256  0.00  0.00    +0.000 C 
BRANCH  27  29
ATOM     28  C   UNL     1      -8.729   2.241 128.897  0.00  0.00    +0.000 C 
ATOM     29  C   UNL     1      -7.953   0.910 128.869  0.00  0.00    +0.000 C 
ENDBRANCH  27  29
ENDBRANCH  26  27
ENDBRANCH  20  26
BRANCH  24  30
ATOM     30  C   UNL     1      -5.656  -4.187 132.959  0.00  0.00    +0.000 C 
BRANCH  30  31
ATOM     31  O   UNL     1      -4.423  -4.053 132.272  0.00  0.00    +0.000 OA
ATOM     32  H   UNL     1      -4.141  -4.949 132.027  0.00  0.00    +0.000 HD
ENDBRANCH  30  31
ENDBRANCH  24  30
ENDBRANCH  19  25
ENDBRANCH   1  19
TORSDOF 9
ENDMDL
MODEL 7
REMARK VINA RESULT:      -7.6      4.109      5.755
REMARK  Name = Losartan
REMARK  10 active torsions:
REMARK  status: ('A' for Active; 'I' for Inactive)
REMARK    1  A    between atoms: C_1  and  C_2
REMARK    2  A    between atoms: C_2  and  C_3
REMARK    3  A    between atoms: C_3  and  C_4
REMARK    4  A    between atoms: C_4  and  C_5
REMARK    5  A    between atoms: C_9  and  C_10
REMARK    6  A    between atoms: C_10  and  O_11
REMARK    7  A    between atoms: N_12  and  C_13
REMARK    8  A    between atoms: C_13  and  C_14
REMARK    9  A    between atoms: C_17  and  C_20
REMARK   10  A    between atoms: C_25  and  C_26
REMARK                            x       y       z     vdW  Elec       q    Type
REMARK                         _______ _______ _______ _____ _____    ______ ____
ROOT
ATOM      1  C   UNL     1      -7.452   1.360 127.763  0.00  0.00    +0.000 A 
ATOM      2  C   UNL     1      -7.921   0.538 128.792  0.00  0.00    +0.000 A 
ATOM      3  C   UNL     1      -8.331   1.120 130.034  0.00  0.00    +0.000 A 
ATOM      4  C   UNL     1      -8.197   2.471 130.284  0.00  0.00    +0.000 A 
ATOM      5  C   UNL     1      -7.877   3.197 129.180  0.00  0.00    +0.000 A 
ATOM      6  C   UNL     1      -7.596   2.680 127.937  0.00  0.00    +0.000 A 
ENDROOT
BRANCH   4   7
ATOM      7  C   UNL     1      -8.349   3.222 131.558  0.00  0.00    +0.000 A 
ATOM      8  C   UNL     1      -7.458   2.850 132.580  0.00  0.00    +0.000 A 
ATOM      9  C   UNL     1      -7.704   3.215 133.896  0.00  0.00    +0.000 A 
ATOM     10  C   UNL     1      -8.705   4.133 134.186  0.00  0.00    +0.000 A 
ATOM     11  C   UNL     1      -9.431   4.730 133.155  0.00  0.00    +0.000 A 
ATOM     12  C   UNL     1      -9.277   4.293 131.830  0.00  0.00    +0.000 A 
BRANCH  12  13
ATOM     13  C   UNL     1     -10.102   5.004 130.828  0.00  0.00    +0.000 A 
ATOM     14  N   UNL     1      -9.998   6.305 130.508  0.00  0.00    +0.000 NA
ATOM     15  N   UNL     1     -11.131   6.485 129.811  0.00  0.00    +0.000 N 
ATOM     16  N   UNL     1     -11.845   5.382 129.558  0.00  0.00    +0.000 NA
ATOM     17  N   UNL     1     -11.186   4.413 130.189  0.00  0.00    +0.000 NA
ATOM     18  H   UNL     1     -11.465   7.412 129.558  0.00  0.00    +0.000 HD
ENDBRANCH  12  13
ENDBRANCH   4   7
BRANCH   1  19
ATOM     19  C   UNL     1      -7.034   1.041 126.375  0.00  0.00    +0.000 C 
BRANCH  19  25
ATOM     20  C   UNL     1      -8.387  -0.964 125.327  0.00  0.00    +0.000 A 
ATOM     21  N   UNL     1      -9.329  -1.018 124.389  0.00  0.00    +0.000 NA
ATOM     22  C   UNL     1      -9.343   0.204 123.757  0.00  0.00    +0.000 A 
ATOM     23 CL   UNL     1     -10.341   0.580 122.423  0.00  0.00    +0.000 Cl
ATOM     24  C   UNL     1      -8.410   1.051 124.314  0.00  0.00    +0.000 A 
ATOM     25  N   UNL     1      -7.940   0.357 125.436  0.00  0.00    +0.000 N 
BRANCH  20  26
ATOM     26  C   UNL     1      -7.968  -2.165 126.189  0.00  0.00    +0.000 C 
BRANCH  26  27
ATOM     27  C   UNL     1      -9.094  -3.186 126.556  0.00  0.00    +0.000 C 
BRANCH  27  29
ATOM     28  C   UNL     1      -8.320  -3.112 128.943  0.00  0.00    +0.000 C 
ATOM     29  C   UNL     1      -8.813  -4.036 127.812  0.00  0.00    +0.000 C 
ENDBRANCH  27  29
ENDBRANCH  26  27
ENDBRANCH  20  26
BRANCH  24  30
ATOM     30  C   UNL     1      -8.001   2.405 123.826  0.00  0.00    +0.000 C 
BRANCH  30  31
ATOM     31  O   UNL     1      -8.846   3.427 124.327  0.00  0.00    +0.000 OA
ATOM     32  H   UNL     1      -8.281   4.036 124.830  0.00  0.00    +0.000 HD
ENDBRANCH  30  31
ENDBRANCH  24  30
ENDBRANCH  19  25
ENDBRANCH   1  19
TORSDOF 9
ENDMDL
MODEL 8
REMARK VINA RESULT:      -7.5      4.393      7.770
REMARK  Name = Losartan
REMARK  10 active torsions:
REMARK  status: ('A' for Active; 'I' for Inactive)
REMARK    1  A    between atoms: C_1  and  C_2
REMARK    2  A    between atoms: C_2  and  C_3
REMARK    3  A    between atoms: C_3  and  C_4
REMARK    4  A    between atoms: C_4  and  C_5
REMARK    5  A    between atoms: C_9  and  C_10
REMARK    6  A    between atoms: C_10  and  O_11
REMARK    7  A    between atoms: N_12  and  C_13
REMARK    8  A    between atoms: C_13  and  C_14
REMARK    9  A    between atoms: C_17  and  C_20
REMARK   10  A    between atoms: C_25  and  C_26
REMARK                            x       y       z     vdW  Elec       q    Type
REMARK                         _______ _______ _______ _____ _____    ______ ____
ROOT
ATOM      1  C   UNL     1      -7.187   1.620 128.290  0.00  0.00    +0.000 A 
ATOM      2  C   UNL     1      -6.903   2.249 127.074  0.00  0.00    +0.000 A 
ATOM      3  C   UNL     1      -6.830   1.473 125.873  0.00  0.00    +0.000 A 
ATOM      4  C   UNL     1      -6.947   0.097 125.888  0.00  0.00    +0.000 A 
ATOM      5  C   UNL     1      -7.368  -0.398 127.081  0.00  0.00    +0.000 A 
ATOM      6  C   UNL     1      -7.567   0.338 128.227  0.00  0.00    +0.000 A 
ENDROOT
BRANCH   4   7
ATOM      7  C   UNL     1      -6.685  -0.890 124.808  0.00  0.00    +0.000 A 
ATOM      8  C   UNL     1      -5.720  -1.866 125.113  0.00  0.00    +0.000 A 
ATOM      9  C   UNL     1      -5.140  -2.623 124.105  0.00  0.00    +0.000 A 
ATOM     10  C   UNL     1      -5.662  -2.582 122.819  0.00  0.00    +0.000 A 
ATOM     11  C   UNL     1      -6.800  -1.823 122.547  0.00  0.00    +0.000 A 
ATOM     12  C   UNL     1      -7.334  -0.964 123.521  0.00  0.00    +0.000 A 
BRANCH  12  13
ATOM     13  C   UNL     1      -8.541  -0.213 123.111  0.00  0.00    +0.000 A 
ATOM     14  N   UNL     1      -8.676   1.123 123.131  0.00  0.00    +0.000 NA
ATOM     15  N   UNL     1     -10.003   1.245 122.964  0.00  0.00    +0.000 N 
ATOM     16  N   UNL     1     -10.667   0.113 122.705  0.00  0.00    +0.000 NA
ATOM     17  N   UNL     1      -9.738  -0.837 122.775  0.00  0.00    +0.000 NA
ATOM     18  H   UNL     1     -10.484   2.131 123.103  0.00  0.00    +0.000 HD
ENDBRANCH  12  13
ENDBRANCH   4   7
BRANCH   1  19
ATOM     19  C   UNL     1      -7.386   2.176 129.651  0.00  0.00    +0.000 C 
BRANCH  19  25
ATOM     20  C   UNL     1      -5.994   4.392 129.960  0.00  0.00    +0.000 A 
ATOM     21  N   UNL     1      -6.354   5.662 130.135  0.00  0.00    +0.000 NA
ATOM     22  C   UNL     1      -7.697   5.665 130.435  0.00  0.00    +0.000 A 
ATOM     23 CL   UNL     1      -8.588   7.071 130.820  0.00  0.00    +0.000 Cl
ATOM     24  C   UNL     1      -8.199   4.382 130.433  0.00  0.00    +0.000 A 
ATOM     25  N   UNL     1      -7.146   3.600 129.944  0.00  0.00    +0.000 N 
BRANCH  20  26
ATOM     26  C   UNL     1      -4.546   3.940 129.722  0.00  0.00    +0.000 C 
BRANCH  26  27
ATOM     27  C   UNL     1      -3.983   4.135 128.277  0.00  0.00    +0.000 C 
BRANCH  27  29
ATOM     28  C   UNL     1      -2.032   3.207 127.000  0.00  0.00    +0.000 C 
ATOM     29  C   UNL     1      -3.394   2.863 127.633  0.00  0.00    +0.000 C 
ENDBRANCH  27  29
ENDBRANCH  26  27
ENDBRANCH  20  26
BRANCH  24  30
ATOM     30  C   UNL     1      -9.564   3.937 130.855  0.00  0.00    +0.000 C 
BRANCH  30  31
ATOM     31  O   UNL     1     -10.479   3.931 129.772  0.00  0.00    +0.000 OA
ATOM     32  H   UNL     1     -10.643   3.000 129.550  0.00  0.00    +0.000 HD
ENDBRANCH  30  31
ENDBRANCH  24  30
ENDBRANCH  19  25
ENDBRANCH   1  19
TORSDOF 9
ENDMDL
MODEL 9
REMARK VINA RESULT:      -7.4      4.059      8.075
REMARK  Name = Losartan
REMARK  10 active torsions:
REMARK  status: ('A' for Active; 'I' for Inactive)
REMARK    1  A    between atoms: C_1  and  C_2
REMARK    2  A    between atoms: C_2  and  C_3
REMARK    3  A    between atoms: C_3  and  C_4
REMARK    4  A    between atoms: C_4  and  C_5
REMARK    5  A    between atoms: C_9  and  C_10
REMARK    6  A    between atoms: C_10  and  O_11
REMARK    7  A    between atoms: N_12  and  C_13
REMARK    8  A    between atoms: C_13  and  C_14
REMARK    9  A    between atoms: C_17  and  C_20
REMARK   10  A    between atoms: C_25  and  C_26
REMARK                            x       y       z     vdW  Elec       q    Type
REMARK                         _______ _______ _______ _____ _____    ______ ____
ROOT
ATOM      1  C   UNL     1      -6.549  -3.235 129.986  0.00  0.00    +0.000 A 
ATOM      2  C   UNL     1      -5.724  -2.556 129.083  0.00  0.00    +0.000 A 
ATOM      3  C   UNL     1      -6.256  -2.116 127.829  0.00  0.00    +0.000 A 
ATOM      4  C   UNL     1      -7.546  -2.417 127.439  0.00  0.00    +0.000 A 
ATOM      5  C   UNL     1      -8.304  -2.942 128.437  0.00  0.00    +0.000 A 
ATOM      6  C   UNL     1      -7.856  -3.265 129.697  0.00  0.00    +0.000 A 
ENDROOT
BRANCH   4   7
ATOM      7  C   UNL     1      -8.202  -2.251 126.116  0.00  0.00    +0.000 A 
ATOM      8  C   UNL     1      -8.692  -3.436 125.539  0.00  0.00    +0.000 A 
ATOM      9  C   UNL     1      -9.012  -3.482 124.190  0.00  0.00    +0.000 A 
ATOM     10  C   UNL     1      -9.064  -2.310 123.448  0.00  0.00    +0.000 A 
ATOM     11  C   UNL     1      -8.847  -1.078 124.065  0.00  0.00    +0.000 A 
ATOM     12  C   UNL     1      -8.412  -1.015 125.399  0.00  0.00    +0.000 A 
BRANCH  12  13
ATOM     13  C   UNL     1      -8.217   0.348 125.939  0.00  0.00    +0.000 A 
ATOM     14  N   UNL     1      -7.035   0.965 126.101  0.00  0.00    +0.000 NA
ATOM     15  N   UNL     1      -7.395   2.001 126.875  0.00  0.00    +0.000 N 
ATOM     16  N   UNL     1      -8.709   2.149 127.082  0.00  0.00    +0.000 NA
ATOM     17  N   UNL     1      -9.257   1.103 126.469  0.00  0.00    +0.000 NA
ATOM     18  H   UNL     1      -6.708   2.592 127.338  0.00  0.00    +0.000 HD
ENDBRANCH  12  13
ENDBRANCH   4   7
BRANCH   1  19
ATOM     19  C   UNL     1      -6.287  -3.735 131.358  0.00  0.00    +0.000 C 
BRANCH  19  25
ATOM     20  C   UNL     1      -5.640  -1.576 132.725  0.00  0.00    +0.000 A 
ATOM     21  N   UNL     1      -4.865  -1.386 133.789  0.00  0.00    +0.000 NA
ATOM     22  C   UNL     1      -4.136  -2.539 133.972  0.00  0.00    +0.000 A 
ATOM     23 CL   UNL     1      -2.942  -2.737 135.177  0.00  0.00    +0.000 Cl
ATOM     24  C   UNL     1      -4.467  -3.480 133.021  0.00  0.00    +0.000 A 
ATOM     25  N   UNL     1      -5.561  -2.921 132.349  0.00  0.00    +0.000 N 
BRANCH  20  26
ATOM     26  C   UNL     1      -6.530  -0.486 132.110  0.00  0.00    +0.000 C 
BRANCH  26  27
ATOM     27  C   UNL     1      -8.068  -0.620 132.354  0.00  0.00    +0.000 C 
BRANCH  27  29
ATOM     28  C   UNL     1      -8.126   0.468 130.094  0.00  0.00    +0.000 C 
ATOM     29  C   UNL     1      -8.953   0.151 131.355  0.00  0.00    +0.000 C 
ENDBRANCH  27  29
ENDBRANCH  26  27
ENDBRANCH  20  26
BRANCH  24  30
ATOM     30  C   UNL     1      -3.804  -4.799 132.773  0.00  0.00    +0.000 C 
BRANCH  30  31
ATOM     31  O   UNL     1      -4.207  -5.780 133.714  0.00  0.00    +0.000 OA
ATOM     32  H   UNL     1      -4.446  -5.306 134.527  0.00  0.00    +0.000 HD
ENDBRANCH  30  31
ENDBRANCH  24  30
ENDBRANCH  19  25
ENDBRANCH   1  19
TORSDOF 9
ENDMDL
