MODEL 1
REMARK VINA RESULT:      -8.3      0.000      0.000
REMARK  Name = Loteprednol
REMARK  7 active torsions:
REMARK  status: ('A' for Active; 'I' for Inactive)
REMARK    1  A    between atoms: C_5  and  O_6
REMARK    2  A    between atoms: C_5  and  C_7
REMARK    3  A    between atoms: C_7  and  O_9
REMARK    4  A    between atoms: O_9  and  C_10
REMARK    5  A    between atoms: C_12  and  C_13
REMARK    6  A    between atoms: C_15  and  O_16
REMARK    7  A    between atoms: C_29  and  C_30
REMARK                            x       y       z     vdW  Elec       q    Type
REMARK                         _______ _______ _______ _____ _____    ______ ____
ROOT
ATOM      1  C   UNL     1      -7.302  -2.968 130.403  0.00  0.00    +0.000 C 
ATOM      2  C   UNL     1      -6.384  -4.049 130.358  0.00  0.00    +0.000 C 
ATOM      3  C   UNL     1      -5.895  -2.734 129.819  0.00  0.00    +0.000 C 
ATOM      4  C   UNL     1      -6.923  -1.026 130.377  0.00  0.00    +0.000 C 
ATOM      5  C   UNL     1      -5.962  -1.745 130.988  0.00  0.00    +0.000 C 
ATOM      6  C   UNL     1      -5.648  -1.876 132.427  0.00  0.00    +0.000 C 
ATOM      7  C   UNL     1      -4.934  -0.863 129.676  0.00  0.00    +0.000 C 
ATOM      8  C   UNL     1      -5.840  -0.680 128.216  0.00  0.00    +0.000 C 
ATOM      9  C   UNL     1      -6.745  -1.934 127.610  0.00  0.00    +0.000 C 
ATOM     10  C   UNL     1      -7.890  -2.548 128.727  0.00  0.00    +0.000 C 
ATOM     11  C   UNL     1      -8.540  -3.806 128.184  0.00  0.00    +0.000 C 
ATOM     12  C   UNL     1      -9.082  -3.616 126.787  0.00  0.00    +0.000 C 
ATOM     13  C   UNL     1      -8.138  -3.023 125.778  0.00  0.00    +0.000 C 
ATOM     14  C   UNL     1      -8.027  -3.477 124.515  0.00  0.00    +0.000 C 
ATOM     15  C   UNL     1      -7.158  -2.628 123.657  0.00  0.00    +0.000 C 
ATOM     16  O   UNL     1      -7.500  -1.846 122.781  0.00  0.00    +0.000 OA
ATOM     17  C   UNL     1      -5.724  -2.692 124.101  0.00  0.00    +0.000 C 
ATOM     18  C   UNL     1      -6.010  -1.849 125.130  0.00  0.00    +0.000 C 
ATOM     19  C   UNL     1      -7.294  -1.800 126.157  0.00  0.00    +0.000 C 
ATOM     20  C   UNL     1      -8.276  -0.622 126.235  0.00  0.00    +0.000 C 
ENDROOT
BRANCH   4  21
ATOM     21  O   UNL     1      -8.174  -1.130 131.206  0.00  0.00    +0.000 OA
ATOM     22  H   UNL     1      -8.727  -0.332 131.131  0.00  0.00    +0.000 HD
ENDBRANCH   4  21
BRANCH   4  23
ATOM     23  C   UNL     1      -6.481   0.606 131.146  0.00  0.00    +0.000 C 
ATOM     24  O   UNL     1      -5.556   1.334 130.796  0.00  0.00    +0.000 OA
BRANCH  23  25
ATOM     25  O   UNL     1      -7.187   1.023 132.289  0.00  0.00    +0.000 OA
BRANCH  25  26
ATOM     26  C   UNL     1      -8.051   2.219 132.001  0.00  0.00    +0.000 C 
ATOM     27 CL   UNL     1      -9.803   1.913 132.234  0.00  0.00    +0.000 Cl
ENDBRANCH  25  26
ENDBRANCH  23  25
ENDBRANCH   4  23
BRANCH   8  28
ATOM     28  O   UNL     1      -6.677   0.476 128.426  0.00  0.00    +0.000 OA
ATOM     29  H   UNL     1      -7.408   0.278 129.045  0.00  0.00    +0.000 HD
ENDBRANCH   8  28
TORSDOF 5
ENDMDL
MODEL 2
REMARK VINA RESULT:      -8.3      3.451      6.204
REMARK  Name = Loteprednol
REMARK  7 active torsions:
REMARK  status: ('A' for Active; 'I' for Inactive)
REMARK    1  A    between atoms: C_5  and  O_6
REMARK    2  A    between atoms: C_5  and  C_7
REMARK    3  A    between atoms: C_7  and  O_9
REMARK    4  A    between atoms: O_9  and  C_10
REMARK    5  A    between atoms: C_12  and  C_13
REMARK    6  A    between atoms: C_15  and  O_16
REMARK    7  A    between atoms: C_29  and  C_30
REMARK                            x       y       z     vdW  Elec       q    Type
REMARK                         _______ _______ _______ _____ _____    ______ ____
ROOT
ATOM      1  C   UNL     1      -7.550  -1.174 123.534  0.00  0.00    +0.000 C 
ATOM      2  C   UNL     1      -6.369  -1.387 122.778  0.00  0.00    +0.000 C 
ATOM      3  C   UNL     1      -6.211  -1.369 124.273  0.00  0.00    +0.000 C 
ATOM      4  C   UNL     1      -7.911  -1.654 125.419  0.00  0.00    +0.000 C 
ATOM      5  C   UNL     1      -7.080  -2.516 124.804  0.00  0.00    +0.000 C 
ATOM      6  C   UNL     1      -7.331  -3.889 124.315  0.00  0.00    +0.000 C 
ATOM      7  C   UNL     1      -6.008  -2.010 126.271  0.00  0.00    +0.000 C 
ATOM      8  C   UNL     1      -6.270  -0.350 126.671  0.00  0.00    +0.000 C 
ATOM      9  C   UNL     1      -6.352   0.811 125.485  0.00  0.00    +0.000 C 
ATOM     10  C   UNL     1      -7.542   0.485 124.295  0.00  0.00    +0.000 C 
ATOM     11  C   UNL     1      -7.431   1.470 123.149  0.00  0.00    +0.000 C 
ATOM     12  C   UNL     1      -7.412   2.905 123.624  0.00  0.00    +0.000 C 
ATOM     13  C   UNL     1      -6.427   3.236 124.711  0.00  0.00    +0.000 C 
ATOM     14  C   UNL     1      -5.676   4.353 124.712  0.00  0.00    +0.000 C 
ATOM     15  C   UNL     1      -4.906   4.546 125.970  0.00  0.00    +0.000 C 
ATOM     16  O   UNL     1      -5.132   5.335 126.876  0.00  0.00    +0.000 OA
ATOM     17  C   UNL     1      -3.841   3.497 126.123  0.00  0.00    +0.000 C 
ATOM     18  C   UNL     1      -4.787   2.600 126.509  0.00  0.00    +0.000 C 
ATOM     19  C   UNL     1      -6.297   2.305 125.924  0.00  0.00    +0.000 C 
ATOM     20  C   UNL     1      -7.580   2.504 126.743  0.00  0.00    +0.000 C 
ENDROOT
BRANCH   4  21
ATOM     21  O   UNL     1      -9.260  -1.767 124.762  0.00  0.00    +0.000 OA
ATOM     22  H   UNL     1      -9.194  -2.103 123.851  0.00  0.00    +0.000 HD
ENDBRANCH   4  21
BRANCH   4  23
ATOM     23  C   UNL     1      -8.420  -2.801 126.789  0.00  0.00    +0.000 C 
ATOM     24  O   UNL     1      -9.494  -3.393 126.864  0.00  0.00    +0.000 OA
BRANCH  23  25
ATOM     25  O   UNL     1      -7.564  -2.946 127.896  0.00  0.00    +0.000 OA
BRANCH  25  26
ATOM     26  C   UNL     1      -8.331  -3.258 129.152  0.00  0.00    +0.000 C 
ATOM     27 CL   UNL     1      -7.322  -3.230 130.635  0.00  0.00    +0.000 Cl
ENDBRANCH  25  26
ENDBRANCH  23  25
ENDBRANCH   4  23
BRANCH   8  28
ATOM     28  O   UNL     1      -7.474  -0.330 127.464  0.00  0.00    +0.000 OA
ATOM     29  H   UNL     1      -8.261  -0.154 126.911  0.00  0.00    +0.000 HD
ENDBRANCH   8  28
TORSDOF 5
ENDMDL
MODEL 3
REMARK VINA RESULT:      -8.1      6.415      9.211
REMARK  Name = Loteprednol
REMARK  7 active torsions:
REMARK  status: ('A' for Active; 'I' for Inactive)
REMARK    1  A    between atoms: C_5  and  O_6
REMARK    2  A    between atoms: C_5  and  C_7
REMARK    3  A    between atoms: C_7  and  O_9
REMARK    4  A    between atoms: O_9  and  C_10
REMARK    5  A    between atoms: C_12  and  C_13
REMARK    6  A    between atoms: C_15  and  O_16
REMARK    7  A    between atoms: C_29  and  C_30
REMARK                            x       y       z     vdW  Elec       q    Type
REMARK                         _______ _______ _______ _____ _____    ______ ____
ROOT
ATOM      1  C   UNL     1      -7.891   3.691 129.896  0.00  0.00    +0.000 C 
ATOM      2  C   UNL     1      -7.903   2.748 130.956  0.00  0.00    +0.000 C 
ATOM      3  C   UNL     1      -7.996   4.195 131.349  0.00  0.00    +0.000 C 
ATOM      4  C   UNL     1      -8.569   5.550 129.893  0.00  0.00    +0.000 C 
ATOM      5  C   UNL     1      -9.275   4.731 130.695  0.00  0.00    +0.000 C 
ATOM      6  C   UNL     1     -10.620   4.147 130.504  0.00  0.00    +0.000 C 
ATOM      7  C   UNL     1      -8.779   6.063 131.933  0.00  0.00    +0.000 C 
ATOM      8  C   UNL     1      -7.200   6.666 131.578  0.00  0.00    +0.000 C 
ATOM      9  C   UNL     1      -5.958   5.632 131.192  0.00  0.00    +0.000 C 
ATOM     10  C   UNL     1      -6.313   4.609 129.864  0.00  0.00    +0.000 C 
ATOM     11  C   UNL     1      -5.227   3.566 129.692  0.00  0.00    +0.000 C 
ATOM     12  C   UNL     1      -3.845   4.178 129.647  0.00  0.00    +0.000 C 
ATOM     13  C   UNL     1      -3.500   5.132 130.756  0.00  0.00    +0.000 C 
ATOM     14  C   UNL     1      -2.309   5.134 131.384  0.00  0.00    +0.000 C 
ATOM     15  C   UNL     1      -2.139   6.274 132.324  0.00  0.00    +0.000 C 
ATOM     16  O   UNL     1      -1.462   7.280 132.171  0.00  0.00    +0.000 OA
ATOM     17  C   UNL     1      -3.071   6.156 133.498  0.00  0.00    +0.000 C 
ATOM     18  C   UNL     1      -4.099   6.587 132.718  0.00  0.00    +0.000 C 
ATOM     19  C   UNL     1      -4.510   6.209 131.171  0.00  0.00    +0.000 C 
ATOM     20  C   UNL     1      -4.530   7.228 130.023  0.00  0.00    +0.000 C 
ENDROOT
BRANCH   4  21
ATOM     21  O   UNL     1      -8.776   5.096 128.473  0.00  0.00    +0.000 OA
ATOM     22  H   UNL     1      -8.118   5.483 127.868  0.00  0.00    +0.000 HD
ENDBRANCH   4  21
BRANCH   4  23
ATOM     23  C   UNL     1      -9.879   6.856 129.726  0.00  0.00    +0.000 C 
ATOM     24  O   UNL     1     -11.036   6.764 130.128  0.00  0.00    +0.000 OA
BRANCH  23  25
ATOM     25  O   UNL     1      -9.578   8.020 128.995  0.00  0.00    +0.000 OA
BRANCH  25  26
ATOM     26  C   UNL     1     -10.738   8.455 128.143  0.00  0.00    +0.000 C 
ATOM     27 CL   UNL     1     -10.874   7.553 126.599  0.00  0.00    +0.000 Cl
ENDBRANCH  25  26
ENDBRANCH  23  25
ENDBRANCH   4  23
BRANCH   8  28
ATOM     28  O   UNL     1      -7.385   7.630 130.521  0.00  0.00    +0.000 OA
ATOM     29  H   UNL     1      -6.573   7.731 129.985  0.00  0.00    +0.000 HD
ENDBRANCH   8  28
TORSDOF 5
ENDMDL
MODEL 4
REMARK VINA RESULT:      -7.6      3.234      6.085
REMARK  Name = Loteprednol
REMARK  7 active torsions:
REMARK  status: ('A' for Active; 'I' for Inactive)
REMARK    1  A    between atoms: C_5  and  O_6
REMARK    2  A    between atoms: C_5  and  C_7
REMARK    3  A    between atoms: C_7  and  O_9
REMARK    4  A    between atoms: O_9  and  C_10
REMARK    5  A    between atoms: C_12  and  C_13
REMARK    6  A    between atoms: C_15  and  O_16
REMARK    7  A    between atoms: C_29  and  C_30
REMARK                            x       y       z     vdW  Elec       q    Type
REMARK                         _______ _______ _______ _____ _____    ______ ____
ROOT
ATOM      1  C   UNL     1      -7.731   1.511 127.995  0.00  0.00    +0.000 C 
ATOM      2  C   UNL     1      -6.562   2.187 128.427  0.00  0.00    +0.000 C 
ATOM      3  C   UNL     1      -6.359   1.053 127.462  0.00  0.00    +0.000 C 
ATOM      4  C   UNL     1      -7.996   0.427 126.360  0.00  0.00    +0.000 C 
ATOM      5  C   UNL     1      -7.122   1.437 126.190  0.00  0.00    +0.000 C 
ATOM      6  C   UNL     1      -7.286   2.720 125.472  0.00  0.00    +0.000 C 
ATOM      7  C   UNL     1      -6.046  -0.023 125.677  0.00  0.00    +0.000 C 
ATOM      8  C   UNL     1      -6.416  -1.416 126.628  0.00  0.00    +0.000 C 
ATOM      9  C   UNL     1      -6.622  -1.296 128.273  0.00  0.00    +0.000 C 
ATOM     10  C   UNL     1      -7.821  -0.159 128.727  0.00  0.00    +0.000 C 
ATOM     11  C   UNL     1      -7.820   0.042 130.229  0.00  0.00    +0.000 C 
ATOM     12  C   UNL     1      -7.892  -1.265 130.985  0.00  0.00    +0.000 C 
ATOM     13  C   UNL     1      -6.901  -2.323 130.586  0.00  0.00    +0.000 C 
ATOM     14  C   UNL     1      -6.235  -3.083 131.476  0.00  0.00    +0.000 C 
ATOM     15  C   UNL     1      -5.441  -4.172 130.845  0.00  0.00    +0.000 C 
ATOM     16  O   UNL     1      -5.696  -5.367 130.815  0.00  0.00    +0.000 OA
ATOM     17  C   UNL     1      -4.297  -3.618 130.043  0.00  0.00    +0.000 C 
ATOM     18  C   UNL     1      -5.162  -3.288 129.046  0.00  0.00    +0.000 C 
ATOM     19  C   UNL     1      -6.663  -2.616 129.100  0.00  0.00    +0.000 C 
ATOM     20  C   UNL     1      -7.931  -3.328 128.607  0.00  0.00    +0.000 C 
ENDROOT
BRANCH   4  21
ATOM     21  O   UNL     1      -9.352   1.027 126.609  0.00  0.00    +0.000 OA
ATOM     22  H   UNL     1     -10.043   0.599 126.072  0.00  0.00    +0.000 HD
ENDBRANCH   4  21
BRANCH   4  23
ATOM     23  C   UNL     1      -8.375   0.175 124.560  0.00  0.00    +0.000 C 
ATOM     24  O   UNL     1      -7.818   0.745 123.625  0.00  0.00    +0.000 OA
BRANCH  23  25
ATOM     25  O   UNL     1      -9.452  -0.660 124.210  0.00  0.00    +0.000 OA
BRANCH  25  26
ATOM     26  C   UNL     1      -9.110  -1.548 123.046  0.00  0.00    +0.000 C 
ATOM     27 CL   UNL     1      -9.563  -3.266 123.294  0.00  0.00    +0.000 Cl
ENDBRANCH  25  26
ENDBRANCH  23  25
ENDBRANCH   4  23
BRANCH   8  28
ATOM     28  O   UNL     1      -7.593  -1.992 126.026  0.00  0.00    +0.000 OA
ATOM     29  H   UNL     1      -7.380  -2.820 125.550  0.00  0.00    +0.000 HD
ENDBRANCH   8  28
TORSDOF 5
ENDMDL
MODEL 5
REMARK VINA RESULT:      -7.4      2.589      3.844
REMARK  Name = Loteprednol
REMARK  7 active torsions:
REMARK  status: ('A' for Active; 'I' for Inactive)
REMARK    1  A    between atoms: C_5  and  O_6
REMARK    2  A    between atoms: C_5  and  C_7
REMARK    3  A    between atoms: C_7  and  O_9
REMARK    4  A    between atoms: O_9  and  C_10
REMARK    5  A    between atoms: C_12  and  C_13
REMARK    6  A    between atoms: C_15  and  O_16
REMARK    7  A    between atoms: C_29  and  C_30
REMARK                            x       y       z     vdW  Elec       q    Type
REMARK                         _______ _______ _______ _____ _____    ______ ____
ROOT
ATOM      1  C   UNL     1      -7.200  -0.162 131.081  0.00  0.00    +0.000 C 
ATOM      2  C   UNL     1      -8.558  -0.266 131.475  0.00  0.00    +0.000 C 
ATOM      3  C   UNL     1      -7.895  -1.537 131.026  0.00  0.00    +0.000 C 
ATOM      4  C   UNL     1      -5.825  -1.583 131.008  0.00  0.00    +0.000 C 
ATOM      5  C   UNL     1      -6.726  -1.769 131.991  0.00  0.00    +0.000 C 
ATOM      6  C   UNL     1      -6.585  -1.586 133.452  0.00  0.00    +0.000 C 
ATOM      7  C   UNL     1      -6.908  -3.399 131.061  0.00  0.00    +0.000 C 
ATOM      8  C   UNL     1      -6.709  -3.156 129.362  0.00  0.00    +0.000 C 
ATOM      9  C   UNL     1      -7.436  -1.876 128.593  0.00  0.00    +0.000 C 
ATOM     10  C   UNL     1      -7.033  -0.355 129.273  0.00  0.00    +0.000 C 
ATOM     11  C   UNL     1      -7.875   0.743 128.656  0.00  0.00    +0.000 C 
ATOM     12  C   UNL     1      -7.840   0.715 127.146  0.00  0.00    +0.000 C 
ATOM     13  C   UNL     1      -8.127  -0.610 126.495  0.00  0.00    +0.000 C 
ATOM     14  C   UNL     1      -8.910  -0.743 125.407  0.00  0.00    +0.000 C 
ATOM     15  C   UNL     1      -8.909  -2.120 124.844  0.00  0.00    +0.000 C 
ATOM     16  O   UNL     1      -8.347  -2.518 123.834  0.00  0.00    +0.000 OA
ATOM     17  C   UNL     1      -9.568  -3.093 125.782  0.00  0.00    +0.000 C 
ATOM     18  C   UNL     1      -8.446  -3.104 126.551  0.00  0.00    +0.000 C 
ATOM     19  C   UNL     1      -7.458  -1.880 127.035  0.00  0.00    +0.000 C 
ATOM     20  C   UNL     1      -5.979  -1.774 126.638  0.00  0.00    +0.000 C 
ENDROOT
BRANCH   4  21
ATOM     21  O   UNL     1      -5.035  -0.346 131.334  0.00  0.00    +0.000 OA
ATOM     22  H   UNL     1      -5.330   0.065 132.166  0.00  0.00    +0.000 HD
ENDBRANCH   4  21
BRANCH   4  23
ATOM     23  C   UNL     1      -4.509  -2.681 131.724  0.00  0.00    +0.000 C 
ATOM     24  O   UNL     1      -3.415  -2.308 132.141  0.00  0.00    +0.000 OA
BRANCH  23  25
ATOM     25  O   UNL     1      -4.713  -4.073 131.710  0.00  0.00    +0.000 OA
BRANCH  25  26
ATOM     26  C   UNL     1      -4.257  -4.713 132.991  0.00  0.00    +0.000 C 
ATOM     27 CL   UNL     1      -5.591  -5.438 133.947  0.00  0.00    +0.000 Cl
ENDBRANCH  25  26
ENDBRANCH  23  25
ENDBRANCH   4  23
BRANCH   8  28
ATOM     28  O   UNL     1      -5.284  -3.118 129.143  0.00  0.00    +0.000 OA
ATOM     29  H   UNL     1      -4.962  -3.956 128.755  0.00  0.00    +0.000 HD
ENDBRANCH   8  28
TORSDOF 5
ENDMDL
MODEL 6
REMARK VINA RESULT:      -7.4      2.955      6.567
REMARK  Name = Loteprednol
REMARK  7 active torsions:
REMARK  status: ('A' for Active; 'I' for Inactive)
REMARK    1  A    between atoms: C_5  and  O_6
REMARK    2  A    between atoms: C_5  and  C_7
REMARK    3  A    between atoms: C_7  and  O_9
REMARK    4  A    between atoms: O_9  and  C_10
REMARK    5  A    between atoms: C_12  and  C_13
REMARK    6  A    between atoms: C_15  and  O_16
REMARK    7  A    between atoms: C_29  and  C_30
REMARK                            x       y       z     vdW  Elec       q    Type
REMARK                         _______ _______ _______ _____ _____    ______ ____
ROOT
ATOM      1  C   UNL     1      -6.603  -2.944 129.041  0.00  0.00    +0.000 C 
ATOM      2  C   UNL     1      -7.803  -3.658 128.790  0.00  0.00    +0.000 C 
ATOM      3  C   UNL     1      -7.899  -2.510 129.754  0.00  0.00    +0.000 C 
ATOM      4  C   UNL     1      -6.386  -1.097 129.717  0.00  0.00    +0.000 C 
ATOM      5  C   UNL     1      -7.491  -1.259 128.966  0.00  0.00    +0.000 C 
ATOM      6  C   UNL     1      -7.771  -0.814 127.584  0.00  0.00    +0.000 C 
ATOM      7  C   UNL     1      -8.262  -0.593 130.553  0.00  0.00    +0.000 C 
ATOM      8  C   UNL     1      -7.404  -1.172 131.936  0.00  0.00    +0.000 C 
ATOM      9  C   UNL     1      -6.940  -2.763 132.048  0.00  0.00    +0.000 C 
ATOM     10  C   UNL     1      -5.986  -3.289 130.725  0.00  0.00    +0.000 C 
ATOM     11  C   UNL     1      -5.765  -4.786 130.791  0.00  0.00    +0.000 C 
ATOM     12  C   UNL     1      -5.248  -5.232 132.139  0.00  0.00    +0.000 C 
ATOM     13  C   UNL     1      -6.013  -4.750 133.341  0.00  0.00    +0.000 C 
ATOM     14  C   UNL     1      -6.306  -5.537 134.393  0.00  0.00    +0.000 C 
ATOM     15  C   UNL     1      -6.917  -4.799 135.531  0.00  0.00    +0.000 C 
ATOM     16  O   UNL     1      -6.393  -4.483 136.590  0.00  0.00    +0.000 OA
ATOM     17  C   UNL     1      -8.285  -4.288 135.178  0.00  0.00    +0.000 C 
ATOM     18  C   UNL     1      -7.718  -3.280 134.461  0.00  0.00    +0.000 C 
ATOM     19  C   UNL     1      -6.437  -3.279 133.429  0.00  0.00    +0.000 C 
ATOM     20  C   UNL     1      -5.145  -2.486 133.677  0.00  0.00    +0.000 C 
ENDROOT
BRANCH   4  21
ATOM     21  O   UNL     1      -5.190  -1.289 128.825  0.00  0.00    +0.000 OA
ATOM     22  H   UNL     1      -4.443  -0.725 129.093  0.00  0.00    +0.000 HD
ENDBRANCH   4  21
BRANCH   4  23
ATOM     23  C   UNL     1      -6.288   0.750 129.546  0.00  0.00    +0.000 C 
ATOM     24  O   UNL     1      -7.190   1.541 129.810  0.00  0.00    +0.000 OA
BRANCH  23  25
ATOM     25  O   UNL     1      -5.131   1.311 128.976  0.00  0.00    +0.000 OA
BRANCH  25  26
ATOM     26  C   UNL     1      -5.451   2.100 127.736  0.00  0.00    +0.000 C 
ATOM     27 CL   UNL     1      -4.888   1.319 126.223  0.00  0.00    +0.000 Cl
ENDBRANCH  25  26
ENDBRANCH  23  25
ENDBRANCH   4  23
BRANCH   8  28
ATOM     28  O   UNL     1      -6.252  -0.313 132.061  0.00  0.00    +0.000 OA
ATOM     29  H   UNL     1      -6.021  -0.162 132.999  0.00  0.00    +0.000 HD
ENDBRANCH   8  28
TORSDOF 5
ENDMDL
MODEL 7
REMARK VINA RESULT:      -7.1      2.612      3.320
REMARK  Name = Loteprednol
REMARK  7 active torsions:
REMARK  status: ('A' for Active; 'I' for Inactive)
REMARK    1  A    between atoms: C_5  and  O_6
REMARK    2  A    between atoms: C_5  and  C_7
REMARK    3  A    between atoms: C_7  and  O_9
REMARK    4  A    between atoms: O_9  and  C_10
REMARK    5  A    between atoms: C_12  and  C_13
REMARK    6  A    between atoms: C_15  and  O_16
REMARK    7  A    between atoms: C_29  and  C_30
REMARK                            x       y       z     vdW  Elec       q    Type
REMARK                         _______ _______ _______ _____ _____    ______ ____
ROOT
ATOM      1  C   UNL     1      -6.862   0.454 129.674  0.00  0.00    +0.000 C 
ATOM      2  C   UNL     1      -5.499   0.062 129.683  0.00  0.00    +0.000 C 
ATOM      3  C   UNL     1      -5.909   1.027 128.606  0.00  0.00    +0.000 C 
ATOM      4  C   UNL     1      -7.674   2.073 128.878  0.00  0.00    +0.000 C 
ATOM      5  C   UNL     1      -6.423   2.277 129.330  0.00  0.00    +0.000 C 
ATOM      6  C   UNL     1      -5.956   2.997 130.534  0.00  0.00    +0.000 C 
ATOM      7  C   UNL     1      -6.220   2.815 127.534  0.00  0.00    +0.000 C 
ATOM      8  C   UNL     1      -7.199   1.844 126.494  0.00  0.00    +0.000 C 
ATOM      9  C   UNL     1      -7.269   0.195 126.682  0.00  0.00    +0.000 C 
ATOM     10  C   UNL     1      -7.740  -0.290 128.257  0.00  0.00    +0.000 C 
ATOM     11  C   UNL     1      -7.595  -1.790 128.417  0.00  0.00    +0.000 C 
ATOM     12  C   UNL     1      -8.277  -2.556 127.306  0.00  0.00    +0.000 C 
ATOM     13  C   UNL     1      -7.947  -2.132 125.902  0.00  0.00    +0.000 C 
ATOM     14  C   UNL     1      -7.716  -3.005 124.903  0.00  0.00    +0.000 C 
ATOM     15  C   UNL     1      -7.579  -2.356 123.572  0.00  0.00    +0.000 C 
ATOM     16  O   UNL     1      -8.390  -2.341 122.657  0.00  0.00    +0.000 OA
ATOM     17  C   UNL     1      -6.335  -1.516 123.499  0.00  0.00    +0.000 C 
ATOM     18  C   UNL     1      -6.956  -0.544 124.222  0.00  0.00    +0.000 C 
ATOM     19  C   UNL     1      -7.930  -0.641 125.545  0.00  0.00    +0.000 C 
ATOM     20  C   UNL     1      -9.398  -0.192 125.554  0.00  0.00    +0.000 C 
ENDROOT
BRANCH   4  21
ATOM     21  O   UNL     1      -8.552   1.786 130.065  0.00  0.00    +0.000 OA
ATOM     22  H   UNL     1      -8.619   0.831 130.245  0.00  0.00    +0.000 HD
ENDBRANCH   4  21
BRANCH   4  23
ATOM     23  C   UNL     1      -8.182   3.860 128.863  0.00  0.00    +0.000 C 
ATOM     24  O   UNL     1      -7.841   4.694 128.028  0.00  0.00    +0.000 OA
BRANCH  23  25
ATOM     25  O   UNL     1      -8.942   4.351 129.941  0.00  0.00    +0.000 OA
BRANCH  25  26
ATOM     26  C   UNL     1      -9.337   5.787 129.731  0.00  0.00    +0.000 C 
ATOM     27 CL   UNL     1      -8.527   6.927 130.854  0.00  0.00    +0.000 Cl
ENDBRANCH  25  26
ENDBRANCH  23  25
ENDBRANCH   4  23
BRANCH   8  28
ATOM     28  O   UNL     1      -8.524   2.406 126.577  0.00  0.00    +0.000 OA
ATOM     29  H   UNL     1      -8.702   3.011 125.829  0.00  0.00    +0.000 HD
ENDBRANCH   8  28
TORSDOF 5
ENDMDL
MODEL 8
REMARK VINA RESULT:      -7.1      2.166      2.515
REMARK  Name = Loteprednol
REMARK  7 active torsions:
REMARK  status: ('A' for Active; 'I' for Inactive)
REMARK    1  A    between atoms: C_5  and  O_6
REMARK    2  A    between atoms: C_5  and  C_7
REMARK    3  A    between atoms: C_7  and  O_9
REMARK    4  A    between atoms: O_9  and  C_10
REMARK    5  A    between atoms: C_12  and  C_13
REMARK    6  A    between atoms: C_15  and  O_16
REMARK    7  A    between atoms: C_29  and  C_30
REMARK                            x       y       z     vdW  Elec       q    Type
REMARK                         _______ _______ _______ _____ _____    ______ ____
ROOT
ATOM      1  C   UNL     1      -6.377  -1.203 130.002  0.00  0.00    +0.000 C 
ATOM      2  C   UNL     1      -5.204  -1.997 129.925  0.00  0.00    +0.000 C 
ATOM      3  C   UNL     1      -5.317  -0.874 128.932  0.00  0.00    +0.000 C 
ATOM      4  C   UNL     1      -6.661   0.644 129.350  0.00  0.00    +0.000 C 
ATOM      5  C   UNL     1      -5.399   0.415 129.758  0.00  0.00    +0.000 C 
ATOM      6  C   UNL     1      -4.705   0.862 130.985  0.00  0.00    +0.000 C 
ATOM      7  C   UNL     1      -5.078   0.999 127.993  0.00  0.00    +0.000 C 
ATOM      8  C   UNL     1      -6.333   0.460 126.937  0.00  0.00    +0.000 C 
ATOM      9  C   UNL     1      -6.911  -1.096 127.020  0.00  0.00    +0.000 C 
ATOM     10  C   UNL     1      -7.475  -1.529 128.579  0.00  0.00    +0.000 C 
ATOM     11  C   UNL     1      -7.801  -3.008 128.634  0.00  0.00    +0.000 C 
ATOM     12  C   UNL     1      -8.712  -3.438 127.508  0.00  0.00    +0.000 C 
ATOM     13  C   UNL     1      -8.297  -3.032 126.120  0.00  0.00    +0.000 C 
ATOM     14  C   UNL     1      -8.371  -3.856 125.058  0.00  0.00    +0.000 C 
ATOM     15  C   UNL     1      -8.069  -3.182 123.767  0.00  0.00    +0.000 C 
ATOM     16  O   UNL     1      -8.854  -2.847 122.892  0.00  0.00    +0.000 OA
ATOM     17  C   UNL     1      -6.627  -2.764 123.694  0.00  0.00    +0.000 C 
ATOM     18  C   UNL     1      -6.897  -1.707 124.506  0.00  0.00    +0.000 C 
ATOM     19  C   UNL     1      -7.824  -1.597 125.861  0.00  0.00    +0.000 C 
ATOM     20  C   UNL     1      -9.078  -0.718 125.964  0.00  0.00    +0.000 C 
ENDROOT
BRANCH   4  21
ATOM     21  O   UNL     1      -7.559   0.553 130.553  0.00  0.00    +0.000 OA
ATOM     22  H   UNL     1      -8.354   0.020 130.375  0.00  0.00    +0.000 HD
ENDBRANCH   4  21
BRANCH   4  23
ATOM     23  C   UNL     1      -6.587   2.495 129.474  0.00  0.00    +0.000 C 
ATOM     24  O   UNL     1      -7.223   3.185 130.267  0.00  0.00    +0.000 OA
BRANCH  23  25
ATOM     25  O   UNL     1      -5.822   3.202 128.528  0.00  0.00    +0.000 OA
BRANCH  25  26
ATOM     26  C   UNL     1      -5.147   4.397 129.143  0.00  0.00    +0.000 C 
ATOM     27 CL   UNL     1      -3.452   4.086 129.643  0.00  0.00    +0.000 Cl
ENDBRANCH  25  26
ENDBRANCH  23  25
ENDBRANCH   4  23
BRANCH   8  28
ATOM     28  O   UNL     1      -7.415   1.397 127.116  0.00  0.00    +0.000 OA
ATOM     29  H   UNL     1      -7.335   1.875 127.965  0.00  0.00    +0.000 HD
ENDBRANCH   8  28
TORSDOF 5
ENDMDL
MODEL 9
REMARK VINA RESULT:      -7.1      2.811      6.562
REMARK  Name = Loteprednol
REMARK  7 active torsions:
REMARK  status: ('A' for Active; 'I' for Inactive)
REMARK    1  A    between atoms: C_5  and  O_6
REMARK    2  A    between atoms: C_5  and  C_7
REMARK    3  A    between atoms: C_7  and  O_9
REMARK    4  A    between atoms: O_9  and  C_10
REMARK    5  A    between atoms: C_12  and  C_13
REMARK    6  A    between atoms: C_15  and  O_16
REMARK    7  A    between atoms: C_29  and  C_30
REMARK                            x       y       z     vdW  Elec       q    Type
REMARK                         _______ _______ _______ _____ _____    ______ ____
ROOT
ATOM      1  C   UNL     1      -6.472  -2.716 129.656  0.00  0.00    +0.000 C 
ATOM      2  C   UNL     1      -7.561  -3.509 129.211  0.00  0.00    +0.000 C 
ATOM      3  C   UNL     1      -7.872  -2.471 130.253  0.00  0.00    +0.000 C 
ATOM      4  C   UNL     1      -6.513  -0.931 130.507  0.00  0.00    +0.000 C 
ATOM      5  C   UNL     1      -7.512  -1.119 129.626  0.00  0.00    +0.000 C 
ATOM      6  C   UNL     1      -7.691  -0.570 128.264  0.00  0.00    +0.000 C 
ATOM      7  C   UNL     1      -8.506  -0.681 131.167  0.00  0.00    +0.000 C 
ATOM      8  C   UNL     1      -7.742  -1.310 132.583  0.00  0.00    +0.000 C 
ATOM      9  C   UNL     1      -7.135  -2.856 132.609  0.00  0.00    +0.000 C 
ATOM     10  C   UNL     1      -6.000  -3.163 131.362  0.00  0.00    +0.000 C 
ATOM     11  C   UNL     1      -5.638  -4.634 131.324  0.00  0.00    +0.000 C 
ATOM     12  C   UNL     1      -5.221  -5.159 132.679  0.00  0.00    +0.000 C 
ATOM     13  C   UNL     1      -6.151  -4.866 133.824  0.00  0.00    +0.000 C 
ATOM     14  C   UNL     1      -6.470  -5.774 134.765  0.00  0.00    +0.000 C 
ATOM     15  C   UNL     1      -7.267  -5.207 135.886  0.00  0.00    +0.000 C 
ATOM     16  O   UNL     1      -6.890  -4.948 137.020  0.00  0.00    +0.000 OA
ATOM     17  C   UNL     1      -8.636  -4.790 135.426  0.00  0.00    +0.000 C 
ATOM     18  C   UNL     1      -8.102  -3.670 134.867  0.00  0.00    +0.000 C 
ATOM     19  C   UNL     1      -6.727  -3.454 133.989  0.00  0.00    +0.000 C 
ATOM     20  C   UNL     1      -5.555  -2.575 134.448  0.00  0.00    +0.000 C 
ENDROOT
BRANCH   4  21
ATOM     21  O   UNL     1      -5.218  -0.926 129.742  0.00  0.00    +0.000 OA
ATOM     22  H   UNL     1      -4.679  -1.715 129.934  0.00  0.00    +0.000 HD
ENDBRANCH   4  21
BRANCH   4  23
ATOM     23  C   UNL     1      -6.584   0.925 130.507  0.00  0.00    +0.000 C 
ATOM     24  O   UNL     1      -5.651   1.677 130.235  0.00  0.00    +0.000 OA
BRANCH  23  25
ATOM     25  O   UNL     1      -7.765   1.552 130.946  0.00  0.00    +0.000 OA
BRANCH  25  26
ATOM     26  C   UNL     1      -7.469   2.747 131.810  0.00  0.00    +0.000 C 
ATOM     27 CL   UNL     1      -8.393   2.768 133.347  0.00  0.00    +0.000 Cl
ENDBRANCH  25  26
ENDBRANCH  23  25
ENDBRANCH   4  23
BRANCH   8  28
ATOM     28  O   UNL     1      -6.701  -0.366 132.910  0.00  0.00    +0.000 OA
ATOM     29  H   UNL     1      -6.986   0.553 132.731  0.00  0.00    +0.000 HD
ENDBRANCH   8  28
TORSDOF 5
ENDMDL
