MODEL 1
REMARK VINA RESULT:      -8.5      0.000      0.000
REMARK  Name = Loteprednol etabonate
REMARK  11 active torsions:
REMARK  status: ('A' for Active; 'I' for Inactive)
REMARK    1  A    between atoms: C_5  and  O_6
REMARK    2  A    between atoms: C_5  and  C_12
REMARK    3  A    between atoms: O_6  and  C_7
REMARK    4  A    between atoms: C_7  and  O_9
REMARK    5  A    between atoms: O_9  and  C_10
REMARK    6  A    between atoms: C_10  and  C_11
REMARK    7  A    between atoms: C_12  and  O_14
REMARK    8  A    between atoms: O_14  and  C_15
REMARK    9  A    between atoms: C_17  and  C_18
REMARK   10  A    between atoms: C_20  and  O_21
REMARK   11  A    between atoms: C_34  and  C_35
REMARK                            x       y       z     vdW  Elec       q    Type
REMARK                         _______ _______ _______ _____ _____    ______ ____
ROOT
ATOM      1  C   UNL     1      -5.905  -4.076 131.158  0.00  0.00    +0.000 C 
ATOM      2  C   UNL     1      -5.604  -5.381 130.691  0.00  0.00    +0.000 C 
ATOM      3  C   UNL     1      -4.779  -4.234 130.214  0.00  0.00    +0.000 C 
ATOM      4  C   UNL     1      -4.880  -2.475 131.307  0.00  0.00    +0.000 C 
ATOM      5  C   UNL     1      -4.103  -3.583 131.442  0.00  0.00    +0.000 C 
ATOM      6  C   UNL     1      -3.547  -4.162 132.690  0.00  0.00    +0.000 C 
ATOM      7  C   UNL     1      -3.167  -2.869 129.988  0.00  0.00    +0.000 C 
ATOM      8  C   UNL     1      -4.219  -2.022 128.936  0.00  0.00    +0.000 C 
ATOM      9  C   UNL     1      -5.689  -2.659 128.485  0.00  0.00    +0.000 C 
ATOM     10  C   UNL     1      -6.656  -3.055 129.799  0.00  0.00    +0.000 C 
ATOM     11  C   UNL     1      -7.931  -3.765 129.387  0.00  0.00    +0.000 C 
ATOM     12  C   UNL     1      -8.672  -3.020 128.305  0.00  0.00    +0.000 C 
ATOM     13  C   UNL     1      -7.845  -2.618 127.119  0.00  0.00    +0.000 C 
ATOM     14  C   UNL     1      -8.266  -2.765 125.850  0.00  0.00    +0.000 C 
ATOM     15  C   UNL     1      -7.349  -2.151 124.857  0.00  0.00    +0.000 C 
ATOM     16  O   UNL     1      -7.512  -1.116 124.227  0.00  0.00    +0.000 OA
ATOM     17  C   UNL     1      -6.029  -2.874 124.807  0.00  0.00    +0.000 C 
ATOM     18  C   UNL     1      -5.650  -2.248 125.953  0.00  0.00    +0.000 C 
ATOM     19  C   UNL     1      -6.477  -1.955 127.336  0.00  0.00    +0.000 C 
ATOM     20  C   UNL     1      -6.779  -0.541 127.861  0.00  0.00    +0.000 C 
ENDROOT
BRANCH   4  21
ATOM     21  C   UNL     1      -3.595  -1.337 132.059  0.00  0.00    +0.000 C 
ATOM     22  O   UNL     1      -3.693  -0.109 132.099  0.00  0.00    +0.000 OA
BRANCH  21  23
ATOM     23  O   UNL     1      -2.394  -1.834 132.584  0.00  0.00    +0.000 OA
BRANCH  23  24
ATOM     24  C   UNL     1      -1.886  -1.017 133.756  0.00  0.00    +0.000 C 
ATOM     25 CL   UNL     1      -0.161  -1.326 134.151  0.00  0.00    +0.000 Cl
ENDBRANCH  23  24
ENDBRANCH  21  23
ENDBRANCH   4  21
BRANCH   8  26
ATOM     26  O   UNL     1      -4.385  -0.725 129.537  0.00  0.00    +0.000 OA
ATOM     27  H   UNL     1      -3.704  -0.089 129.243  0.00  0.00    +0.000 HD
ENDBRANCH   8  26
BRANCH   4  28
ATOM     28  O   UNL     1      -5.768  -2.384 132.710  0.00  0.00    +0.000 OA
BRANCH  28  29
ATOM     29  C   UNL     1      -6.755  -1.458 133.029  0.00  0.00    +0.000 C 
ATOM     30  O   UNL     1      -7.108  -0.535 132.315  0.00  0.00    +0.000 OA
BRANCH  29  31
ATOM     31  O   UNL     1      -7.513  -1.817 134.124  0.00  0.00    +0.000 OA
BRANCH  31  32
ATOM     32  C   UNL     1      -8.261  -3.031 133.824  0.00  0.00    +0.000 C 
ATOM     33  C   UNL     1      -8.016  -4.179 134.783  0.00  0.00    +0.000 C 
ENDBRANCH  31  32
ENDBRANCH  29  31
ENDBRANCH  28  29
ENDBRANCH   4  28
TORSDOF 8
ENDMDL
MODEL 2
REMARK VINA RESULT:      -8.4      7.444     10.401
REMARK  Name = Loteprednol etabonate
REMARK  11 active torsions:
REMARK  status: ('A' for Active; 'I' for Inactive)
REMARK    1  A    between atoms: C_5  and  O_6
REMARK    2  A    between atoms: C_5  and  C_12
REMARK    3  A    between atoms: O_6  and  C_7
REMARK    4  A    between atoms: C_7  and  O_9
REMARK    5  A    between atoms: O_9  and  C_10
REMARK    6  A    between atoms: C_10  and  C_11
REMARK    7  A    between atoms: C_12  and  O_14
REMARK    8  A    between atoms: O_14  and  C_15
REMARK    9  A    between atoms: C_17  and  C_18
REMARK   10  A    between atoms: C_20  and  O_21
REMARK   11  A    between atoms: C_34  and  C_35
REMARK                            x       y       z     vdW  Elec       q    Type
REMARK                         _______ _______ _______ _____ _____    ______ ____
ROOT
ATOM      1  C   UNL     1      -7.424   3.372 129.842  0.00  0.00    +0.000 C 
ATOM      2  C   UNL     1      -7.327   2.442 130.908  0.00  0.00    +0.000 C 
ATOM      3  C   UNL     1      -7.642   3.866 131.217  0.00  0.00    +0.000 C 
ATOM      4  C   UNL     1      -8.309   5.050 129.651  0.00  0.00    +0.000 C 
ATOM      5  C   UNL     1      -8.968   4.230 130.512  0.00  0.00    +0.000 C 
ATOM      6  C   UNL     1     -10.204   3.448 130.262  0.00  0.00    +0.000 C 
ATOM      7  C   UNL     1      -8.717   5.625 131.733  0.00  0.00    +0.000 C 
ATOM      8  C   UNL     1      -7.240   6.441 131.437  0.00  0.00    +0.000 C 
ATOM      9  C   UNL     1      -5.833   5.605 131.140  0.00  0.00    +0.000 C 
ATOM     10  C   UNL     1      -5.973   4.533 129.855  0.00  0.00    +0.000 C 
ATOM     11  C   UNL     1      -4.737   3.673 129.681  0.00  0.00    +0.000 C 
ATOM     12  C   UNL     1      -3.473   4.495 129.636  0.00  0.00    +0.000 C 
ATOM     13  C   UNL     1      -3.313   5.489 130.749  0.00  0.00    +0.000 C 
ATOM     14  C   UNL     1      -2.156   5.664 131.413  0.00  0.00    +0.000 C 
ATOM     15  C   UNL     1      -2.194   6.809 132.357  0.00  0.00    +0.000 C 
ATOM     16  O   UNL     1      -1.666   7.904 132.226  0.00  0.00    +0.000 OA
ATOM     17  C   UNL     1      -3.143   6.551 133.497  0.00  0.00    +0.000 C 
ATOM     18  C   UNL     1      -4.192   6.835 132.680  0.00  0.00    +0.000 C 
ATOM     19  C   UNL     1      -4.490   6.399 131.130  0.00  0.00    +0.000 C 
ATOM     20  C   UNL     1      -4.626   7.407 129.975  0.00  0.00    +0.000 C 
ENDROOT
BRANCH   4  21
ATOM     21  C   UNL     1      -9.782   6.184 129.415  0.00  0.00    +0.000 C 
ATOM     22  O   UNL     1     -10.952   5.800 129.359  0.00  0.00    +0.000 OA
BRANCH  21  23
ATOM     23  O   UNL     1      -9.622   7.563 129.230  0.00  0.00    +0.000 OA
BRANCH  23  24
ATOM     24  C   UNL     1     -10.557   8.124 128.175  0.00  0.00    +0.000 C 
ATOM     25 CL   UNL     1     -12.019   8.913 128.860  0.00  0.00    +0.000 Cl
ENDBRANCH  23  24
ENDBRANCH  21  23
ENDBRANCH   4  21
BRANCH   8  26
ATOM     26  O   UNL     1      -7.528   7.358 130.364  0.00  0.00    +0.000 OA
ATOM     27  H   UNL     1      -8.445   7.691 130.397  0.00  0.00    +0.000 HD
ENDBRANCH   8  26
BRANCH   4  28
ATOM     28  O   UNL     1      -8.572   4.409 128.139  0.00  0.00    +0.000 OA
BRANCH  28  29
ATOM     29  C   UNL     1      -8.252   4.977 126.911  0.00  0.00    +0.000 C 
ATOM     30  O   UNL     1      -9.012   5.637 126.224  0.00  0.00    +0.000 OA
BRANCH  29  31
ATOM     31  O   UNL     1      -6.900   4.964 126.635  0.00  0.00    +0.000 OA
BRANCH  31  32
ATOM     32  C   UNL     1      -6.510   3.641 126.167  0.00  0.00    +0.000 C 
ATOM     33  C   UNL     1      -5.017   3.455 125.968  0.00  0.00    +0.000 C 
ENDBRANCH  31  32
ENDBRANCH  29  31
ENDBRANCH  28  29
ENDBRANCH   4  28
TORSDOF 8
ENDMDL
MODEL 3
REMARK VINA RESULT:      -8.4      1.966      2.653
REMARK  Name = Loteprednol etabonate
REMARK  11 active torsions:
REMARK  status: ('A' for Active; 'I' for Inactive)
REMARK    1  A    between atoms: C_5  and  O_6
REMARK    2  A    between atoms: C_5  and  C_12
REMARK    3  A    between atoms: O_6  and  C_7
REMARK    4  A    between atoms: C_7  and  O_9
REMARK    5  A    between atoms: O_9  and  C_10
REMARK    6  A    between atoms: C_10  and  C_11
REMARK    7  A    between atoms: C_12  and  O_14
REMARK    8  A    between atoms: O_14  and  C_15
REMARK    9  A    between atoms: C_17  and  C_18
REMARK   10  A    between atoms: C_20  and  O_21
REMARK   11  A    between atoms: C_34  and  C_35
REMARK                            x       y       z     vdW  Elec       q    Type
REMARK                         _______ _______ _______ _____ _____    ______ ____
ROOT
ATOM      1  C   UNL     1      -6.538  -3.487 130.644  0.00  0.00    +0.000 C 
ATOM      2  C   UNL     1      -5.948  -4.764 130.464  0.00  0.00    +0.000 C 
ATOM      3  C   UNL     1      -5.289  -3.571 129.860  0.00  0.00    +0.000 C 
ATOM      4  C   UNL     1      -5.849  -1.710 130.584  0.00  0.00    +0.000 C 
ATOM      5  C   UNL     1      -4.909  -2.600 131.000  0.00  0.00    +0.000 C 
ATOM      6  C   UNL     1      -4.425  -2.838 132.383  0.00  0.00    +0.000 C 
ATOM      7  C   UNL     1      -3.935  -1.966 129.534  0.00  0.00    +0.000 C 
ATOM      8  C   UNL     1      -4.977  -1.537 128.244  0.00  0.00    +0.000 C 
ATOM      9  C   UNL     1      -6.235  -2.524 127.784  0.00  0.00    +0.000 C 
ATOM     10  C   UNL     1      -7.278  -2.882 129.050  0.00  0.00    +0.000 C 
ATOM     11  C   UNL     1      -8.338  -3.893 128.660  0.00  0.00    +0.000 C 
ATOM     12  C   UNL     1      -9.054  -3.505 127.390  0.00  0.00    +0.000 C 
ATOM     13  C   UNL     1      -8.165  -3.149 126.234  0.00  0.00    +0.000 C 
ATOM     14  C   UNL     1      -8.383  -3.589 124.981  0.00  0.00    +0.000 C 
ATOM     15  C   UNL     1      -7.470  -2.977 123.982  0.00  0.00    +0.000 C 
ATOM     16  O   UNL     1      -7.735  -2.117 123.155  0.00  0.00    +0.000 OA
ATOM     17  C   UNL     1      -6.046  -3.417 124.198  0.00  0.00    +0.000 C 
ATOM     18  C   UNL     1      -5.940  -2.544 125.235  0.00  0.00    +0.000 C 
ATOM     19  C   UNL     1      -6.980  -2.197 126.452  0.00  0.00    +0.000 C 
ATOM     20  C   UNL     1      -7.600  -0.805 126.667  0.00  0.00    +0.000 C 
ENDROOT
BRANCH   4  21
ATOM     21  C   UNL     1      -4.901  -0.227 131.226  0.00  0.00    +0.000 C 
ATOM     22  O   UNL     1      -4.061  -0.276 132.127  0.00  0.00    +0.000 OA
BRANCH  21  23
ATOM     23  O   UNL     1      -5.144   1.064 130.738  0.00  0.00    +0.000 OA
BRANCH  23  24
ATOM     24  C   UNL     1      -5.085   2.120 131.825  0.00  0.00    +0.000 C 
ATOM     25 CL   UNL     1      -3.650   3.195 131.703  0.00  0.00    +0.000 Cl
ENDBRANCH  23  24
ENDBRANCH  21  23
ENDBRANCH   4  21
BRANCH   8  26
ATOM     26  O   UNL     1      -5.452  -0.218 128.570  0.00  0.00    +0.000 OA
ATOM     27  H   UNL     1      -6.425  -0.154 128.534  0.00  0.00    +0.000 HD
ENDBRANCH   8  26
BRANCH   4  28
ATOM     28  O   UNL     1      -6.915  -1.567 131.852  0.00  0.00    +0.000 OA
BRANCH  28  29
ATOM     29  C   UNL     1      -7.828  -0.542 132.080  0.00  0.00    +0.000 C 
ATOM     30  O   UNL     1      -7.809   0.215 133.034  0.00  0.00    +0.000 OA
BRANCH  29  31
ATOM     31  O   UNL     1      -8.624  -0.264 130.988  0.00  0.00    +0.000 OA
BRANCH  31  32
ATOM     32  C   UNL     1      -8.699   1.178 130.793  0.00  0.00    +0.000 C 
ATOM     33  C   UNL     1      -8.370   1.644 129.387  0.00  0.00    +0.000 C 
ENDBRANCH  31  32
ENDBRANCH  29  31
ENDBRANCH  28  29
ENDBRANCH   4  28
TORSDOF 8
ENDMDL
MODEL 4
REMARK VINA RESULT:      -7.9      7.076     10.373
REMARK  Name = Loteprednol etabonate
REMARK  11 active torsions:
REMARK  status: ('A' for Active; 'I' for Inactive)
REMARK    1  A    between atoms: C_5  and  O_6
REMARK    2  A    between atoms: C_5  and  C_12
REMARK    3  A    between atoms: O_6  and  C_7
REMARK    4  A    between atoms: C_7  and  O_9
REMARK    5  A    between atoms: O_9  and  C_10
REMARK    6  A    between atoms: C_10  and  C_11
REMARK    7  A    between atoms: C_12  and  O_14
REMARK    8  A    between atoms: O_14  and  C_15
REMARK    9  A    between atoms: C_17  and  C_18
REMARK   10  A    between atoms: C_20  and  O_21
REMARK   11  A    between atoms: C_34  and  C_35
REMARK                            x       y       z     vdW  Elec       q    Type
REMARK                         _______ _______ _______ _____ _____    ______ ____
ROOT
ATOM      1  C   UNL     1      -8.580   2.948 130.933  0.00  0.00    +0.000 C 
ATOM      2  C   UNL     1      -9.072   2.146 131.994  0.00  0.00    +0.000 C 
ATOM      3  C   UNL     1      -9.112   3.629 132.131  0.00  0.00    +0.000 C 
ATOM      4  C   UNL     1      -8.912   4.748 130.396  0.00  0.00    +0.000 C 
ATOM      5  C   UNL     1      -9.998   4.195 130.999  0.00  0.00    +0.000 C 
ATOM      6  C   UNL     1     -11.235   3.681 130.359  0.00  0.00    +0.000 C 
ATOM      7  C   UNL     1      -9.830   5.628 132.189  0.00  0.00    +0.000 C 
ATOM      8  C   UNL     1      -8.186   6.061 132.400  0.00  0.00    +0.000 C 
ATOM      9  C   UNL     1      -7.011   4.907 132.635  0.00  0.00    +0.000 C 
ATOM     10  C   UNL     1      -6.977   3.755 131.415  0.00  0.00    +0.000 C 
ATOM     11  C   UNL     1      -6.004   2.630 131.706  0.00  0.00    +0.000 C 
ATOM     12  C   UNL     1      -4.636   3.143 132.079  0.00  0.00    +0.000 C 
ATOM     13  C   UNL     1      -4.613   4.197 133.148  0.00  0.00    +0.000 C 
ATOM     14  C   UNL     1      -3.734   4.186 134.167  0.00  0.00    +0.000 C 
ATOM     15  C   UNL     1      -3.799   5.410 135.004  0.00  0.00    +0.000 C 
ATOM     16  O   UNL     1      -3.007   6.340 135.033  0.00  0.00    +0.000 OA
ATOM     17  C   UNL     1      -5.104   5.496 135.751  0.00  0.00    +0.000 C 
ATOM     18  C   UNL     1      -5.721   5.912 134.612  0.00  0.00    +0.000 C 
ATOM     19  C   UNL     1      -5.589   5.380 133.069  0.00  0.00    +0.000 C 
ATOM     20  C   UNL     1      -5.083   6.257 131.910  0.00  0.00    +0.000 C 
ENDROOT
BRANCH   4  21
ATOM     21  C   UNL     1      -9.899   6.144 129.630  0.00  0.00    +0.000 C 
ATOM     22  O   UNL     1      -9.442   7.260 129.377  0.00  0.00    +0.000 OA
BRANCH  21  23
ATOM     23  O   UNL     1     -11.264   6.005 129.345  0.00  0.00    +0.000 OA
BRANCH  23  24
ATOM     24  C   UNL     1     -12.042   7.287 129.570  0.00  0.00    +0.000 C 
ATOM     25 CL   UNL     1     -12.905   7.335 131.145  0.00  0.00    +0.000 Cl
ENDBRANCH  23  24
ENDBRANCH  21  23
ENDBRANCH   4  21
BRANCH   8  26
ATOM     26  O   UNL     1      -7.870   6.892 131.268  0.00  0.00    +0.000 OA
ATOM     27  H   UNL     1      -6.957   7.237 131.303  0.00  0.00    +0.000 HD
ENDBRANCH   8  26
BRANCH   4  28
ATOM     28  O   UNL     1      -8.811   4.014 128.907  0.00  0.00    +0.000 OA
BRANCH  28  29
ATOM     29  C   UNL     1      -7.875   4.255 127.907  0.00  0.00    +0.000 C 
ATOM     30  O   UNL     1      -6.760   3.767 127.857  0.00  0.00    +0.000 OA
BRANCH  29  31
ATOM     31  O   UNL     1      -8.402   4.897 126.805  0.00  0.00    +0.000 OA
BRANCH  31  32
ATOM     32  C   UNL     1      -7.696   4.466 125.605  0.00  0.00    +0.000 C 
ATOM     33  C   UNL     1      -8.423   3.418 124.785  0.00  0.00    +0.000 C 
ENDBRANCH  31  32
ENDBRANCH  29  31
ENDBRANCH  28  29
ENDBRANCH   4  28
TORSDOF 8
ENDMDL
MODEL 5
REMARK VINA RESULT:      -7.8      3.821      6.094
REMARK  Name = Loteprednol etabonate
REMARK  11 active torsions:
REMARK  status: ('A' for Active; 'I' for Inactive)
REMARK    1  A    between atoms: C_5  and  O_6
REMARK    2  A    between atoms: C_5  and  C_12
REMARK    3  A    between atoms: O_6  and  C_7
REMARK    4  A    between atoms: C_7  and  O_9
REMARK    5  A    between atoms: O_9  and  C_10
REMARK    6  A    between atoms: C_10  and  C_11
REMARK    7  A    between atoms: C_12  and  O_14
REMARK    8  A    between atoms: O_14  and  C_15
REMARK    9  A    between atoms: C_17  and  C_18
REMARK   10  A    between atoms: C_20  and  O_21
REMARK   11  A    between atoms: C_34  and  C_35
REMARK                            x       y       z     vdW  Elec       q    Type
REMARK                         _______ _______ _______ _____ _____    ______ ____
ROOT
ATOM      1  C   UNL     1      -5.262   1.510 127.301  0.00  0.00    +0.000 C 
ATOM      2  C   UNL     1      -4.378   1.816 126.235  0.00  0.00    +0.000 C 
ATOM      3  C   UNL     1      -5.828   2.126 126.083  0.00  0.00    +0.000 C 
ATOM      4  C   UNL     1      -6.971   2.183 127.813  0.00  0.00    +0.000 C 
ATOM      5  C   UNL     1      -6.224   3.132 127.188  0.00  0.00    +0.000 C 
ATOM      6  C   UNL     1      -5.493   4.269 127.801  0.00  0.00    +0.000 C 
ATOM      7  C   UNL     1      -7.660   3.200 125.990  0.00  0.00    +0.000 C 
ATOM      8  C   UNL     1      -8.388   1.660 125.817  0.00  0.00    +0.000 C 
ATOM      9  C   UNL     1      -7.471   0.286 125.621  0.00  0.00    +0.000 C 
ATOM     10  C   UNL     1      -6.350   0.071 126.853  0.00  0.00    +0.000 C 
ATOM     11  C   UNL     1      -5.423  -1.100 126.595  0.00  0.00    +0.000 C 
ATOM     12  C   UNL     1      -6.180  -2.359 126.253  0.00  0.00    +0.000 C 
ATOM     13  C   UNL     1      -7.215  -2.215 125.176  0.00  0.00    +0.000 C 
ATOM     14  C   UNL     1      -7.363  -3.107 124.180  0.00  0.00    +0.000 C 
ATOM     15  C   UNL     1      -8.551  -2.839 123.330  0.00  0.00    +0.000 C 
ATOM     16  O   UNL     1      -9.612  -3.446 123.314  0.00  0.00    +0.000 OA
ATOM     17  C   UNL     1      -8.391  -1.560 122.550  0.00  0.00    +0.000 C 
ATOM     18  C   UNL     1      -8.689  -0.848 123.669  0.00  0.00    +0.000 C 
ATOM     19  C   UNL     1      -8.198  -1.035 125.220  0.00  0.00    +0.000 C 
ATOM     20  C   UNL     1      -9.158  -1.339 126.384  0.00  0.00    +0.000 C 
ENDROOT
BRANCH   4  21
ATOM     21  C   UNL     1      -8.163   3.431 128.542  0.00  0.00    +0.000 C 
ATOM     22  O   UNL     1      -7.946   4.643 128.609  0.00  0.00    +0.000 OA
BRANCH  21  23
ATOM     23  O   UNL     1      -9.378   3.034 129.117  0.00  0.00    +0.000 OA
BRANCH  23  24
ATOM     24  C   UNL     1      -9.524   3.497 130.554  0.00  0.00    +0.000 C 
ATOM     25 CL   UNL     1     -10.032   2.191 131.679  0.00  0.00    +0.000 Cl
ENDBRANCH  23  24
ENDBRANCH  21  23
ENDBRANCH   4  21
BRANCH   8  26
ATOM     26  O   UNL     1      -9.268   1.533 126.950  0.00  0.00    +0.000 OA
ATOM     27  H   UNL     1     -10.158   1.892 126.771  0.00  0.00    +0.000 HD
ENDBRANCH   8  26
BRANCH   4  28
ATOM     28  O   UNL     1      -6.275   1.987 129.310  0.00  0.00    +0.000 OA
BRANCH  28  29
ATOM     29  C   UNL     1      -6.730   1.194 130.358  0.00  0.00    +0.000 C 
ATOM     30  O   UNL     1      -6.580   1.442 131.542  0.00  0.00    +0.000 OA
BRANCH  29  31
ATOM     31  O   UNL     1      -7.616   0.213 129.961  0.00  0.00    +0.000 OA
BRANCH  31  32
ATOM     32  C   UNL     1      -7.054  -1.099 130.252  0.00  0.00    +0.000 C 
ATOM     33  C   UNL     1      -7.855  -2.265 129.706  0.00  0.00    +0.000 C 
ENDBRANCH  31  32
ENDBRANCH  29  31
ENDBRANCH  28  29
ENDBRANCH   4  28
TORSDOF 8
ENDMDL
MODEL 6
REMARK VINA RESULT:      -7.7      6.667      8.448
REMARK  Name = Loteprednol etabonate
REMARK  11 active torsions:
REMARK  status: ('A' for Active; 'I' for Inactive)
REMARK    1  A    between atoms: C_5  and  O_6
REMARK    2  A    between atoms: C_5  and  C_12
REMARK    3  A    between atoms: O_6  and  C_7
REMARK    4  A    between atoms: C_7  and  O_9
REMARK    5  A    between atoms: O_9  and  C_10
REMARK    6  A    between atoms: C_10  and  C_11
REMARK    7  A    between atoms: C_12  and  O_14
REMARK    8  A    between atoms: O_14  and  C_15
REMARK    9  A    between atoms: C_17  and  C_18
REMARK   10  A    between atoms: C_20  and  O_21
REMARK   11  A    between atoms: C_34  and  C_35
REMARK                            x       y       z     vdW  Elec       q    Type
REMARK                         _______ _______ _______ _____ _____    ______ ____
ROOT
ATOM      1  C   UNL     1      -8.342   2.526 131.895  0.00  0.00    +0.000 C 
ATOM      2  C   UNL     1      -9.450   1.642 131.859  0.00  0.00    +0.000 C 
ATOM      3  C   UNL     1      -9.031   2.327 130.603  0.00  0.00    +0.000 C 
ATOM      4  C   UNL     1      -7.129   3.152 130.563  0.00  0.00    +0.000 C 
ATOM      5  C   UNL     1      -7.581   1.901 130.282  0.00  0.00    +0.000 C 
ATOM      6  C   UNL     1      -6.866   0.612 130.455  0.00  0.00    +0.000 C 
ATOM      7  C   UNL     1      -8.178   2.680 128.690  0.00  0.00    +0.000 C 
ATOM      8  C   UNL     1      -8.645   4.309 128.940  0.00  0.00    +0.000 C 
ATOM      9  C   UNL     1      -9.578   4.751 130.245  0.00  0.00    +0.000 C 
ATOM     10  C   UNL     1      -8.907   4.287 131.712  0.00  0.00    +0.000 C 
ATOM     11  C   UNL     1      -9.827   4.564 132.884  0.00  0.00    +0.000 C 
ATOM     12  C   UNL     1     -10.337   5.983 132.885  0.00  0.00    +0.000 C 
ATOM     13  C   UNL     1     -10.923   6.456 131.586  0.00  0.00    +0.000 C 
ATOM     14  C   UNL     1     -12.071   7.154 131.513  0.00  0.00    +0.000 C 
ATOM     15  C   UNL     1     -12.366   7.649 130.144  0.00  0.00    +0.000 C 
ATOM     16  O   UNL     1     -12.267   8.792 129.725  0.00  0.00    +0.000 OA
ATOM     17  C   UNL     1     -12.660   6.512 129.201  0.00  0.00    +0.000 C 
ATOM     18  C   UNL     1     -11.329   6.247 129.115  0.00  0.00    +0.000 C 
ATOM     19  C   UNL     1     -10.172   6.193 130.273  0.00  0.00    +0.000 C 
ATOM     20  C   UNL     1      -8.952   7.132 130.298  0.00  0.00    +0.000 C 
ENDROOT
BRANCH   4  21
ATOM     21  C   UNL     1      -5.683   3.025 129.379  0.00  0.00    +0.000 C 
ATOM     22  O   UNL     1      -5.304   1.975 128.855  0.00  0.00    +0.000 OA
BRANCH  21  23
ATOM     23  O   UNL     1      -4.898   4.141 129.059  0.00  0.00    +0.000 OA
BRANCH  23  24
ATOM     24  C   UNL     1      -3.412   3.869 129.196  0.00  0.00    +0.000 C 
ATOM     25 CL   UNL     1      -2.534   3.876 127.629  0.00  0.00    +0.000 Cl
ENDBRANCH  23  24
ENDBRANCH  21  23
ENDBRANCH   4  21
BRANCH   8  26
ATOM     26  O   UNL     1      -7.416   5.059 128.912  0.00  0.00    +0.000 OA
ATOM     27  H   UNL     1      -7.354   5.700 129.645  0.00  0.00    +0.000 HD
ENDBRANCH   8  26
BRANCH   4  28
ATOM     28  O   UNL     1      -6.085   2.969 131.844  0.00  0.00    +0.000 OA
BRANCH  28  29
ATOM     29  C   UNL     1      -5.513   3.972 132.620  0.00  0.00    +0.000 C 
ATOM     30  O   UNL     1      -4.882   4.920 132.187  0.00  0.00    +0.000 OA
BRANCH  29  31
ATOM     31  O   UNL     1      -5.942   3.963 133.931  0.00  0.00    +0.000 OA
BRANCH  31  32
ATOM     32  C   UNL     1      -6.407   5.294 134.302  0.00  0.00    +0.000 C 
ATOM     33  C   UNL     1      -7.353   5.326 135.487  0.00  0.00    +0.000 C 
ENDBRANCH  31  32
ENDBRANCH  29  31
ENDBRANCH  28  29
ENDBRANCH   4  28
TORSDOF 8
ENDMDL
MODEL 7
REMARK VINA RESULT:      -7.7      4.981      8.619
REMARK  Name = Loteprednol etabonate
REMARK  11 active torsions:
REMARK  status: ('A' for Active; 'I' for Inactive)
REMARK    1  A    between atoms: C_5  and  O_6
REMARK    2  A    between atoms: C_5  and  C_12
REMARK    3  A    between atoms: O_6  and  C_7
REMARK    4  A    between atoms: C_7  and  O_9
REMARK    5  A    between atoms: O_9  and  C_10
REMARK    6  A    between atoms: C_10  and  C_11
REMARK    7  A    between atoms: C_12  and  O_14
REMARK    8  A    between atoms: O_14  and  C_15
REMARK    9  A    between atoms: C_17  and  C_18
REMARK   10  A    between atoms: C_20  and  O_21
REMARK   11  A    between atoms: C_34  and  C_35
REMARK                            x       y       z     vdW  Elec       q    Type
REMARK                         _______ _______ _______ _____ _____    ______ ____
ROOT
ATOM      1  C   UNL     1      -5.456   0.654 126.266  0.00  0.00    +0.000 C 
ATOM      2  C   UNL     1      -5.327  -0.750 126.417  0.00  0.00    +0.000 C 
ATOM      3  C   UNL     1      -6.677  -0.130 126.540  0.00  0.00    +0.000 C 
ATOM      4  C   UNL     1      -6.913   1.787 125.784  0.00  0.00    +0.000 C 
ATOM      5  C   UNL     1      -7.013   0.563 125.200  0.00  0.00    +0.000 C 
ATOM      6  C   UNL     1      -6.716   0.195 123.793  0.00  0.00    +0.000 C 
ATOM      7  C   UNL     1      -8.659   0.487 126.085  0.00  0.00    +0.000 C 
ATOM      8  C   UNL     1      -8.591   1.318 127.581  0.00  0.00    +0.000 C 
ATOM      9  C   UNL     1      -7.308   1.122 128.622  0.00  0.00    +0.000 C 
ATOM     10  C   UNL     1      -5.828   1.455 127.901  0.00  0.00    +0.000 C 
ATOM     11  C   UNL     1      -4.657   1.137 128.808  0.00  0.00    +0.000 C 
ATOM     12  C   UNL     1      -4.808   1.762 130.173  0.00  0.00    +0.000 C 
ATOM     13  C   UNL     1      -6.125   1.517 130.850  0.00  0.00    +0.000 C 
ATOM     14  C   UNL     1      -6.229   1.179 132.148  0.00  0.00    +0.000 C 
ATOM     15  C   UNL     1      -7.632   1.147 132.631  0.00  0.00    +0.000 C 
ATOM     16  O   UNL     1      -8.195   1.960 133.349  0.00  0.00    +0.000 OA
ATOM     17  C   UNL     1      -8.411   0.034 131.981  0.00  0.00    +0.000 C 
ATOM     18  C   UNL     1      -8.528   0.783 130.853  0.00  0.00    +0.000 C 
ATOM     19  C   UNL     1      -7.431   1.707 130.063  0.00  0.00    +0.000 C 
ATOM     20  C   UNL     1      -7.582   3.226 129.871  0.00  0.00    +0.000 C 
ENDROOT
BRANCH   4  21
ATOM     21  C   UNL     1      -8.140   2.579 124.611  0.00  0.00    +0.000 C 
ATOM     22  O   UNL     1      -8.867   3.531 124.905  0.00  0.00    +0.000 OA
BRANCH  21  23
ATOM     23  O   UNL     1      -8.341   2.083 123.316  0.00  0.00    +0.000 OA
BRANCH  23  24
ATOM     24  C   UNL     1      -9.807   1.861 122.996  0.00  0.00    +0.000 C 
ATOM     25 CL   UNL     1     -10.170   0.202 122.410  0.00  0.00    +0.000 Cl
ENDBRANCH  23  24
ENDBRANCH  21  23
ENDBRANCH   4  21
BRANCH   8  26
ATOM     26  O   UNL     1      -8.772   2.706 127.246  0.00  0.00    +0.000 OA
ATOM     27  H   UNL     1      -8.434   3.304 127.941  0.00  0.00    +0.000 HD
ENDBRANCH   8  26
BRANCH   4  28
ATOM     28  O   UNL     1      -5.671   2.556 124.989  0.00  0.00    +0.000 OA
BRANCH  28  29
ATOM     29  C   UNL     1      -5.132   3.807 125.270  0.00  0.00    +0.000 C 
ATOM     30  O   UNL     1      -5.746   4.859 125.237  0.00  0.00    +0.000 OA
BRANCH  29  31
ATOM     31  O   UNL     1      -3.886   3.748 125.861  0.00  0.00    +0.000 OA
BRANCH  31  32
ATOM     32  C   UNL     1      -3.881   4.562 127.070  0.00  0.00    +0.000 C 
ATOM     33  C   UNL     1      -2.728   4.281 128.015  0.00  0.00    +0.000 C 
ENDBRANCH  31  32
ENDBRANCH  29  31
ENDBRANCH  28  29
ENDBRANCH   4  28
TORSDOF 8
ENDMDL
MODEL 8
REMARK VINA RESULT:      -7.7      4.830      7.910
REMARK  Name = Loteprednol etabonate
REMARK  11 active torsions:
REMARK  status: ('A' for Active; 'I' for Inactive)
REMARK    1  A    between atoms: C_5  and  O_6
REMARK    2  A    between atoms: C_5  and  C_12
REMARK    3  A    between atoms: O_6  and  C_7
REMARK    4  A    between atoms: C_7  and  O_9
REMARK    5  A    between atoms: O_9  and  C_10
REMARK    6  A    between atoms: C_10  and  C_11
REMARK    7  A    between atoms: C_12  and  O_14
REMARK    8  A    between atoms: O_14  and  C_15
REMARK    9  A    between atoms: C_17  and  C_18
REMARK   10  A    between atoms: C_20  and  O_21
REMARK   11  A    between atoms: C_34  and  C_35
REMARK                            x       y       z     vdW  Elec       q    Type
REMARK                         _______ _______ _______ _____ _____    ______ ____
ROOT
ATOM      1  C   UNL     1      -4.862   2.963 127.221  0.00  0.00    +0.000 C 
ATOM      2  C   UNL     1      -3.565   2.784 126.677  0.00  0.00    +0.000 C 
ATOM      3  C   UNL     1      -4.646   1.830 126.298  0.00  0.00    +0.000 C 
ATOM      4  C   UNL     1      -6.601   2.422 126.655  0.00  0.00    +0.000 C 
ATOM      5  C   UNL     1      -5.770   2.627 125.599  0.00  0.00    +0.000 C 
ATOM      6  C   UNL     1      -5.733   3.791 124.678  0.00  0.00    +0.000 C 
ATOM      7  C   UNL     1      -6.166   0.846 125.186  0.00  0.00    +0.000 C 
ATOM      8  C   UNL     1      -6.413  -0.073 126.610  0.00  0.00    +0.000 C 
ATOM      9  C   UNL     1      -5.387   0.057 127.913  0.00  0.00    +0.000 C 
ATOM     10  C   UNL     1      -5.235   1.635 128.467  0.00  0.00    +0.000 C 
ATOM     11  C   UNL     1      -4.193   1.768 129.558  0.00  0.00    +0.000 C 
ATOM     12  C   UNL     1      -4.397   0.766 130.667  0.00  0.00    +0.000 C 
ATOM     13  C   UNL     1      -4.566  -0.658 130.222  0.00  0.00    +0.000 C 
ATOM     14  C   UNL     1      -3.948  -1.690 130.825  0.00  0.00    +0.000 C 
ATOM     15  C   UNL     1      -4.392  -3.012 130.315  0.00  0.00    +0.000 C 
ATOM     16  O   UNL     1      -5.124  -3.820 130.869  0.00  0.00    +0.000 OA
ATOM     17  C   UNL     1      -3.970  -3.220 128.885  0.00  0.00    +0.000 C 
ATOM     18  C   UNL     1      -4.985  -2.414 128.475  0.00  0.00    +0.000 C 
ATOM     19  C   UNL     1      -5.524  -0.985 129.067  0.00  0.00    +0.000 C 
ATOM     20  C   UNL     1      -6.940  -0.780 129.632  0.00  0.00    +0.000 C 
ENDROOT
BRANCH   4  21
ATOM     21  C   UNL     1      -8.150   2.493 125.603  0.00  0.00    +0.000 C 
ATOM     22  O   UNL     1      -9.203   1.913 125.877  0.00  0.00    +0.000 OA
BRANCH  21  23
ATOM     23  O   UNL     1      -8.177   3.186 124.385  0.00  0.00    +0.000 OA
BRANCH  23  24
ATOM     24  C   UNL     1      -8.930   2.436 123.303  0.00  0.00    +0.000 C 
ATOM     25 CL   UNL     1      -8.806   3.201 121.682  0.00  0.00    +0.000 Cl
ENDBRANCH  23  24
ENDBRANCH  21  23
ENDBRANCH   4  21
BRANCH   8  26
ATOM     26  O   UNL     1      -7.773   0.197 126.999  0.00  0.00    +0.000 OA
ATOM     27  H   UNL     1      -8.419  -0.127 126.342  0.00  0.00    +0.000 HD
ENDBRANCH   8  26
BRANCH   4  28
ATOM     28  O   UNL     1      -6.946   3.938 127.248  0.00  0.00    +0.000 OA
BRANCH  28  29
ATOM     29  C   UNL     1      -7.703   4.256 128.370  0.00  0.00    +0.000 C 
ATOM     30  O   UNL     1      -8.718   3.679 128.718  0.00  0.00    +0.000 OA
BRANCH  29  31
ATOM     31  O   UNL     1      -7.068   5.125 129.233  0.00  0.00    +0.000 OA
BRANCH  31  32
ATOM     32  C   UNL     1      -7.912   5.360 130.398  0.00  0.00    +0.000 C 
ATOM     33  C   UNL     1      -7.721   6.714 131.054  0.00  0.00    +0.000 C 
ENDBRANCH  31  32
ENDBRANCH  29  31
ENDBRANCH  28  29
ENDBRANCH   4  28
TORSDOF 8
ENDMDL
MODEL 9
REMARK VINA RESULT:      -7.5      5.702      9.134
REMARK  Name = Loteprednol etabonate
REMARK  11 active torsions:
REMARK  status: ('A' for Active; 'I' for Inactive)
REMARK    1  A    between atoms: C_5  and  O_6
REMARK    2  A    between atoms: C_5  and  C_12
REMARK    3  A    between atoms: O_6  and  C_7
REMARK    4  A    between atoms: C_7  and  O_9
REMARK    5  A    between atoms: O_9  and  C_10
REMARK    6  A    between atoms: C_10  and  C_11
REMARK    7  A    between atoms: C_12  and  O_14
REMARK    8  A    between atoms: O_14  and  C_15
REMARK    9  A    between atoms: C_17  and  C_18
REMARK   10  A    between atoms: C_20  and  O_21
REMARK   11  A    between atoms: C_34  and  C_35
REMARK                            x       y       z     vdW  Elec       q    Type
REMARK                         _______ _______ _______ _____ _____    ______ ____
ROOT
ATOM      1  C   UNL     1      -4.436   3.737 126.690  0.00  0.00    +0.000 C 
ATOM      2  C   UNL     1      -3.107   3.376 126.352  0.00  0.00    +0.000 C 
ATOM      3  C   UNL     1      -3.742   2.758 127.550  0.00  0.00    +0.000 C 
ATOM      4  C   UNL     1      -5.807   2.875 127.696  0.00  0.00    +0.000 C 
ATOM      5  C   UNL     1      -4.991   1.975 127.086  0.00  0.00    +0.000 C 
ATOM      6  C   UNL     1      -5.262   1.178 125.863  0.00  0.00    +0.000 C 
ATOM      7  C   UNL     1      -4.697   1.350 128.824  0.00  0.00    +0.000 C 
ATOM      8  C   UNL     1      -4.760   2.633 129.957  0.00  0.00    +0.000 C 
ATOM      9  C   UNL     1      -3.989   4.080 129.670  0.00  0.00    +0.000 C 
ATOM     10  C   UNL     1      -4.456   4.789 128.222  0.00  0.00    +0.000 C 
ATOM     11  C   UNL     1      -3.648   6.030 127.897  0.00  0.00    +0.000 C 
ATOM     12  C   UNL     1      -3.609   7.001 129.051  0.00  0.00    +0.000 C 
ATOM     13  C   UNL     1      -3.224   6.410 130.376  0.00  0.00    +0.000 C 
ATOM     14  C   UNL     1      -2.354   7.002 131.215  0.00  0.00    +0.000 C 
ATOM     15  C   UNL     1      -2.254   6.315 132.528  0.00  0.00    +0.000 C 
ATOM     16  O   UNL     1      -2.714   6.680 133.600  0.00  0.00    +0.000 OA
ATOM     17  C   UNL     1      -1.635   4.950 132.388  0.00  0.00    +0.000 C 
ATOM     18  C   UNL     1      -2.817   4.469 131.918  0.00  0.00    +0.000 C 
ATOM     19  C   UNL     1      -3.878   5.102 130.844  0.00  0.00    +0.000 C 
ATOM     20  C   UNL     1      -5.330   5.468 131.200  0.00  0.00    +0.000 C 
ENDROOT
BRANCH   4  21
ATOM     21  C   UNL     1      -7.162   1.617 128.004  0.00  0.00    +0.000 C 
ATOM     22  O   UNL     1      -7.975   1.684 128.927  0.00  0.00    +0.000 OA
BRANCH  21  23
ATOM     23  O   UNL     1      -7.291   0.471 127.208  0.00  0.00    +0.000 OA
BRANCH  23  24
ATOM     24  C   UNL     1      -7.619  -0.769 128.018  0.00  0.00    +0.000 C 
ATOM     25 CL   UNL     1      -6.289  -1.977 128.051  0.00  0.00    +0.000 Cl
ENDBRANCH  23  24
ENDBRANCH  21  23
ENDBRANCH   4  21
BRANCH   8  26
ATOM     26  O   UNL     1      -6.162   2.840 130.209  0.00  0.00    +0.000 OA
ATOM     27  H   UNL     1      -6.338   3.689 130.659  0.00  0.00    +0.000 HD
ENDBRANCH   8  26
BRANCH   4  28
ATOM     28  O   UNL     1      -6.719   3.544 126.477  0.00  0.00    +0.000 OA
BRANCH  28  29
ATOM     29  C   UNL     1      -7.917   4.240 126.599  0.00  0.00    +0.000 C 
ATOM     30  O   UNL     1      -8.211   4.973 127.527  0.00  0.00    +0.000 OA
BRANCH  29  31
ATOM     31  O   UNL     1      -8.666   4.252 125.441  0.00  0.00    +0.000 OA
BRANCH  31  32
ATOM     32  C   UNL     1      -8.570   2.955 124.783  0.00  0.00    +0.000 C 
ATOM     33  C   UNL     1      -8.244   3.019 123.303  0.00  0.00    +0.000 C 
ENDBRANCH  31  32
ENDBRANCH  29  31
ENDBRANCH  28  29
ENDBRANCH   4  28
TORSDOF 8
ENDMDL
