MODEL 1
REMARK VINA RESULT:      -8.0      0.000      0.000
REMARK  Name = Lovastatin
REMARK  12 active torsions:
REMARK  status: ('A' for Active; 'I' for Inactive)
REMARK    1  A    between atoms: C_3  and  O_24
REMARK    2  A    between atoms: C_5  and  C_6
REMARK    3  A    between atoms: C_11  and  C_12
REMARK    4  A    between atoms: C_13  and  C_14
REMARK    5  A    between atoms: C_14  and  C_15
REMARK    6  A    between atoms: C_15  and  C_16
REMARK    7  A    between atoms: C_18  and  O_19
REMARK    8  A    between atoms: O_24  and  C_25
REMARK    9  A    between atoms: C_25  and  C_27
REMARK   10  A    between atoms: C_27  and  C_28
REMARK   11  A    between atoms: C_27  and  C_29
REMARK   12  A    between atoms: C_29  and  C_30
REMARK                            x       y       z     vdW  Elec       q    Type
REMARK                         _______ _______ _______ _____ _____    ______ ____
ROOT
ATOM      1  C   UNL     1      -6.981   3.866 131.020  0.00  0.00    +0.000 C 
ATOM      2  C   UNL     1      -5.628   4.478 130.568  0.00  0.00    +0.000 C 
ATOM      3  C   UNL     1      -4.503   3.476 130.419  0.00  0.00    +0.000 C 
ATOM      4  C   UNL     1      -4.202   2.823 131.745  0.00  0.00    +0.000 C 
ATOM      5  C   UNL     1      -3.199   3.690 132.503  0.00  0.00    +0.000 C 
ATOM      6  C   UNL     1      -5.455   2.589 132.563  0.00  0.00    +0.000 C 
ATOM      7  C   UNL     1      -6.695   3.030 132.259  0.00  0.00    +0.000 C 
ATOM      8  C   UNL     1      -7.811   2.746 133.139  0.00  0.00    +0.000 C 
ATOM      9  C   UNL     1      -9.057   3.192 132.922  0.00  0.00    +0.000 C 
ATOM     10  C   UNL     1      -9.441   4.058 131.767  0.00  0.00    +0.000 C 
ATOM     11  C   UNL     1     -10.114   3.207 130.678  0.00  0.00    +0.000 C 
ATOM     12  C   UNL     1      -8.227   4.842 131.230  0.00  0.00    +0.000 C 
ENDROOT
BRANCH  12  13
ATOM     13  C   UNL     1      -8.807   5.642 130.011  0.00  0.00    +0.000 C 
BRANCH  13  14
ATOM     14  C   UNL     1      -9.427   6.894 130.487  0.00  0.00    +0.000 C 
BRANCH  14  15
ATOM     15  C   UNL     1     -10.327   7.780 129.595  0.00  0.00    +0.000 C 
ATOM     16  C   UNL     1     -11.848   7.649 129.832  0.00  0.00    +0.000 C 
ATOM     17  C   UNL     1     -12.702   8.231 128.782  0.00  0.00    +0.000 C 
ATOM     18  C   UNL     1     -12.387   7.333 127.643  0.00  0.00    +0.000 C 
ATOM     19  C   UNL     1     -10.920   7.203 127.345  0.00  0.00    +0.000 C 
ATOM     20  O   UNL     1     -10.543   6.724 126.255  0.00  0.00    +0.000 OA
ATOM     21  O   UNL     1      -9.990   7.552 128.241  0.00  0.00    +0.000 OA
BRANCH  17  22
ATOM     22  O   UNL     1     -12.449   9.617 128.618  0.00  0.00    +0.000 OA
ATOM     23  H   UNL     1     -11.529   9.768 128.346  0.00  0.00    +0.000 HD
ENDBRANCH  17  22
ENDBRANCH  14  15
ENDBRANCH  13  14
ENDBRANCH  12  13
BRANCH   2  24
ATOM     24  O   UNL     1      -5.255   5.667 131.300  0.00  0.00    +0.000 OA
BRANCH  24  25
ATOM     25  C   UNL     1      -4.987   6.930 130.872  0.00  0.00    +0.000 C 
ATOM     26  O   UNL     1      -5.889   7.564 130.321  0.00  0.00    +0.000 OA
BRANCH  25  27
ATOM     27  C   UNL     1      -3.564   7.534 131.018  0.00  0.00    +0.000 C 
ATOM     28  C   UNL     1      -3.152   7.571 132.428  0.00  0.00    +0.000 C 
BRANCH  27  29
ATOM     29  C   UNL     1      -2.513   6.569 130.331  0.00  0.00    +0.000 C 
ATOM     30  C   UNL     1      -2.506   6.550 128.788  0.00  0.00    +0.000 C 
ENDBRANCH  27  29
ENDBRANCH  25  27
ENDBRANCH  24  25
ENDBRANCH   2  24
TORSDOF 8
ENDMDL
MODEL 2
REMARK VINA RESULT:      -7.9      5.830      7.292
REMARK  Name = Lovastatin
REMARK  12 active torsions:
REMARK  status: ('A' for Active; 'I' for Inactive)
REMARK    1  A    between atoms: C_3  and  O_24
REMARK    2  A    between atoms: C_5  and  C_6
REMARK    3  A    between atoms: C_11  and  C_12
REMARK    4  A    between atoms: C_13  and  C_14
REMARK    5  A    between atoms: C_14  and  C_15
REMARK    6  A    between atoms: C_15  and  C_16
REMARK    7  A    between atoms: C_18  and  O_19
REMARK    8  A    between atoms: O_24  and  C_25
REMARK    9  A    between atoms: C_25  and  C_27
REMARK   10  A    between atoms: C_27  and  C_28
REMARK   11  A    between atoms: C_27  and  C_29
REMARK   12  A    between atoms: C_29  and  C_30
REMARK                            x       y       z     vdW  Elec       q    Type
REMARK                         _______ _______ _______ _____ _____    ______ ____
ROOT
ATOM      1  C   UNL     1      -7.304  -1.922 127.373  0.00  0.00    +0.000 C 
ATOM      2  C   UNL     1      -6.640  -1.227 128.592  0.00  0.00    +0.000 C 
ATOM      3  C   UNL     1      -5.912  -2.164 129.531  0.00  0.00    +0.000 C 
ATOM      4  C   UNL     1      -6.875  -3.156 130.135  0.00  0.00    +0.000 C 
ATOM      5  C   UNL     1      -7.494  -2.540 131.387  0.00  0.00    +0.000 C 
ATOM      6  C   UNL     1      -7.942  -3.587 129.149  0.00  0.00    +0.000 C 
ATOM      7  C   UNL     1      -8.145  -3.065 127.920  0.00  0.00    +0.000 C 
ATOM      8  C   UNL     1      -9.214  -3.564 127.078  0.00  0.00    +0.000 C 
ATOM      9  C   UNL     1      -9.501  -3.060 125.870  0.00  0.00    +0.000 C 
ATOM     10  C   UNL     1      -8.773  -1.909 125.254  0.00  0.00    +0.000 C 
ATOM     11  C   UNL     1      -7.755  -2.424 124.224  0.00  0.00    +0.000 C 
ATOM     12  C   UNL     1      -8.117  -1.024 126.333  0.00  0.00    +0.000 C 
ENDROOT
BRANCH  12  13
ATOM     13  C   UNL     1      -7.373   0.083 125.507  0.00  0.00    +0.000 C 
BRANCH  13  14
ATOM     14  C   UNL     1      -8.297   1.201 125.227  0.00  0.00    +0.000 C 
BRANCH  14  15
ATOM     15  C   UNL     1      -7.854   2.501 124.518  0.00  0.00    +0.000 C 
ATOM     16  C   UNL     1      -6.348   2.836 124.603  0.00  0.00    +0.000 C 
ATOM     17  C   UNL     1      -5.985   4.212 124.221  0.00  0.00    +0.000 C 
ATOM     18  C   UNL     1      -6.638   4.980 125.310  0.00  0.00    +0.000 C 
ATOM     19  C   UNL     1      -8.099   4.678 125.492  0.00  0.00    +0.000 C 
ATOM     20  O   UNL     1      -8.818   5.448 126.161  0.00  0.00    +0.000 OA
ATOM     21  O   UNL     1      -8.652   3.570 124.987  0.00  0.00    +0.000 OA
BRANCH  17  22
ATOM     22  O   UNL     1      -6.375   4.499 122.888  0.00  0.00    +0.000 OA
ATOM     23  H   UNL     1      -6.367   5.457 122.726  0.00  0.00    +0.000 HD
ENDBRANCH  17  22
ENDBRANCH  14  15
ENDBRANCH  13  14
ENDBRANCH  12  13
BRANCH   2  24
ATOM     24  O   UNL     1      -7.505  -0.285 129.266  0.00  0.00    +0.000 OA
BRANCH  24  25
ATOM     25  C   UNL     1      -7.311   1.016 129.608  0.00  0.00    +0.000 C 
ATOM     26  O   UNL     1      -7.022   1.277 130.777  0.00  0.00    +0.000 OA
BRANCH  25  27
ATOM     27  C   UNL     1      -7.511   2.150 128.565  0.00  0.00    +0.000 C 
ATOM     28  C   UNL     1      -8.388   3.202 129.096  0.00  0.00    +0.000 C 
BRANCH  27  29
ATOM     29  C   UNL     1      -6.129   2.883 128.318  0.00  0.00    +0.000 C 
ATOM     30  C   UNL     1      -4.935   1.984 127.938  0.00  0.00    +0.000 C 
ENDBRANCH  27  29
ENDBRANCH  25  27
ENDBRANCH  24  25
ENDBRANCH   2  24
TORSDOF 8
ENDMDL
MODEL 3
REMARK VINA RESULT:      -7.7      1.688      2.678
REMARK  Name = Lovastatin
REMARK  12 active torsions:
REMARK  status: ('A' for Active; 'I' for Inactive)
REMARK    1  A    between atoms: C_3  and  O_24
REMARK    2  A    between atoms: C_5  and  C_6
REMARK    3  A    between atoms: C_11  and  C_12
REMARK    4  A    between atoms: C_13  and  C_14
REMARK    5  A    between atoms: C_14  and  C_15
REMARK    6  A    between atoms: C_15  and  C_16
REMARK    7  A    between atoms: C_18  and  O_19
REMARK    8  A    between atoms: O_24  and  C_25
REMARK    9  A    between atoms: C_25  and  C_27
REMARK   10  A    between atoms: C_27  and  C_28
REMARK   11  A    between atoms: C_27  and  C_29
REMARK   12  A    between atoms: C_29  and  C_30
REMARK                            x       y       z     vdW  Elec       q    Type
REMARK                         _______ _______ _______ _____ _____    ______ ____
ROOT
ATOM      1  C   UNL     1      -8.875   4.117 130.940  0.00  0.00    +0.000 C 
ATOM      2  C   UNL     1      -8.120   3.645 129.669  0.00  0.00    +0.000 C 
ATOM      3  C   UNL     1      -8.606   2.330 129.100  0.00  0.00    +0.000 C 
ATOM      4  C   UNL     1      -8.403   1.218 130.100  0.00  0.00    +0.000 C 
ATOM      5  C   UNL     1      -6.993   0.657 129.931  0.00  0.00    +0.000 C 
ATOM      6  C   UNL     1      -8.645   1.679 131.522  0.00  0.00    +0.000 C 
ATOM      7  C   UNL     1      -8.867   2.952 131.918  0.00  0.00    +0.000 C 
ATOM      8  C   UNL     1      -9.073   3.260 133.319  0.00  0.00    +0.000 C 
ATOM      9  C   UNL     1      -9.249   4.504 133.785  0.00  0.00    +0.000 C 
ATOM     10  C   UNL     1      -9.229   5.726 132.924  0.00  0.00    +0.000 C 
ATOM     11  C   UNL     1     -10.667   6.186 132.637  0.00  0.00    +0.000 C 
ATOM     12  C   UNL     1      -8.423   5.484 131.632  0.00  0.00    +0.000 C 
ENDROOT
BRANCH  12  13
ATOM     13  C   UNL     1      -8.555   6.837 130.850  0.00  0.00    +0.000 C 
BRANCH  13  14
ATOM     14  C   UNL     1      -9.397   6.640 129.653  0.00  0.00    +0.000 C 
BRANCH  14  15
ATOM     15  C   UNL     1     -10.379   7.713 129.130  0.00  0.00    +0.000 C 
ATOM     16  C   UNL     1     -11.869   7.484 129.470  0.00  0.00    +0.000 C 
ATOM     17  C   UNL     1     -12.823   8.310 128.708  0.00  0.00    +0.000 C 
ATOM     18  C   UNL     1     -12.627   7.765 127.341  0.00  0.00    +0.000 C 
ATOM     19  C   UNL     1     -11.198   7.758 126.877  0.00  0.00    +0.000 C 
ATOM     20  O   UNL     1     -10.934   7.605 125.666  0.00  0.00    +0.000 OA
ATOM     21  O   UNL     1     -10.181   7.872 127.739  0.00  0.00    +0.000 OA
BRANCH  17  22
ATOM     22  O   UNL     1     -12.584   9.693 128.906  0.00  0.00    +0.000 OA
ATOM     23  H   UNL     1     -11.634   9.866 129.013  0.00  0.00    +0.000 HD
ENDBRANCH  17  22
ENDBRANCH  14  15
ENDBRANCH  13  14
ENDBRANCH  12  13
BRANCH   2  24
ATOM     24  O   UNL     1      -6.681   3.734 129.782  0.00  0.00    +0.000 OA
BRANCH  24  25
ATOM     25  C   UNL     1      -5.810   4.681 129.346  0.00  0.00    +0.000 C 
ATOM     26  O   UNL     1      -5.869   5.033 128.166  0.00  0.00    +0.000 OA
BRANCH  25  27
ATOM     27  C   UNL     1      -4.725   5.261 130.295  0.00  0.00    +0.000 C 
ATOM     28  C   UNL     1      -4.981   6.678 130.580  0.00  0.00    +0.000 C 
BRANCH  27  29
ATOM     29  C   UNL     1      -4.834   4.553 131.707  0.00  0.00    +0.000 C 
ATOM     30  C   UNL     1      -5.169   5.465 132.906  0.00  0.00    +0.000 C 
ENDBRANCH  27  29
ENDBRANCH  25  27
ENDBRANCH  24  25
ENDBRANCH   2  24
TORSDOF 8
ENDMDL
MODEL 4
REMARK VINA RESULT:      -7.7      5.502      7.214
REMARK  Name = Lovastatin
REMARK  12 active torsions:
REMARK  status: ('A' for Active; 'I' for Inactive)
REMARK    1  A    between atoms: C_3  and  O_24
REMARK    2  A    between atoms: C_5  and  C_6
REMARK    3  A    between atoms: C_11  and  C_12
REMARK    4  A    between atoms: C_13  and  C_14
REMARK    5  A    between atoms: C_14  and  C_15
REMARK    6  A    between atoms: C_15  and  C_16
REMARK    7  A    between atoms: C_18  and  O_19
REMARK    8  A    between atoms: O_24  and  C_25
REMARK    9  A    between atoms: C_25  and  C_27
REMARK   10  A    between atoms: C_27  and  C_28
REMARK   11  A    between atoms: C_27  and  C_29
REMARK   12  A    between atoms: C_29  and  C_30
REMARK                            x       y       z     vdW  Elec       q    Type
REMARK                         _______ _______ _______ _____ _____    ______ ____
ROOT
ATOM      1  C   UNL     1      -7.428  -1.453 128.320  0.00  0.00    +0.000 C 
ATOM      2  C   UNL     1      -7.178  -0.327 129.360  0.00  0.00    +0.000 C 
ATOM      3  C   UNL     1      -6.318  -0.737 130.536  0.00  0.00    +0.000 C 
ATOM      4  C   UNL     1      -6.989  -1.839 131.319  0.00  0.00    +0.000 C 
ATOM      5  C   UNL     1      -7.925  -1.210 132.348  0.00  0.00    +0.000 C 
ATOM      6  C   UNL     1      -7.731  -2.807 130.421  0.00  0.00    +0.000 C 
ATOM      7  C   UNL     1      -7.929  -2.664 129.092  0.00  0.00    +0.000 C 
ATOM      8  C   UNL     1      -8.670  -3.664 128.349  0.00  0.00    +0.000 C 
ATOM      9  C   UNL     1      -8.944  -3.561 127.041  0.00  0.00    +0.000 C 
ATOM     10  C   UNL     1      -8.543  -2.396 126.195  0.00  0.00    +0.000 C 
ATOM     11  C   UNL     1      -7.292  -2.750 125.376  0.00  0.00    +0.000 C 
ATOM     12  C   UNL     1      -8.343  -1.130 127.052  0.00  0.00    +0.000 C 
ENDROOT
BRANCH  12  13
ATOM     13  C   UNL     1      -7.886  -0.045 126.015  0.00  0.00    +0.000 C 
BRANCH  13  14
ATOM     14  C   UNL     1      -9.066   0.678 125.498  0.00  0.00    +0.000 C 
BRANCH  14  15
ATOM     15  C   UNL     1      -8.959   1.894 124.550  0.00  0.00    +0.000 C 
ATOM     16  C   UNL     1      -7.795   1.857 123.535  0.00  0.00    +0.000 C 
ATOM     17  C   UNL     1      -7.498   3.137 122.868  0.00  0.00    +0.000 C 
ATOM     18  C   UNL     1      -7.012   3.939 124.019  0.00  0.00    +0.000 C 
ATOM     19  C   UNL     1      -7.952   3.974 125.190  0.00  0.00    +0.000 C 
ATOM     20  O   UNL     1      -7.804   4.831 126.086  0.00  0.00    +0.000 OA
ATOM     21  O   UNL     1      -8.934   3.075 125.327  0.00  0.00    +0.000 OA
BRANCH  17  22
ATOM     22  O   UNL     1      -8.624   3.623 122.156  0.00  0.00    +0.000 OA
ATOM     23  H   UNL     1      -8.528   4.571 121.966  0.00  0.00    +0.000 HD
ENDBRANCH  17  22
ENDBRANCH  14  15
ENDBRANCH  13  14
ENDBRANCH  12  13
BRANCH   2  24
ATOM     24  O   UNL     1      -8.375   0.391 129.737  0.00  0.00    +0.000 OA
BRANCH  24  25
ATOM     25  C   UNL     1      -8.675   1.715 129.676  0.00  0.00    +0.000 C 
ATOM     26  O   UNL     1      -8.729   2.253 128.568  0.00  0.00    +0.000 OA
BRANCH  25  27
ATOM     27  C   UNL     1      -8.883   2.544 130.974  0.00  0.00    +0.000 C 
ATOM     28  C   UNL     1      -9.847   1.887 131.866  0.00  0.00    +0.000 C 
BRANCH  27  29
ATOM     29  C   UNL     1      -7.534   2.563 131.803  0.00  0.00    +0.000 C 
ATOM     30  C   UNL     1      -7.664   2.362 133.328  0.00  0.00    +0.000 C 
ENDBRANCH  27  29
ENDBRANCH  25  27
ENDBRANCH  24  25
ENDBRANCH   2  24
TORSDOF 8
ENDMDL
MODEL 5
REMARK VINA RESULT:      -7.6      1.964      2.716
REMARK  Name = Lovastatin
REMARK  12 active torsions:
REMARK  status: ('A' for Active; 'I' for Inactive)
REMARK    1  A    between atoms: C_3  and  O_24
REMARK    2  A    between atoms: C_5  and  C_6
REMARK    3  A    between atoms: C_11  and  C_12
REMARK    4  A    between atoms: C_13  and  C_14
REMARK    5  A    between atoms: C_14  and  C_15
REMARK    6  A    between atoms: C_15  and  C_16
REMARK    7  A    between atoms: C_18  and  O_19
REMARK    8  A    between atoms: O_24  and  C_25
REMARK    9  A    between atoms: C_25  and  C_27
REMARK   10  A    between atoms: C_27  and  C_28
REMARK   11  A    between atoms: C_27  and  C_29
REMARK   12  A    between atoms: C_29  and  C_30
REMARK                            x       y       z     vdW  Elec       q    Type
REMARK                         _______ _______ _______ _____ _____    ______ ____
ROOT
ATOM      1  C   UNL     1      -5.826   4.508 132.934  0.00  0.00    +0.000 C 
ATOM      2  C   UNL     1      -4.731   4.636 131.841  0.00  0.00    +0.000 C 
ATOM      3  C   UNL     1      -3.512   3.768 132.067  0.00  0.00    +0.000 C 
ATOM      4  C   UNL     1      -2.819   4.160 133.349  0.00  0.00    +0.000 C 
ATOM      5  C   UNL     1      -1.838   5.291 133.051  0.00  0.00    +0.000 C 
ATOM      6  C   UNL     1      -3.802   4.556 134.431  0.00  0.00    +0.000 C 
ATOM      7  C   UNL     1      -5.136   4.706 134.275  0.00  0.00    +0.000 C 
ATOM      8  C   UNL     1      -5.965   5.103 135.396  0.00  0.00    +0.000 C 
ATOM      9  C   UNL     1      -7.285   5.316 135.300  0.00  0.00    +0.000 C 
ATOM     10  C   UNL     1      -8.058   5.198 134.027  0.00  0.00    +0.000 C 
ATOM     11  C   UNL     1      -8.797   3.851 133.987  0.00  0.00    +0.000 C 
ATOM     12  C   UNL     1      -7.144   5.399 132.801  0.00  0.00    +0.000 C 
ENDROOT
BRANCH  12  13
ATOM     13  C   UNL     1      -8.107   5.194 131.579  0.00  0.00    +0.000 C 
BRANCH  13  14
ATOM     14  C   UNL     1      -8.971   6.381 131.421  0.00  0.00    +0.000 C 
BRANCH  14  15
ATOM     15  C   UNL     1     -10.105   6.462 130.374  0.00  0.00    +0.000 C 
ATOM     16  C   UNL     1     -10.091   7.708 129.460  0.00  0.00    +0.000 C 
ATOM     17  C   UNL     1     -11.331   7.947 128.701  0.00  0.00    +0.000 C 
ATOM     18  C   UNL     1     -12.273   8.260 129.805  0.00  0.00    +0.000 C 
ATOM     19  C   UNL     1     -12.319   7.223 130.892  0.00  0.00    +0.000 C 
ATOM     20  O   UNL     1     -13.260   7.219 131.712  0.00  0.00    +0.000 OA
ATOM     21  O   UNL     1     -11.346   6.316 131.036  0.00  0.00    +0.000 OA
BRANCH  17  22
ATOM     22  O   UNL     1     -11.644   6.848 127.861  0.00  0.00    +0.000 OA
ATOM     23  H   UNL     1     -11.719   7.134 126.935  0.00  0.00    +0.000 HD
ENDBRANCH  17  22
ENDBRANCH  14  15
ENDBRANCH  13  14
ENDBRANCH  12  13
BRANCH   2  24
ATOM     24  O   UNL     1      -4.416   6.003 131.491  0.00  0.00    +0.000 OA
BRANCH  24  25
ATOM     25  C   UNL     1      -4.663   6.713 130.359  0.00  0.00    +0.000 C 
ATOM     26  O   UNL     1      -5.700   7.376 130.298  0.00  0.00    +0.000 OA
BRANCH  25  27
ATOM     27  C   UNL     1      -3.693   6.640 129.147  0.00  0.00    +0.000 C 
ATOM     28  C   UNL     1      -2.307   6.453 129.596  0.00  0.00    +0.000 C 
BRANCH  27  29
ATOM     29  C   UNL     1      -4.008   5.337 128.303  0.00  0.00    +0.000 C 
ATOM     30  C   UNL     1      -3.019   4.163 128.460  0.00  0.00    +0.000 C 
ENDBRANCH  27  29
ENDBRANCH  25  27
ENDBRANCH  24  25
ENDBRANCH   2  24
TORSDOF 8
ENDMDL
MODEL 6
REMARK VINA RESULT:      -7.6      6.750      9.599
REMARK  Name = Lovastatin
REMARK  12 active torsions:
REMARK  status: ('A' for Active; 'I' for Inactive)
REMARK    1  A    between atoms: C_3  and  O_24
REMARK    2  A    between atoms: C_5  and  C_6
REMARK    3  A    between atoms: C_11  and  C_12
REMARK    4  A    between atoms: C_13  and  C_14
REMARK    5  A    between atoms: C_14  and  C_15
REMARK    6  A    between atoms: C_15  and  C_16
REMARK    7  A    between atoms: C_18  and  O_19
REMARK    8  A    between atoms: O_24  and  C_25
REMARK    9  A    between atoms: C_25  and  C_27
REMARK   10  A    between atoms: C_27  and  C_28
REMARK   11  A    between atoms: C_27  and  C_29
REMARK   12  A    between atoms: C_29  and  C_30
REMARK                            x       y       z     vdW  Elec       q    Type
REMARK                         _______ _______ _______ _____ _____    ______ ____
ROOT
ATOM      1  C   UNL     1      -7.278   0.196 123.913  0.00  0.00    +0.000 C 
ATOM      2  C   UNL     1      -6.960  -1.234 124.426  0.00  0.00    +0.000 C 
ATOM      3  C   UNL     1      -7.156  -2.329 123.399  0.00  0.00    +0.000 C 
ATOM      4  C   UNL     1      -8.600  -2.390 122.967  0.00  0.00    +0.000 C 
ATOM      5  C   UNL     1      -9.365  -3.293 123.932  0.00  0.00    +0.000 C 
ATOM      6  C   UNL     1      -9.231  -1.015 122.885  0.00  0.00    +0.000 C 
ATOM      7  C   UNL     1      -8.663   0.143 123.286  0.00  0.00    +0.000 C 
ATOM      8  C   UNL     1      -9.383   1.395 123.163  0.00  0.00    +0.000 C 
ATOM      9  C   UNL     1      -8.899   2.572 123.584  0.00  0.00    +0.000 C 
ATOM     10  C   UNL     1      -7.574   2.735 124.256  0.00  0.00    +0.000 C 
ATOM     11  C   UNL     1      -6.539   3.260 123.248  0.00  0.00    +0.000 C 
ATOM     12  C   UNL     1      -7.125   1.421 124.926  0.00  0.00    +0.000 C 
ENDROOT
BRANCH  12  13
ATOM     13  C   UNL     1      -5.717   1.769 125.524  0.00  0.00    +0.000 C 
BRANCH  13  14
ATOM     14  C   UNL     1      -5.784   1.749 127.000  0.00  0.00    +0.000 C 
BRANCH  14  15
ATOM     15  C   UNL     1      -4.952   2.697 127.893  0.00  0.00    +0.000 C 
ATOM     16  C   UNL     1      -5.208   4.208 127.694  0.00  0.00    +0.000 C 
ATOM     17  C   UNL     1      -4.202   5.102 128.293  0.00  0.00    +0.000 C 
ATOM     18  C   UNL     1      -3.015   4.775 127.465  0.00  0.00    +0.000 C 
ATOM     19  C   UNL     1      -2.686   3.310 127.405  0.00  0.00    +0.000 C 
ATOM     20  O   UNL     1      -1.568   2.936 126.994  0.00  0.00    +0.000 OA
ATOM     21  O   UNL     1      -3.583   2.377 127.744  0.00  0.00    +0.000 OA
BRANCH  17  22
ATOM     22  O   UNL     1      -4.102   4.903 129.694  0.00  0.00    +0.000 OA
ATOM     23  H   UNL     1      -4.895   4.456 130.035  0.00  0.00    +0.000 HD
ENDBRANCH  17  22
ENDBRANCH  14  15
ENDBRANCH  13  14
ENDBRANCH  12  13
BRANCH   2  24
ATOM     24  O   UNL     1      -7.546  -1.533 125.714  0.00  0.00    +0.000 OA
BRANCH  24  25
ATOM     25  C   UNL     1      -6.999  -2.062 126.840  0.00  0.00    +0.000 C 
ATOM     26  O   UNL     1      -5.775  -2.206 126.885  0.00  0.00    +0.000 OA
BRANCH  25  27
ATOM     27  C   UNL     1      -7.899  -2.532 128.015  0.00  0.00    +0.000 C 
ATOM     28  C   UNL     1      -8.769  -3.639 127.599  0.00  0.00    +0.000 C 
BRANCH  27  29
ATOM     29  C   UNL     1      -6.990  -3.157 129.152  0.00  0.00    +0.000 C 
ATOM     30  C   UNL     1      -7.537  -3.071 130.592  0.00  0.00    +0.000 C 
ENDBRANCH  27  29
ENDBRANCH  25  27
ENDBRANCH  24  25
ENDBRANCH   2  24
TORSDOF 8
ENDMDL
MODEL 7
REMARK VINA RESULT:      -7.6      6.438      7.997
REMARK  Name = Lovastatin
REMARK  12 active torsions:
REMARK  status: ('A' for Active; 'I' for Inactive)
REMARK    1  A    between atoms: C_3  and  O_24
REMARK    2  A    between atoms: C_5  and  C_6
REMARK    3  A    between atoms: C_11  and  C_12
REMARK    4  A    between atoms: C_13  and  C_14
REMARK    5  A    between atoms: C_14  and  C_15
REMARK    6  A    between atoms: C_15  and  C_16
REMARK    7  A    between atoms: C_18  and  O_19
REMARK    8  A    between atoms: O_24  and  C_25
REMARK    9  A    between atoms: C_25  and  C_27
REMARK   10  A    between atoms: C_27  and  C_28
REMARK   11  A    between atoms: C_27  and  C_29
REMARK   12  A    between atoms: C_29  and  C_30
REMARK                            x       y       z     vdW  Elec       q    Type
REMARK                         _______ _______ _______ _____ _____    ______ ____
ROOT
ATOM      1  C   UNL     1      -6.869  -2.640 127.411  0.00  0.00    +0.000 C 
ATOM      2  C   UNL     1      -6.044  -1.949 128.530  0.00  0.00    +0.000 C 
ATOM      3  C   UNL     1      -5.733  -2.833 129.719  0.00  0.00    +0.000 C 
ATOM      4  C   UNL     1      -7.009  -3.267 130.398  0.00  0.00    +0.000 C 
ATOM      5  C   UNL     1      -7.410  -2.203 131.417  0.00  0.00    +0.000 C 
ATOM      6  C   UNL     1      -8.124  -3.526 129.406  0.00  0.00    +0.000 C 
ATOM      7  C   UNL     1      -8.083  -3.267 128.080  0.00  0.00    +0.000 C 
ATOM      8  C   UNL     1      -9.229  -3.553 127.241  0.00  0.00    +0.000 C 
ATOM      9  C   UNL     1      -9.273  -3.278 125.930  0.00  0.00    +0.000 C 
ATOM     10  C   UNL     1      -8.160  -2.620 125.180  0.00  0.00    +0.000 C 
ATOM     11  C   UNL     1      -7.359  -3.677 124.402  0.00  0.00    +0.000 C 
ATOM     12  C   UNL     1      -7.269  -1.787 126.122  0.00  0.00    +0.000 C 
ENDROOT
BRANCH  12  13
ATOM     13  C   UNL     1      -6.150  -1.224 125.178  0.00  0.00    +0.000 C 
BRANCH  13  14
ATOM     14  C   UNL     1      -6.092   0.247 125.296  0.00  0.00    +0.000 C 
BRANCH  14  15
ATOM     15  C   UNL     1      -6.959   1.194 124.437  0.00  0.00    +0.000 C 
ATOM     16  C   UNL     1      -7.826   2.208 125.217  0.00  0.00    +0.000 C 
ATOM     17  C   UNL     1      -8.879   2.874 124.431  0.00  0.00    +0.000 C 
ATOM     18  C   UNL     1      -9.766   1.722 124.130  0.00  0.00    +0.000 C 
ATOM     19  C   UNL     1      -9.069   0.552 123.496  0.00  0.00    +0.000 C 
ATOM     20  O   UNL     1      -9.734  -0.344 122.937  0.00  0.00    +0.000 OA
ATOM     21  O   UNL     1      -7.739   0.417 123.550  0.00  0.00    +0.000 OA
BRANCH  17  22
ATOM     22  O   UNL     1      -8.333   3.588 123.334  0.00  0.00    +0.000 OA
ATOM     23  H   UNL     1      -7.627   4.187 123.631  0.00  0.00    +0.000 HD
ENDBRANCH  17  22
ENDBRANCH  14  15
ENDBRANCH  13  14
ENDBRANCH  12  13
BRANCH   2  24
ATOM     24  O   UNL     1      -6.538  -0.640 128.892  0.00  0.00    +0.000 OA
BRANCH  24  25
ATOM     25  C   UNL     1      -5.879   0.493 129.253  0.00  0.00    +0.000 C 
ATOM     26  O   UNL     1      -4.648   0.462 129.306  0.00  0.00    +0.000 OA
BRANCH  25  27
ATOM     27  C   UNL     1      -6.660   1.775 129.650  0.00  0.00    +0.000 C 
ATOM     28  C   UNL     1      -6.515   2.816 128.624  0.00  0.00    +0.000 C 
BRANCH  27  29
ATOM     29  C   UNL     1      -8.212   1.458 129.666  0.00  0.00    +0.000 C 
ATOM     30  C   UNL     1      -8.841   1.186 131.049  0.00  0.00    +0.000 C 
ENDBRANCH  27  29
ENDBRANCH  25  27
ENDBRANCH  24  25
ENDBRANCH   2  24
TORSDOF 8
ENDMDL
MODEL 8
REMARK VINA RESULT:      -7.6      6.578      8.773
REMARK  Name = Lovastatin
REMARK  12 active torsions:
REMARK  status: ('A' for Active; 'I' for Inactive)
REMARK    1  A    between atoms: C_3  and  O_24
REMARK    2  A    between atoms: C_5  and  C_6
REMARK    3  A    between atoms: C_11  and  C_12
REMARK    4  A    between atoms: C_13  and  C_14
REMARK    5  A    between atoms: C_14  and  C_15
REMARK    6  A    between atoms: C_15  and  C_16
REMARK    7  A    between atoms: C_18  and  O_19
REMARK    8  A    between atoms: O_24  and  C_25
REMARK    9  A    between atoms: C_25  and  C_27
REMARK   10  A    between atoms: C_27  and  C_28
REMARK   11  A    between atoms: C_27  and  C_29
REMARK   12  A    between atoms: C_29  and  C_30
REMARK                            x       y       z     vdW  Elec       q    Type
REMARK                         _______ _______ _______ _____ _____    ______ ____
ROOT
ATOM      1  C   UNL     1      -8.017  -0.138 124.742  0.00  0.00    +0.000 C 
ATOM      2  C   UNL     1      -7.428  -1.268 125.629  0.00  0.00    +0.000 C 
ATOM      3  C   UNL     1      -6.575  -2.272 124.884  0.00  0.00    +0.000 C 
ATOM      4  C   UNL     1      -7.399  -2.993 123.846  0.00  0.00    +0.000 C 
ATOM      5  C   UNL     1      -8.072  -4.197 124.501  0.00  0.00    +0.000 C 
ATOM      6  C   UNL     1      -8.418  -2.081 123.193  0.00  0.00    +0.000 C 
ATOM      7  C   UNL     1      -8.702  -0.814 123.564  0.00  0.00    +0.000 C 
ATOM      8  C   UNL     1      -9.713  -0.052 122.858  0.00  0.00    +0.000 C 
ATOM      9  C   UNL     1     -10.077   1.191 123.203  0.00  0.00    +0.000 C 
ATOM     10  C   UNL     1      -9.507   1.933 124.368  0.00  0.00    +0.000 C 
ATOM     11  C   UNL     1      -8.448   2.935 123.883  0.00  0.00    +0.000 C 
ATOM     12  C   UNL     1      -8.951   0.961 125.428  0.00  0.00    +0.000 C 
ENDROOT
BRANCH  12  13
ATOM     13  C   UNL     1      -8.362   1.908 126.532  0.00  0.00    +0.000 C 
BRANCH  13  14
ATOM     14  C   UNL     1      -8.581   1.314 127.866  0.00  0.00    +0.000 C 
BRANCH  14  15
ATOM     15  C   UNL     1      -8.409   2.110 129.180  0.00  0.00    +0.000 C 
ATOM     16  C   UNL     1      -8.363   1.270 130.476  0.00  0.00    +0.000 C 
ATOM     17  C   UNL     1      -8.528   2.031 131.727  0.00  0.00    +0.000 C 
ATOM     18  C   UNL     1      -9.933   2.489 131.585  0.00  0.00    +0.000 C 
ATOM     19  C   UNL     1     -10.223   3.208 130.298  0.00  0.00    +0.000 C 
ATOM     20  O   UNL     1     -11.264   3.887 130.182  0.00  0.00    +0.000 OA
ATOM     21  O   UNL     1      -9.409   3.107 129.242  0.00  0.00    +0.000 OA
BRANCH  17  22
ATOM     22  O   UNL     1      -7.523   3.021 131.866  0.00  0.00    +0.000 OA
ATOM     23  H   UNL     1      -7.027   3.127 131.037  0.00  0.00    +0.000 HD
ENDBRANCH  17  22
ENDBRANCH  14  15
ENDBRANCH  13  14
ENDBRANCH  12  13
BRANCH   2  24
ATOM     24  O   UNL     1      -8.394  -1.871 126.519  0.00  0.00    +0.000 OA
BRANCH  24  25
ATOM     25  C   UNL     1      -8.227  -2.566 127.676  0.00  0.00    +0.000 C 
ATOM     26  O   UNL     1      -8.845  -3.623 127.818  0.00  0.00    +0.000 OA
BRANCH  25  27
ATOM     27  C   UNL     1      -7.331  -2.009 128.816  0.00  0.00    +0.000 C 
ATOM     28  C   UNL     1      -7.831  -2.431 130.130  0.00  0.00    +0.000 C 
BRANCH  27  29
ATOM     29  C   UNL     1      -5.892  -2.665 128.717  0.00  0.00    +0.000 C 
ATOM     30  C   UNL     1      -5.502  -3.633 129.853  0.00  0.00    +0.000 C 
ENDBRANCH  27  29
ENDBRANCH  25  27
ENDBRANCH  24  25
ENDBRANCH   2  24
TORSDOF 8
ENDMDL
MODEL 9
REMARK VINA RESULT:      -7.5      6.007      7.923
REMARK  Name = Lovastatin
REMARK  12 active torsions:
REMARK  status: ('A' for Active; 'I' for Inactive)
REMARK    1  A    between atoms: C_3  and  O_24
REMARK    2  A    between atoms: C_5  and  C_6
REMARK    3  A    between atoms: C_11  and  C_12
REMARK    4  A    between atoms: C_13  and  C_14
REMARK    5  A    between atoms: C_14  and  C_15
REMARK    6  A    between atoms: C_15  and  C_16
REMARK    7  A    between atoms: C_18  and  O_19
REMARK    8  A    between atoms: O_24  and  C_25
REMARK    9  A    between atoms: C_25  and  C_27
REMARK   10  A    between atoms: C_27  and  C_28
REMARK   11  A    between atoms: C_27  and  C_29
REMARK   12  A    between atoms: C_29  and  C_30
REMARK                            x       y       z     vdW  Elec       q    Type
REMARK                         _______ _______ _______ _____ _____    ______ ____
ROOT
ATOM      1  C   UNL     1      -7.717  -0.275 129.215  0.00  0.00    +0.000 C 
ATOM      2  C   UNL     1      -7.817  -1.719 128.653  0.00  0.00    +0.000 C 
ATOM      3  C   UNL     1      -7.939  -2.798 129.707  0.00  0.00    +0.000 C 
ATOM      4  C   UNL     1      -6.712  -2.814 130.586  0.00  0.00    +0.000 C 
ATOM      5  C   UNL     1      -5.655  -3.704 129.938  0.00  0.00    +0.000 C 
ATOM      6  C   UNL     1      -6.176  -1.421 130.843  0.00  0.00    +0.000 C 
ATOM      7  C   UNL     1      -6.610  -0.283 130.258  0.00  0.00    +0.000 C 
ATOM      8  C   UNL     1      -5.999   0.990 130.586  0.00  0.00    +0.000 C 
ATOM      9  C   UNL     1      -6.348   2.148 130.009  0.00  0.00    +0.000 C 
ATOM     10  C   UNL     1      -7.387   2.267 128.941  0.00  0.00    +0.000 C 
ATOM     11  C   UNL     1      -8.705   2.772 129.549  0.00  0.00    +0.000 C 
ATOM     12  C   UNL     1      -7.562   0.935 128.185  0.00  0.00    +0.000 C 
ENDROOT
BRANCH  12  13
ATOM     13  C   UNL     1      -8.707   1.237 127.156  0.00  0.00    +0.000 C 
BRANCH  13  14
ATOM     14  C   UNL     1      -8.191   1.091 125.780  0.00  0.00    +0.000 C 
BRANCH  14  15
ATOM     15  C   UNL     1      -7.830   2.298 124.885  0.00  0.00    +0.000 C 
ATOM     16  C   UNL     1      -6.336   2.690 124.852  0.00  0.00    +0.000 C 
ATOM     17  C   UNL     1      -6.043   4.013 124.274  0.00  0.00    +0.000 C 
ATOM     18  C   UNL     1      -6.677   4.899 125.283  0.00  0.00    +0.000 C 
ATOM     19  C   UNL     1      -8.115   4.577 125.574  0.00  0.00    +0.000 C 
ATOM     20  O   UNL     1      -8.834   5.406 126.169  0.00  0.00    +0.000 OA
ATOM     21  O   UNL     1      -8.647   3.394 125.247  0.00  0.00    +0.000 OA
BRANCH  17  22
ATOM     22  O   UNL     1      -6.502   4.106 122.935  0.00  0.00    +0.000 OA
ATOM     23  H   UNL     1      -5.902   4.656 122.404  0.00  0.00    +0.000 HD
ENDBRANCH  17  22
ENDBRANCH  14  15
ENDBRANCH  13  14
ENDBRANCH  12  13
BRANCH   2  24
ATOM     24  O   UNL     1      -6.838  -2.013 127.630  0.00  0.00    +0.000 OA
BRANCH  24  25
ATOM     25  C   UNL     1      -6.989  -2.425 126.344  0.00  0.00    +0.000 C 
ATOM     26  O   UNL     1      -6.127  -2.106 125.522  0.00  0.00    +0.000 OA
BRANCH  25  27
ATOM     27  C   UNL     1      -8.248  -3.224 125.908  0.00  0.00    +0.000 C 
ATOM     28  C   UNL     1      -9.443  -2.371 125.930  0.00  0.00    +0.000 C 
BRANCH  27  29
ATOM     29  C   UNL     1      -8.099  -3.647 124.389  0.00  0.00    +0.000 C 
ATOM     30  C   UNL     1      -9.223  -3.190 123.437  0.00  0.00    +0.000 C 
ENDBRANCH  27  29
ENDBRANCH  25  27
ENDBRANCH  24  25
ENDBRANCH   2  24
TORSDOF 8
ENDMDL
