MODEL 1
REMARK VINA RESULT:      -8.6      0.000      0.000
REMARK  Name = Loxapine
REMARK  1 active torsions:
REMARK  status: ('A' for Active; 'I' for Inactive)
REMARK    1  A    between atoms: C_1  and  N_2
REMARK                            x       y       z     vdW  Elec       q    Type
REMARK                         _______ _______ _______ _____ _____    ______ ____
ROOT
ATOM      1  C   UNL     1      -6.546   0.323 129.538  0.00  0.00    +0.000 C 
ATOM      2  N   UNL     1      -6.095   0.857 128.259  0.00  0.00    +0.000 NA
ATOM      3  C   UNL     1      -6.887   2.044 127.849  0.00  0.00    +0.000 C 
ATOM      4  C   UNL     1      -6.418   2.626 126.484  0.00  0.00    +0.000 C 
ATOM      5  N   UNL     1      -6.434   1.553 125.471  0.00  0.00    +0.000 N 
ATOM      6  C   UNL     1      -5.605   0.415 125.878  0.00  0.00    +0.000 C 
ATOM      7  C   UNL     1      -6.188  -0.161 127.189  0.00  0.00    +0.000 C 
ATOM      8  C   UNL     1      -6.839   1.816 124.160  0.00  0.00    +0.000 C 
ATOM      9  N   UNL     1      -6.354   2.855 123.544  0.00  0.00    +0.000 NA
ATOM     10  C   UNL     1      -6.774   3.263 122.254  0.00  0.00    +0.000 A 
ATOM     11  C   UNL     1      -5.821   3.776 121.366  0.00  0.00    +0.000 A 
ATOM     12  C   UNL     1      -6.195   4.292 120.115  0.00  0.00    +0.000 A 
ATOM     13  C   UNL     1      -7.535   4.311 119.735  0.00  0.00    +0.000 A 
ATOM     14  C   UNL     1      -8.500   3.809 120.604  0.00  0.00    +0.000 A 
ATOM     15  C   UNL     1      -8.113   3.287 121.845  0.00  0.00    +0.000 A 
ATOM     16  O   UNL     1      -9.118   2.815 122.657  0.00  0.00    +0.000 OA
ATOM     17  C   UNL     1      -9.001   1.471 122.905  0.00  0.00    +0.000 A 
ATOM     18  C   UNL     1      -7.914   0.920 123.588  0.00  0.00    +0.000 A 
ATOM     19  C   UNL     1      -7.903  -0.463 123.792  0.00  0.00    +0.000 A 
ATOM     20  C   UNL     1      -8.946  -1.269 123.344  0.00  0.00    +0.000 A 
ATOM     21 CL   UNL     1      -8.879  -2.964 123.631  0.00  0.00    +0.000 Cl
ATOM     22  C   UNL     1     -10.027  -0.712 122.678  0.00  0.00    +0.000 A 
ATOM     23  C   UNL     1     -10.056   0.663 122.459  0.00  0.00    +0.000 A 
ENDROOT
TORSDOF 0
ENDMDL
MODEL 2
REMARK VINA RESULT:      -8.0      1.559      1.735
REMARK  Name = Loxapine
REMARK  1 active torsions:
REMARK  status: ('A' for Active; 'I' for Inactive)
REMARK    1  A    between atoms: C_1  and  N_2
REMARK                            x       y       z     vdW  Elec       q    Type
REMARK                         _______ _______ _______ _____ _____    ______ ____
ROOT
ATOM      1  C   UNL     1      -5.314   3.167 129.766  0.00  0.00    +0.000 C 
ATOM      2  N   UNL     1      -5.005   3.382 128.358  0.00  0.00    +0.000 NA
ATOM      3  C   UNL     1      -5.974   4.307 127.717  0.00  0.00    +0.000 C 
ATOM      4  C   UNL     1      -5.656   4.546 126.212  0.00  0.00    +0.000 C 
ATOM      5  N   UNL     1      -5.571   3.244 125.524  0.00  0.00    +0.000 N 
ATOM      6  C   UNL     1      -4.573   2.370 126.146  0.00  0.00    +0.000 C 
ATOM      7  C   UNL     1      -5.006   2.108 127.607  0.00  0.00    +0.000 C 
ATOM      8  C   UNL     1      -6.071   3.087 124.229  0.00  0.00    +0.000 C 
ATOM      9  N   UNL     1      -5.767   3.969 123.321  0.00  0.00    +0.000 NA
ATOM     10  C   UNL     1      -6.301   3.956 122.010  0.00  0.00    +0.000 A 
ATOM     11  C   UNL     1      -5.473   4.319 120.941  0.00  0.00    +0.000 A 
ATOM     12  C   UNL     1      -5.975   4.424 119.634  0.00  0.00    +0.000 A 
ATOM     13  C   UNL     1      -7.321   4.176 119.377  0.00  0.00    +0.000 A 
ATOM     14  C   UNL     1      -8.163   3.816 120.425  0.00  0.00    +0.000 A 
ATOM     15  C   UNL     1      -7.648   3.705 121.723  0.00  0.00    +0.000 A 
ATOM     16  O   UNL     1      -8.537   3.353 122.712  0.00  0.00    +0.000 OA
ATOM     17  C   UNL     1      -8.222   2.153 123.295  0.00  0.00    +0.000 A 
ATOM     18  C   UNL     1      -7.036   1.946 124.007  0.00  0.00    +0.000 A 
ATOM     19  C   UNL     1      -6.822   0.683 124.567  0.00  0.00    +0.000 A 
ATOM     20  C   UNL     1      -7.762  -0.336 124.437  0.00  0.00    +0.000 A 
ATOM     21 CL   UNL     1      -7.445  -1.866 125.155  0.00  0.00    +0.000 Cl
ATOM     22  C   UNL     1      -8.942  -0.118 123.741  0.00  0.00    +0.000 A 
ATOM     23  C   UNL     1      -9.173   1.131 123.169  0.00  0.00    +0.000 A 
ENDROOT
TORSDOF 0
ENDMDL
MODEL 3
REMARK VINA RESULT:      -7.8      2.295      3.377
REMARK  Name = Loxapine
REMARK  1 active torsions:
REMARK  status: ('A' for Active; 'I' for Inactive)
REMARK    1  A    between atoms: C_1  and  N_2
REMARK                            x       y       z     vdW  Elec       q    Type
REMARK                         _______ _______ _______ _____ _____    ______ ____
ROOT
ATOM      1  C   UNL     1      -7.300  -3.289 130.494  0.00  0.00    +0.000 C 
ATOM      2  N   UNL     1      -6.771  -2.102 129.836  0.00  0.00    +0.000 NA
ATOM      3  C   UNL     1      -7.846  -1.305 129.191  0.00  0.00    +0.000 C 
ATOM      4  C   UNL     1      -7.295  -0.033 128.483  0.00  0.00    +0.000 C 
ATOM      5  N   UNL     1      -6.235  -0.429 127.536  0.00  0.00    +0.000 N 
ATOM      6  C   UNL     1      -5.163  -1.170 128.207  0.00  0.00    +0.000 C 
ATOM      7  C   UNL     1      -5.771  -2.459 128.805  0.00  0.00    +0.000 C 
ATOM      8  C   UNL     1      -6.111   0.206 126.298  0.00  0.00    +0.000 C 
ATOM      9  N   UNL     1      -6.142   1.506 126.247  0.00  0.00    +0.000 NA
ATOM     10  C   UNL     1      -6.124   2.240 125.036  0.00  0.00    +0.000 A 
ATOM     11  C   UNL     1      -5.407   3.441 124.985  0.00  0.00    +0.000 A 
ATOM     12  C   UNL     1      -5.438   4.261 123.846  0.00  0.00    +0.000 A 
ATOM     13  C   UNL     1      -6.200   3.895 122.739  0.00  0.00    +0.000 A 
ATOM     14  C   UNL     1      -6.923   2.707 122.768  0.00  0.00    +0.000 A 
ATOM     15  C   UNL     1      -6.875   1.892 123.907  0.00  0.00    +0.000 A 
ATOM     16  O   UNL     1      -7.619   0.736 123.871  0.00  0.00    +0.000 OA
ATOM     17  C   UNL     1      -6.841  -0.390 123.957  0.00  0.00    +0.000 A 
ATOM     18  C   UNL     1      -6.063  -0.687 125.079  0.00  0.00    +0.000 A 
ATOM     19  C   UNL     1      -5.314  -1.867 125.063  0.00  0.00    +0.000 A 
ATOM     20  C   UNL     1      -5.350  -2.731 123.971  0.00  0.00    +0.000 A 
ATOM     21 CL   UNL     1      -4.412  -4.173 124.012  0.00  0.00    +0.000 Cl
ATOM     22  C   UNL     1      -6.136  -2.436 122.868  0.00  0.00    +0.000 A 
ATOM     23  C   UNL     1      -6.885  -1.262 122.861  0.00  0.00    +0.000 A 
ENDROOT
TORSDOF 0
ENDMDL
MODEL 4
REMARK VINA RESULT:      -7.6      8.048      9.176
REMARK  Name = Loxapine
REMARK  1 active torsions:
REMARK  status: ('A' for Active; 'I' for Inactive)
REMARK    1  A    between atoms: C_1  and  N_2
REMARK                            x       y       z     vdW  Elec       q    Type
REMARK                         _______ _______ _______ _____ _____    ______ ____
ROOT
ATOM      1  C   UNL     1      -1.900   5.634 131.613  0.00  0.00    +0.000 C 
ATOM      2  N   UNL     1      -3.152   5.978 130.953  0.00  0.00    +0.000 NA
ATOM      3  C   UNL     1      -4.011   6.831 131.814  0.00  0.00    +0.000 C 
ATOM      4  C   UNL     1      -5.354   7.207 131.122  0.00  0.00    +0.000 C 
ATOM      5  N   UNL     1      -6.034   5.973 130.685  0.00  0.00    +0.000 N 
ATOM      6  C   UNL     1      -5.183   5.175 129.797  0.00  0.00    +0.000 C 
ATOM      7  C   UNL     1      -3.916   4.766 130.584  0.00  0.00    +0.000 C 
ATOM      8  C   UNL     1      -7.422   5.851 130.780  0.00  0.00    +0.000 C 
ATOM      9  N   UNL     1      -8.174   6.822 130.348  0.00  0.00    +0.000 NA
ATOM     10  C   UNL     1      -9.583   6.840 130.489  0.00  0.00    +0.000 A 
ATOM     11  C   UNL     1     -10.359   7.365 129.449  0.00  0.00    +0.000 A 
ATOM     12  C   UNL     1     -11.750   7.503 129.575  0.00  0.00    +0.000 A 
ATOM     13  C   UNL     1     -12.388   7.125 130.754  0.00  0.00    +0.000 A 
ATOM     14  C   UNL     1     -11.637   6.603 131.802  0.00  0.00    +0.000 A 
ATOM     15  C   UNL     1     -10.250   6.460 131.660  0.00  0.00    +0.000 A 
ATOM     16  O   UNL     1      -9.569   5.945 132.737  0.00  0.00    +0.000 OA
ATOM     17  C   UNL     1      -8.962   4.749 132.449  0.00  0.00    +0.000 A 
ATOM     18  C   UNL     1      -7.949   4.627 131.492  0.00  0.00    +0.000 A 
ATOM     19  C   UNL     1      -7.395   3.361 131.285  0.00  0.00    +0.000 A 
ATOM     20  C   UNL     1      -7.823   2.255 132.016  0.00  0.00    +0.000 A 
ATOM     21 CL   UNL     1      -7.097   0.723 131.721  0.00  0.00    +0.000 Cl
ATOM     22  C   UNL     1      -8.818   2.388 132.972  0.00  0.00    +0.000 A 
ATOM     23  C   UNL     1      -9.389   3.639 133.190  0.00  0.00    +0.000 A 
ENDROOT
TORSDOF 0
ENDMDL
MODEL 5
REMARK VINA RESULT:      -7.5      3.822      5.196
REMARK  Name = Loxapine
REMARK  1 active torsions:
REMARK  status: ('A' for Active; 'I' for Inactive)
REMARK    1  A    between atoms: C_1  and  N_2
REMARK                            x       y       z     vdW  Elec       q    Type
REMARK                         _______ _______ _______ _____ _____    ______ ____
ROOT
ATOM      1  C   UNL     1      -8.077   3.084 131.496  0.00  0.00    +0.000 C 
ATOM      2  N   UNL     1      -7.614   2.669 130.178  0.00  0.00    +0.000 NA
ATOM      3  C   UNL     1      -8.741   2.503 129.225  0.00  0.00    +0.000 C 
ATOM      4  C   UNL     1      -8.262   2.059 127.813  0.00  0.00    +0.000 C 
ATOM      5  N   UNL     1      -7.442   0.839 127.942  0.00  0.00    +0.000 N 
ATOM      6  C   UNL     1      -6.309   1.045 128.849  0.00  0.00    +0.000 C 
ATOM      7  C   UNL     1      -6.868   1.393 130.247  0.00  0.00    +0.000 C 
ATOM      8  C   UNL     1      -7.528  -0.183 126.994  0.00  0.00    +0.000 C 
ATOM      9  N   UNL     1      -7.483   0.122 125.729  0.00  0.00    +0.000 NA
ATOM     10  C   UNL     1      -7.661  -0.825 124.691  0.00  0.00    +0.000 A 
ATOM     11  C   UNL     1      -6.891  -0.704 123.528  0.00  0.00    +0.000 A 
ATOM     12  C   UNL     1      -7.097  -1.550 122.427  0.00  0.00    +0.000 A 
ATOM     13  C   UNL     1      -8.088  -2.528 122.469  0.00  0.00    +0.000 A 
ATOM     14  C   UNL     1      -8.868  -2.664 123.614  0.00  0.00    +0.000 A 
ATOM     15  C   UNL     1      -8.645  -1.821 124.710  0.00  0.00    +0.000 A 
ATOM     16  O   UNL     1      -9.456  -2.005 125.805  0.00  0.00    +0.000 OA
ATOM     17  C   UNL     1      -8.753  -2.388 126.918  0.00  0.00    +0.000 A 
ATOM     18  C   UNL     1      -7.785  -1.576 127.518  0.00  0.00    +0.000 A 
ATOM     19  C   UNL     1      -7.135  -2.065 128.655  0.00  0.00    +0.000 A 
ATOM     20  C   UNL     1      -7.447  -3.314 129.186  0.00  0.00    +0.000 A 
ATOM     21 CL   UNL     1      -6.618  -3.858 130.592  0.00  0.00    +0.000 Cl
ATOM     22  C   UNL     1      -8.418  -4.107 128.593  0.00  0.00    +0.000 A 
ATOM     23  C   UNL     1      -9.074  -3.642 127.456  0.00  0.00    +0.000 A 
ENDROOT
TORSDOF 0
ENDMDL
MODEL 6
REMARK VINA RESULT:      -7.5      2.759      6.663
REMARK  Name = Loxapine
REMARK  1 active torsions:
REMARK  status: ('A' for Active; 'I' for Inactive)
REMARK    1  A    between atoms: C_1  and  N_2
REMARK                            x       y       z     vdW  Elec       q    Type
REMARK                         _______ _______ _______ _____ _____    ______ ____
ROOT
ATOM      1  C   UNL     1      -6.323   3.095 121.892  0.00  0.00    +0.000 C 
ATOM      2  N   UNL     1      -7.095   3.271 123.115  0.00  0.00    +0.000 NA
ATOM      3  C   UNL     1      -6.221   3.334 124.314  0.00  0.00    +0.000 C 
ATOM      4  C   UNL     1      -7.032   3.522 125.628  0.00  0.00    +0.000 C 
ATOM      5  N   UNL     1      -8.051   2.458 125.723  0.00  0.00    +0.000 N 
ATOM      6  C   UNL     1      -8.931   2.450 124.551  0.00  0.00    +0.000 C 
ATOM      7  C   UNL     1      -8.066   2.170 123.301  0.00  0.00    +0.000 C 
ATOM      8  C   UNL     1      -8.355   1.869 126.952  0.00  0.00    +0.000 C 
ATOM      9  N   UNL     1      -8.566   2.631 127.985  0.00  0.00    +0.000 NA
ATOM     10  C   UNL     1      -8.782   2.132 129.293  0.00  0.00    +0.000 A 
ATOM     11  C   UNL     1      -9.709   2.779 130.118  0.00  0.00    +0.000 A 
ATOM     12  C   UNL     1      -9.889   2.393 131.455  0.00  0.00    +0.000 A 
ATOM     13  C   UNL     1      -9.133   1.354 131.993  0.00  0.00    +0.000 A 
ATOM     14  C   UNL     1      -8.203   0.698 131.193  0.00  0.00    +0.000 A 
ATOM     15  C   UNL     1      -8.040   1.086 129.856  0.00  0.00    +0.000 A 
ATOM     16  O   UNL     1      -7.100   0.400 129.125  0.00  0.00    +0.000 OA
ATOM     17  C   UNL     1      -7.652  -0.282 128.071  0.00  0.00    +0.000 A 
ATOM     18  C   UNL     1      -8.302   0.359 127.013  0.00  0.00    +0.000 A 
ATOM     19  C   UNL     1      -8.821  -0.435 125.986  0.00  0.00    +0.000 A 
ATOM     20  C   UNL     1      -8.685  -1.821 126.004  0.00  0.00    +0.000 A 
ATOM     21 CL   UNL     1      -9.339  -2.745 124.709  0.00  0.00    +0.000 Cl
ATOM     22  C   UNL     1      -8.026  -2.448 127.051  0.00  0.00    +0.000 A 
ATOM     23  C   UNL     1      -7.507  -1.676 128.088  0.00  0.00    +0.000 A 
ENDROOT
TORSDOF 0
ENDMDL
MODEL 7
REMARK VINA RESULT:      -7.5      2.166      6.277
REMARK  Name = Loxapine
REMARK  1 active torsions:
REMARK  status: ('A' for Active; 'I' for Inactive)
REMARK    1  A    between atoms: C_1  and  N_2
REMARK                            x       y       z     vdW  Elec       q    Type
REMARK                         _______ _______ _______ _____ _____    ______ ____
ROOT
ATOM      1  C   UNL     1      -8.699   3.477 121.083  0.00  0.00    +0.000 C 
ATOM      2  N   UNL     1      -8.641   3.208 122.514  0.00  0.00    +0.000 NA
ATOM      3  C   UNL     1      -7.241   3.085 122.995  0.00  0.00    +0.000 C 
ATOM      4  C   UNL     1      -7.164   2.797 124.522  0.00  0.00    +0.000 C 
ATOM      5  N   UNL     1      -7.978   1.606 124.831  0.00  0.00    +0.000 N 
ATOM      6  C   UNL     1      -9.366   1.773 124.391  0.00  0.00    +0.000 C 
ATOM      7  C   UNL     1      -9.365   1.964 122.857  0.00  0.00    +0.000 C 
ATOM      8  C   UNL     1      -7.550   0.675 125.781  0.00  0.00    +0.000 C 
ATOM      9  N   UNL     1      -7.121   1.099 126.934  0.00  0.00    +0.000 NA
ATOM     10  C   UNL     1      -6.574   0.248 127.925  0.00  0.00    +0.000 A 
ATOM     11  C   UNL     1      -6.856   0.509 129.271  0.00  0.00    +0.000 A 
ATOM     12  C   UNL     1      -6.260  -0.237 130.299  0.00  0.00    +0.000 A 
ATOM     13  C   UNL     1      -5.359  -1.255 129.995  0.00  0.00    +0.000 A 
ATOM     14  C   UNL     1      -5.061  -1.531 128.664  0.00  0.00    +0.000 A 
ATOM     15  C   UNL     1      -5.671  -0.786 127.646  0.00  0.00    +0.000 A 
ATOM     16  O   UNL     1      -5.326  -1.106 126.355  0.00  0.00    +0.000 OA
ATOM     17  C   UNL     1      -6.394  -1.563 125.626  0.00  0.00    +0.000 A 
ATOM     18  C   UNL     1      -7.511  -0.771 125.345  0.00  0.00    +0.000 A 
ATOM     19  C   UNL     1      -8.539  -1.337 124.585  0.00  0.00    +0.000 A 
ATOM     20  C   UNL     1      -8.452  -2.643 124.108  0.00  0.00    +0.000 A 
ATOM     21 CL   UNL     1      -9.746  -3.281 123.172  0.00  0.00    +0.000 Cl
ATOM     22  C   UNL     1      -7.334  -3.416 124.379  0.00  0.00    +0.000 A 
ATOM     23  C   UNL     1      -6.300  -2.874 125.140  0.00  0.00    +0.000 A 
ENDROOT
TORSDOF 0
ENDMDL
MODEL 8
REMARK VINA RESULT:      -7.2      5.819      8.171
REMARK  Name = Loxapine
REMARK  1 active torsions:
REMARK  status: ('A' for Active; 'I' for Inactive)
REMARK    1  A    between atoms: C_1  and  N_2
REMARK                            x       y       z     vdW  Elec       q    Type
REMARK                         _______ _______ _______ _____ _____    ______ ____
ROOT
ATOM      1  C   UNL     1      -4.934  -2.386 135.592  0.00  0.00    +0.000 C 
ATOM      2  N   UNL     1      -5.711  -2.874 134.460  0.00  0.00    +0.000 NA
ATOM      3  C   UNL     1      -4.943  -2.796 133.191  0.00  0.00    +0.000 C 
ATOM      4  C   UNL     1      -5.760  -3.314 131.972  0.00  0.00    +0.000 C 
ATOM      5  N   UNL     1      -7.043  -2.587 131.907  0.00  0.00    +0.000 N 
ATOM      6  C   UNL     1      -7.802  -2.723 133.154  0.00  0.00    +0.000 C 
ATOM      7  C   UNL     1      -6.965  -2.107 134.297  0.00  0.00    +0.000 C 
ATOM      8  C   UNL     1      -7.589  -2.213 130.677  0.00  0.00    +0.000 C 
ATOM      9  N   UNL     1      -7.649  -3.091 129.718  0.00  0.00    +0.000 NA
ATOM     10  C   UNL     1      -8.092  -2.786 128.407  0.00  0.00    +0.000 A 
ATOM     11  C   UNL     1      -8.854  -3.734 127.715  0.00  0.00    +0.000 A 
ATOM     12  C   UNL     1      -9.232  -3.529 126.379  0.00  0.00    +0.000 A 
ATOM     13  C   UNL     1      -8.843  -2.371 125.708  0.00  0.00    +0.000 A 
ATOM     14  C   UNL     1      -8.083  -1.416 126.377  0.00  0.00    +0.000 A 
ATOM     15  C   UNL     1      -7.721  -1.627 127.713  0.00  0.00    +0.000 A 
ATOM     16  O   UNL     1      -6.963  -0.647 128.310  0.00  0.00    +0.000 OA
ATOM     17  C   UNL     1      -7.609  -0.057 129.366  0.00  0.00    +0.000 A 
ATOM     18  C   UNL     1      -7.973  -0.760 130.518  0.00  0.00    +0.000 A 
ATOM     19  C   UNL     1      -8.621  -0.055 131.537  0.00  0.00    +0.000 A 
ATOM     20  C   UNL     1      -8.885   1.307 131.420  0.00  0.00    +0.000 A 
ATOM     21 CL   UNL     1      -9.679   2.121 132.711  0.00  0.00    +0.000 Cl
ATOM     22  C   UNL     1      -8.509   1.999 130.279  0.00  0.00    +0.000 A 
ATOM     23  C   UNL     1      -7.868   1.315 129.249  0.00  0.00    +0.000 A 
ENDROOT
TORSDOF 0
ENDMDL
MODEL 9
REMARK VINA RESULT:      -7.2      3.957      5.586
REMARK  Name = Loxapine
REMARK  1 active torsions:
REMARK  status: ('A' for Active; 'I' for Inactive)
REMARK    1  A    between atoms: C_1  and  N_2
REMARK                            x       y       z     vdW  Elec       q    Type
REMARK                         _______ _______ _______ _____ _____    ______ ____
ROOT
ATOM      1  C   UNL     1      -4.802   4.710 128.822  0.00  0.00    +0.000 C 
ATOM      2  N   UNL     1      -5.115   3.848 127.690  0.00  0.00    +0.000 NA
ATOM      3  C   UNL     1      -6.566   3.543 127.616  0.00  0.00    +0.000 C 
ATOM      4  C   UNL     1      -6.916   2.622 126.411  0.00  0.00    +0.000 C 
ATOM      5  N   UNL     1      -6.082   1.407 126.474  0.00  0.00    +0.000 N 
ATOM      6  C   UNL     1      -4.653   1.735 126.496  0.00  0.00    +0.000 C 
ATOM      7  C   UNL     1      -4.371   2.571 127.764  0.00  0.00    +0.000 C 
ATOM      8  C   UNL     1      -6.608   0.161 126.124  0.00  0.00    +0.000 C 
ATOM      9  N   UNL     1      -7.288   0.048 125.020  0.00  0.00    +0.000 NA
ATOM     10  C   UNL     1      -7.945  -1.144 124.626  0.00  0.00    +0.000 A 
ATOM     11  C   UNL     1      -7.953  -1.494 123.271  0.00  0.00    +0.000 A 
ATOM     12  C   UNL     1      -8.675  -2.606 122.810  0.00  0.00    +0.000 A 
ATOM     13  C   UNL     1      -9.411  -3.383 123.701  0.00  0.00    +0.000 A 
ATOM     14  C   UNL     1      -9.420  -3.051 125.053  0.00  0.00    +0.000 A 
ATOM     15  C   UNL     1      -8.687  -1.945 125.502  0.00  0.00    +0.000 A 
ATOM     16  O   UNL     1      -8.746  -1.671 126.848  0.00  0.00    +0.000 OA
ATOM     17  C   UNL     1      -7.522  -1.777 127.458  0.00  0.00    +0.000 A 
ATOM     18  C   UNL     1      -6.441  -0.953 127.131  0.00  0.00    +0.000 A 
ATOM     19  C   UNL     1      -5.241  -1.144 127.823  0.00  0.00    +0.000 A 
ATOM     20  C   UNL     1      -5.125  -2.113 128.816  0.00  0.00    +0.000 A 
ATOM     21 CL   UNL     1      -3.624  -2.296 129.638  0.00  0.00    +0.000 Cl
ATOM     22  C   UNL     1      -6.206  -2.917 129.143  0.00  0.00    +0.000 A 
ATOM     23  C   UNL     1      -7.410  -2.748 128.463  0.00  0.00    +0.000 A 
ENDROOT
TORSDOF 0
ENDMDL
