MODEL 1
REMARK VINA RESULT:      -7.0      0.000      0.000
REMARK  Name = Loxoprofen
REMARK  6 active torsions:
REMARK  status: ('A' for Active; 'I' for Inactive)
REMARK    1  A    between atoms: C_1  and  C_2
REMARK    2  A    between atoms: C_2  and  C_3
REMARK    3  A    between atoms: C_2  and  C_6
REMARK    4  A    between atoms: C_3  and  O_4
REMARK    5  A    between atoms: C_9  and  C_10
REMARK    6  A    between atoms: C_10  and  C_11
REMARK                            x       y       z     vdW  Elec       q    Type
REMARK                         _______ _______ _______ _____ _____    ______ ____
ROOT
ATOM      1  C   UNL     1     -11.192   7.184 129.719  0.00  0.00    +0.000 A 
ATOM      2  C   UNL     1      -9.819   7.415 129.757  0.00  0.00    +0.000 A 
ATOM      3  C   UNL     1      -9.028   6.835 130.731  0.00  0.00    +0.000 A 
ATOM      4  C   UNL     1      -9.624   6.327 131.885  0.00  0.00    +0.000 A 
ATOM      5  C   UNL     1     -11.012   6.244 131.942  0.00  0.00    +0.000 A 
ATOM      6  C   UNL     1     -11.786   6.603 130.849  0.00  0.00    +0.000 A 
ENDROOT
BRANCH   1   8
ATOM      7  C   UNL     1     -12.624   8.989 128.843  0.00  0.00    +0.000 C 
ATOM      8  C   UNL     1     -12.095   7.576 128.568  0.00  0.00    +0.000 C 
BRANCH   8   9
ATOM      9  C   UNL     1     -11.590   7.484 127.127  0.00  0.00    +0.000 C 
ATOM     10  O   UNL     1     -10.822   8.330 126.662  0.00  0.00    +0.000 OA
BRANCH   9  11
ATOM     11  O   UNL     1     -12.023   6.500 126.319  0.00  0.00    +0.000 OA
ATOM     12  H   UNL     1     -12.483   6.772 125.505  0.00  0.00    +0.000 HD
ENDBRANCH   9  11
ENDBRANCH   8   9
ENDBRANCH   1   8
BRANCH   4  13
ATOM     13  C   UNL     1      -8.703   5.995 133.021  0.00  0.00    +0.000 C 
BRANCH  13  14
ATOM     14  C   UNL     1      -8.226   4.564 133.254  0.00  0.00    +0.000 C 
ATOM     15  C   UNL     1      -9.292   3.523 133.598  0.00  0.00    +0.000 C 
ATOM     16  C   UNL     1      -9.021   2.257 132.787  0.00  0.00    +0.000 C 
ATOM     17  C   UNL     1      -7.751   2.460 131.979  0.00  0.00    +0.000 C 
ATOM     18  C   UNL     1      -7.416   3.914 132.161  0.00  0.00    +0.000 C 
ATOM     19  O   UNL     1      -6.544   4.484 131.516  0.00  0.00    +0.000 OA
ENDBRANCH  13  14
ENDBRANCH   4  13
TORSDOF 5
ENDMDL
MODEL 2
REMARK VINA RESULT:      -6.9      8.675     10.044
REMARK  Name = Loxoprofen
REMARK  6 active torsions:
REMARK  status: ('A' for Active; 'I' for Inactive)
REMARK    1  A    between atoms: C_1  and  C_2
REMARK    2  A    between atoms: C_2  and  C_3
REMARK    3  A    between atoms: C_2  and  C_6
REMARK    4  A    between atoms: C_3  and  O_4
REMARK    5  A    between atoms: C_9  and  C_10
REMARK    6  A    between atoms: C_10  and  C_11
REMARK                            x       y       z     vdW  Elec       q    Type
REMARK                         _______ _______ _______ _____ _____    ______ ____
ROOT
ATOM      1  C   UNL     1      -6.785   3.831 120.604  0.00  0.00    +0.000 A 
ATOM      2  C   UNL     1      -5.936   3.413 121.627  0.00  0.00    +0.000 A 
ATOM      3  C   UNL     1      -6.411   2.652 122.678  0.00  0.00    +0.000 A 
ATOM      4  C   UNL     1      -7.782   2.607 122.925  0.00  0.00    +0.000 A 
ATOM      5  C   UNL     1      -8.650   3.172 121.996  0.00  0.00    +0.000 A 
ATOM      6  C   UNL     1      -8.165   3.717 120.818  0.00  0.00    +0.000 A 
ENDROOT
BRANCH   1   8
ATOM      7  C   UNL     1      -7.535   4.592 118.383  0.00  0.00    +0.000 C 
ATOM      8  C   UNL     1      -6.318   4.457 119.307  0.00  0.00    +0.000 C 
BRANCH   8   9
ATOM      9  C   UNL     1      -5.533   5.770 119.323  0.00  0.00    +0.000 C 
ATOM     10  O   UNL     1      -4.844   6.092 120.294  0.00  0.00    +0.000 OA
BRANCH   9  11
ATOM     11  O   UNL     1      -5.627   6.628 118.292  0.00  0.00    +0.000 OA
ATOM     12  H   UNL     1      -4.815   6.783 117.776  0.00  0.00    +0.000 HD
ENDBRANCH   9  11
ENDBRANCH   8   9
ENDBRANCH   1   8
BRANCH   4  13
ATOM     13  C   UNL     1      -8.204   2.023 124.241  0.00  0.00    +0.000 C 
BRANCH  13  14
ATOM     14  C   UNL     1      -8.182   0.515 124.475  0.00  0.00    +0.000 C 
ATOM     15  C   UNL     1      -8.649  -0.376 123.323  0.00  0.00    +0.000 C 
ATOM     16  C   UNL     1      -7.677  -1.544 123.181  0.00  0.00    +0.000 C 
ATOM     17  C   UNL     1      -6.630  -1.443 124.278  0.00  0.00    +0.000 C 
ATOM     18  C   UNL     1      -6.877  -0.102 124.912  0.00  0.00    +0.000 C 
ATOM     19  O   UNL     1      -6.114   0.401 125.727  0.00  0.00    +0.000 OA
ENDBRANCH  13  14
ENDBRANCH   4  13
TORSDOF 5
ENDMDL
MODEL 3
REMARK VINA RESULT:      -6.9      1.643      2.244
REMARK  Name = Loxoprofen
REMARK  6 active torsions:
REMARK  status: ('A' for Active; 'I' for Inactive)
REMARK    1  A    between atoms: C_1  and  C_2
REMARK    2  A    between atoms: C_2  and  C_3
REMARK    3  A    between atoms: C_2  and  C_6
REMARK    4  A    between atoms: C_3  and  O_4
REMARK    5  A    between atoms: C_9  and  C_10
REMARK    6  A    between atoms: C_10  and  C_11
REMARK                            x       y       z     vdW  Elec       q    Type
REMARK                         _______ _______ _______ _____ _____    ______ ____
ROOT
ATOM      1  C   UNL     1     -11.299   7.424 130.021  0.00  0.00    +0.000 A 
ATOM      2  C   UNL     1     -11.641   6.587 131.082  0.00  0.00    +0.000 A 
ATOM      3  C   UNL     1     -10.700   6.210 132.020  0.00  0.00    +0.000 A 
ATOM      4  C   UNL     1      -9.345   6.347 131.724  0.00  0.00    +0.000 A 
ATOM      5  C   UNL     1      -8.976   7.035 130.572  0.00  0.00    +0.000 A 
ATOM      6  C   UNL     1      -9.936   7.626 129.765  0.00  0.00    +0.000 A 
ENDROOT
BRANCH   1   8
ATOM      7  C   UNL     1     -13.386   7.044 128.765  0.00  0.00    +0.000 C 
ATOM      8  C   UNL     1     -12.299   8.076 129.089  0.00  0.00    +0.000 C 
BRANCH   8   9
ATOM      9  C   UNL     1     -12.947   9.410 129.465  0.00  0.00    +0.000 C 
ATOM     10  O   UNL     1     -13.055   9.760 130.643  0.00  0.00    +0.000 OA
BRANCH   9  11
ATOM     11  O   UNL     1     -13.465  10.204 128.511  0.00  0.00    +0.000 OA
ATOM     12  H   UNL     1     -13.647  11.127 128.761  0.00  0.00    +0.000 HD
ENDBRANCH   9  11
ENDBRANCH   8   9
ENDBRANCH   1   8
BRANCH   4  13
ATOM     13  C   UNL     1      -8.387   5.647 132.642  0.00  0.00    +0.000 C 
BRANCH  13  14
ATOM     14  C   UNL     1      -8.220   4.131 132.596  0.00  0.00    +0.000 C 
ATOM     15  C   UNL     1      -9.243   3.294 133.366  0.00  0.00    +0.000 C 
ATOM     16  C   UNL     1      -9.673   2.119 132.491  0.00  0.00    +0.000 C 
ATOM     17  C   UNL     1      -8.880   2.161 131.196  0.00  0.00    +0.000 C 
ATOM     18  C   UNL     1      -8.157   3.479 131.239  0.00  0.00    +0.000 C 
ATOM     19  O   UNL     1      -7.549   3.937 130.279  0.00  0.00    +0.000 OA
ENDBRANCH  13  14
ENDBRANCH   4  13
TORSDOF 5
ENDMDL
MODEL 4
REMARK VINA RESULT:      -6.8      7.826      8.953
REMARK  Name = Loxoprofen
REMARK  6 active torsions:
REMARK  status: ('A' for Active; 'I' for Inactive)
REMARK    1  A    between atoms: C_1  and  C_2
REMARK    2  A    between atoms: C_2  and  C_3
REMARK    3  A    between atoms: C_2  and  C_6
REMARK    4  A    between atoms: C_3  and  O_4
REMARK    5  A    between atoms: C_9  and  C_10
REMARK    6  A    between atoms: C_10  and  C_11
REMARK                            x       y       z     vdW  Elec       q    Type
REMARK                         _______ _______ _______ _____ _____    ______ ____
ROOT
ATOM      1  C   UNL     1      -5.894   3.872 121.919  0.00  0.00    +0.000 A 
ATOM      2  C   UNL     1      -5.260   4.651 122.885  0.00  0.00    +0.000 A 
ATOM      3  C   UNL     1      -5.172   4.224 124.196  0.00  0.00    +0.000 A 
ATOM      4  C   UNL     1      -6.019   3.212 124.646  0.00  0.00    +0.000 A 
ATOM      5  C   UNL     1      -6.798   2.528 123.717  0.00  0.00    +0.000 A 
ATOM      6  C   UNL     1      -6.688   2.805 122.363  0.00  0.00    +0.000 A 
ENDROOT
BRANCH   1   8
ATOM      7  C   UNL     1      -7.250   3.967 119.863  0.00  0.00    +0.000 C 
ATOM      8  C   UNL     1      -5.835   4.139 120.430  0.00  0.00    +0.000 C 
BRANCH   8   9
ATOM      9  C   UNL     1      -5.220   5.436 119.903  0.00  0.00    +0.000 C 
ATOM     10  O   UNL     1      -4.489   6.133 120.612  0.00  0.00    +0.000 OA
BRANCH   9  11
ATOM     11  O   UNL     1      -5.513   5.870 118.664  0.00  0.00    +0.000 OA
ATOM     12  H   UNL     1      -6.379   6.298 118.543  0.00  0.00    +0.000 HD
ENDBRANCH   9  11
ENDBRANCH   8   9
ENDBRANCH   1   8
BRANCH   4  13
ATOM     13  C   UNL     1      -6.088   3.009 126.130  0.00  0.00    +0.000 C 
BRANCH  13  14
ATOM     14  C   UNL     1      -4.825   3.040 126.987  0.00  0.00    +0.000 C 
ATOM     15  C   UNL     1      -3.600   2.301 126.447  0.00  0.00    +0.000 C 
ATOM     16  C   UNL     1      -2.369   3.183 126.645  0.00  0.00    +0.000 C 
ATOM     17  C   UNL     1      -2.789   4.450 127.369  0.00  0.00    +0.000 C 
ATOM     18  C   UNL     1      -4.292   4.390 127.392  0.00  0.00    +0.000 C 
ATOM     19  O   UNL     1      -4.992   5.331 127.747  0.00  0.00    +0.000 OA
ENDBRANCH  13  14
ENDBRANCH   4  13
TORSDOF 5
ENDMDL
MODEL 5
REMARK VINA RESULT:      -6.6      8.877      9.752
REMARK  Name = Loxoprofen
REMARK  6 active torsions:
REMARK  status: ('A' for Active; 'I' for Inactive)
REMARK    1  A    between atoms: C_1  and  C_2
REMARK    2  A    between atoms: C_2  and  C_3
REMARK    3  A    between atoms: C_2  and  C_6
REMARK    4  A    between atoms: C_3  and  O_4
REMARK    5  A    between atoms: C_9  and  C_10
REMARK    6  A    between atoms: C_10  and  C_11
REMARK                            x       y       z     vdW  Elec       q    Type
REMARK                         _______ _______ _______ _____ _____    ______ ____
ROOT
ATOM      1  C   UNL     1      -8.661  -2.463 126.776  0.00  0.00    +0.000 A 
ATOM      2  C   UNL     1      -8.848  -3.653 127.476  0.00  0.00    +0.000 A 
ATOM      3  C   UNL     1      -8.499  -3.755 128.809  0.00  0.00    +0.000 A 
ATOM      4  C   UNL     1      -7.631  -2.816 129.364  0.00  0.00    +0.000 A 
ATOM      5  C   UNL     1      -7.290  -1.694 128.614  0.00  0.00    +0.000 A 
ATOM      6  C   UNL     1      -7.850  -1.483 127.364  0.00  0.00    +0.000 A 
ENDROOT
BRANCH   1   8
ATOM      7  C   UNL     1      -8.687  -0.823 124.936  0.00  0.00    +0.000 C 
ATOM      8  C   UNL     1      -9.224  -2.183 125.398  0.00  0.00    +0.000 C 
BRANCH   8   9
ATOM      9  C   UNL     1      -9.063  -3.211 124.277  0.00  0.00    +0.000 C 
ATOM     10  O   UNL     1      -7.979  -3.761 124.063  0.00  0.00    +0.000 OA
BRANCH   9  11
ATOM     11  O   UNL     1     -10.095  -3.493 123.463  0.00  0.00    +0.000 OA
ATOM     12  H   UNL     1     -10.983  -3.257 123.784  0.00  0.00    +0.000 HD
ENDBRANCH   9  11
ENDBRANCH   8   9
ENDBRANCH   1   8
BRANCH   4  13
ATOM     13  C   UNL     1      -7.057  -3.149 130.708  0.00  0.00    +0.000 C 
BRANCH  13  14
ATOM     14  C   UNL     1      -5.548  -3.241 130.918  0.00  0.00    +0.000 C 
ATOM     15  C   UNL     1      -4.741  -3.988 129.855  0.00  0.00    +0.000 C 
ATOM     16  C   UNL     1      -3.487  -3.179 129.533  0.00  0.00    +0.000 C 
ATOM     17  C   UNL     1      -3.453  -1.955 130.432  0.00  0.00    +0.000 C 
ATOM     18  C   UNL     1      -4.793  -1.951 131.115  0.00  0.00    +0.000 C 
ATOM     19  O   UNL     1      -5.194  -1.012 131.791  0.00  0.00    +0.000 OA
ENDBRANCH  13  14
ENDBRANCH   4  13
TORSDOF 5
ENDMDL
MODEL 6
REMARK VINA RESULT:      -6.4      1.593      2.351
REMARK  Name = Loxoprofen
REMARK  6 active torsions:
REMARK  status: ('A' for Active; 'I' for Inactive)
REMARK    1  A    between atoms: C_1  and  C_2
REMARK    2  A    between atoms: C_2  and  C_3
REMARK    3  A    between atoms: C_2  and  C_6
REMARK    4  A    between atoms: C_3  and  O_4
REMARK    5  A    between atoms: C_9  and  C_10
REMARK    6  A    between atoms: C_10  and  C_11
REMARK                            x       y       z     vdW  Elec       q    Type
REMARK                         _______ _______ _______ _____ _____    ______ ____
ROOT
ATOM      1  C   UNL     1     -10.984   7.721 129.650  0.00  0.00    +0.000 A 
ATOM      2  C   UNL     1     -11.793   7.024 130.545  0.00  0.00    +0.000 A 
ATOM      3  C   UNL     1     -11.266   6.476 131.699  0.00  0.00    +0.000 A 
ATOM      4  C   UNL     1      -9.889   6.289 131.802  0.00  0.00    +0.000 A 
ATOM      5  C   UNL     1      -9.064   6.832 130.822  0.00  0.00    +0.000 A 
ATOM      6  C   UNL     1      -9.596   7.597 129.795  0.00  0.00    +0.000 A 
ENDROOT
BRANCH   1   8
ATOM      7  C   UNL     1     -11.012   7.906 127.192  0.00  0.00    +0.000 C 
ATOM      8  C   UNL     1     -11.504   8.550 128.494  0.00  0.00    +0.000 C 
BRANCH   8   9
ATOM      9  C   UNL     1     -12.996   8.868 128.382  0.00  0.00    +0.000 C 
ATOM     10  O   UNL     1     -13.472   9.893 128.877  0.00  0.00    +0.000 OA
BRANCH   9  11
ATOM     11  O   UNL     1     -13.831   7.999 127.785  0.00  0.00    +0.000 OA
ATOM     12  H   UNL     1     -13.504   7.089 127.665  0.00  0.00    +0.000 HD
ENDBRANCH   9  11
ENDBRANCH   8   9
ENDBRANCH   1   8
BRANCH   4  13
ATOM     13  C   UNL     1      -9.415   5.423 132.931  0.00  0.00    +0.000 C 
BRANCH  13  14
ATOM     14  C   UNL     1      -7.998   5.556 133.482  0.00  0.00    +0.000 C 
ATOM     15  C   UNL     1      -7.844   5.599 135.003  0.00  0.00    +0.000 C 
ATOM     16  C   UNL     1      -6.680   4.696 135.404  0.00  0.00    +0.000 C 
ATOM     17  C   UNL     1      -6.046   4.131 134.143  0.00  0.00    +0.000 C 
ATOM     18  C   UNL     1      -6.980   4.538 133.037  0.00  0.00    +0.000 C 
ATOM     19  O   UNL     1      -6.882   4.113 131.892  0.00  0.00    +0.000 OA
ENDBRANCH  13  14
ENDBRANCH   4  13
TORSDOF 5
ENDMDL
MODEL 7
REMARK VINA RESULT:      -6.4      8.663      9.550
REMARK  Name = Loxoprofen
REMARK  6 active torsions:
REMARK  status: ('A' for Active; 'I' for Inactive)
REMARK    1  A    between atoms: C_1  and  C_2
REMARK    2  A    between atoms: C_2  and  C_3
REMARK    3  A    between atoms: C_2  and  C_6
REMARK    4  A    between atoms: C_3  and  O_4
REMARK    5  A    between atoms: C_9  and  C_10
REMARK    6  A    between atoms: C_10  and  C_11
REMARK                            x       y       z     vdW  Elec       q    Type
REMARK                         _______ _______ _______ _____ _____    ______ ____
ROOT
ATOM      1  C   UNL     1      -8.280  -2.488 125.888  0.00  0.00    +0.000 A 
ATOM      2  C   UNL     1      -7.770  -1.499 126.728  0.00  0.00    +0.000 A 
ATOM      3  C   UNL     1      -7.522  -1.761 128.062  0.00  0.00    +0.000 A 
ATOM      4  C   UNL     1      -8.112  -2.870 128.664  0.00  0.00    +0.000 A 
ATOM      5  C   UNL     1      -8.780  -3.792 127.863  0.00  0.00    +0.000 A 
ATOM      6  C   UNL     1      -8.806  -3.641 126.485  0.00  0.00    +0.000 A 
ENDROOT
BRANCH   1   8
ATOM      7  C   UNL     1      -9.415  -3.368 123.885  0.00  0.00    +0.000 C 
ATOM      8  C   UNL     1      -8.360  -2.371 124.380  0.00  0.00    +0.000 C 
BRANCH   8   9
ATOM      9  C   UNL     1      -8.588  -1.009 123.723  0.00  0.00    +0.000 C 
ATOM     10  O   UNL     1      -9.725  -0.595 123.483  0.00  0.00    +0.000 OA
BRANCH   9  11
ATOM     11  O   UNL     1      -7.540  -0.257 123.342  0.00  0.00    +0.000 OA
ATOM     12  H   UNL     1      -7.294   0.480 123.928  0.00  0.00    +0.000 HD
ENDBRANCH   9  11
ENDBRANCH   8   9
ENDBRANCH   1   8
BRANCH   4  13
ATOM     13  C   UNL     1      -8.054  -2.927 130.161  0.00  0.00    +0.000 C 
BRANCH  13  14
ATOM     14  C   UNL     1      -6.765  -3.306 130.884  0.00  0.00    +0.000 C 
ATOM     15  C   UNL     1      -5.912  -4.409 130.254  0.00  0.00    +0.000 C 
ATOM     16  C   UNL     1      -4.447  -3.977 130.291  0.00  0.00    +0.000 C 
ATOM     17  C   UNL     1      -4.353  -2.637 131.001  0.00  0.00    +0.000 C 
ATOM     18  C   UNL     1      -5.781  -2.202 131.178  0.00  0.00    +0.000 C 
ATOM     19  O   UNL     1      -6.095  -1.082 131.563  0.00  0.00    +0.000 OA
ENDBRANCH  13  14
ENDBRANCH   4  13
TORSDOF 5
ENDMDL
MODEL 8
REMARK VINA RESULT:      -6.3      2.064      6.440
REMARK  Name = Loxoprofen
REMARK  6 active torsions:
REMARK  status: ('A' for Active; 'I' for Inactive)
REMARK    1  A    between atoms: C_1  and  C_2
REMARK    2  A    between atoms: C_2  and  C_3
REMARK    3  A    between atoms: C_2  and  C_6
REMARK    4  A    between atoms: C_3  and  O_4
REMARK    5  A    between atoms: C_9  and  C_10
REMARK    6  A    between atoms: C_10  and  C_11
REMARK                            x       y       z     vdW  Elec       q    Type
REMARK                         _______ _______ _______ _____ _____    ______ ____
ROOT
ATOM      1  C   UNL     1      -7.640   6.079 131.738  0.00  0.00    +0.000 A 
ATOM      2  C   UNL     1      -8.462   5.710 132.801  0.00  0.00    +0.000 A 
ATOM      3  C   UNL     1      -9.838   5.763 132.685  0.00  0.00    +0.000 A 
ATOM      4  C   UNL     1     -10.411   6.522 131.666  0.00  0.00    +0.000 A 
ATOM      5  C   UNL     1      -9.586   7.051 130.679  0.00  0.00    +0.000 A 
ATOM      6  C   UNL     1      -8.227   6.777 130.674  0.00  0.00    +0.000 A 
ENDROOT
BRANCH   1   8
ATOM      7  C   UNL     1      -5.487   7.065 131.054  0.00  0.00    +0.000 C 
ATOM      8  C   UNL     1      -6.147   5.833 131.686  0.00  0.00    +0.000 C 
BRANCH   8   9
ATOM      9  C   UNL     1      -5.387   5.431 132.951  0.00  0.00    +0.000 C 
ATOM     10  O   UNL     1      -5.315   4.252 133.308  0.00  0.00    +0.000 OA
BRANCH   9  11
ATOM     11  O   UNL     1      -4.826   6.372 133.732  0.00  0.00    +0.000 OA
ATOM     12  H   UNL     1      -3.932   6.184 134.070  0.00  0.00    +0.000 HD
ENDBRANCH   9  11
ENDBRANCH   8   9
ENDBRANCH   1   8
BRANCH   4  13
ATOM     13  C   UNL     1     -11.884   6.785 131.777  0.00  0.00    +0.000 C 
BRANCH  13  14
ATOM     14  C   UNL     1     -12.701   7.203 130.558  0.00  0.00    +0.000 C 
ATOM     15  C   UNL     1     -12.670   8.683 130.174  0.00  0.00    +0.000 C 
ATOM     16  C   UNL     1     -12.499   8.793 128.660  0.00  0.00    +0.000 C 
ATOM     17  C   UNL     1     -12.490   7.393 128.069  0.00  0.00    +0.000 C 
ATOM     18  C   UNL     1     -12.438   6.480 129.262  0.00  0.00    +0.000 C 
ATOM     19  O   UNL     1     -12.247   5.273 129.171  0.00  0.00    +0.000 OA
ENDBRANCH  13  14
ENDBRANCH   4  13
TORSDOF 5
ENDMDL
MODEL 9
REMARK VINA RESULT:      -6.3      8.308     11.176
REMARK  Name = Loxoprofen
REMARK  6 active torsions:
REMARK  status: ('A' for Active; 'I' for Inactive)
REMARK    1  A    between atoms: C_1  and  C_2
REMARK    2  A    between atoms: C_2  and  C_3
REMARK    3  A    between atoms: C_2  and  C_6
REMARK    4  A    between atoms: C_3  and  O_4
REMARK    5  A    between atoms: C_9  and  C_10
REMARK    6  A    between atoms: C_10  and  C_11
REMARK                            x       y       z     vdW  Elec       q    Type
REMARK                         _______ _______ _______ _____ _____    ______ ____
ROOT
ATOM      1  C   UNL     1      -7.781  -2.198 128.842  0.00  0.00    +0.000 A 
ATOM      2  C   UNL     1      -7.623  -1.343 127.754  0.00  0.00    +0.000 A 
ATOM      3  C   UNL     1      -8.307  -1.564 126.573  0.00  0.00    +0.000 A 
ATOM      4  C   UNL     1      -8.861  -2.819 126.326  0.00  0.00    +0.000 A 
ATOM      5  C   UNL     1      -8.877  -3.758 127.352  0.00  0.00    +0.000 A 
ATOM      6  C   UNL     1      -8.406  -3.432 128.615  0.00  0.00    +0.000 A 
ENDROOT
BRANCH   1   8
ATOM      7  C   UNL     1      -8.186  -0.861 130.873  0.00  0.00    +0.000 C 
ATOM      8  C   UNL     1      -7.267  -1.912 130.238  0.00  0.00    +0.000 C 
BRANCH   8   9
ATOM      9  C   UNL     1      -7.032  -3.057 131.223  0.00  0.00    +0.000 C 
ATOM     10  O   UNL     1      -7.656  -3.126 132.286  0.00  0.00    +0.000 OA
BRANCH   9  11
ATOM     11  O   UNL     1      -6.093  -3.986 130.971  0.00  0.00    +0.000 OA
ATOM     12  H   UNL     1      -5.171  -3.742 131.169  0.00  0.00    +0.000 HD
ENDBRANCH   9  11
ENDBRANCH   8   9
ENDBRANCH   1   8
BRANCH   4  13
ATOM     13  C   UNL     1      -9.315  -3.083 124.922  0.00  0.00    +0.000 C 
BRANCH  13  14
ATOM     14  C   UNL     1      -8.384  -2.844 123.736  0.00  0.00    +0.000 C 
ATOM     15  C   UNL     1      -8.292  -1.414 123.201  0.00  0.00    +0.000 C 
ATOM     16  C   UNL     1      -6.824  -1.080 122.944  0.00  0.00    +0.000 C 
ATOM     17  C   UNL     1      -5.985  -2.310 123.246  0.00  0.00    +0.000 C 
ATOM     18  C   UNL     1      -6.948  -3.276 123.881  0.00  0.00    +0.000 C 
ATOM     19  O   UNL     1      -6.590  -4.320 124.414  0.00  0.00    +0.000 OA
ENDBRANCH  13  14
ENDBRANCH   4  13
TORSDOF 5
ENDMDL
