MODEL 1
REMARK VINA RESULT:      -7.6      0.000      0.000
REMARK  Name = Lubiprostone
REMARK  14 active torsions:
REMARK  status: ('A' for Active; 'I' for Inactive)
REMARK    1  A    between atoms: C_6  and  C_7
REMARK    2  A    between atoms: C_7  and  C_8
REMARK    3  A    between atoms: C_8  and  C_9
REMARK    4  A    between atoms: C_9  and  C_10
REMARK    5  A    between atoms: C_10  and  C_11
REMARK    6  A    between atoms: C_11  and  C_12
REMARK    7  A    between atoms: C_12  and  C_13
REMARK    8  A    between atoms: C_13  and  O_14
REMARK    9  A    between atoms: C_20  and  O_21
REMARK   10  A    between atoms: C_20  and  C_23
REMARK   11  A    between atoms: C_23  and  C_26
REMARK   12  A    between atoms: C_26  and  C_27
REMARK   13  A    between atoms: C_27  and  C_28
REMARK   14  A    between atoms: C_28  and  C_29
REMARK                            x       y       z     vdW  Elec       q    Type
REMARK                         _______ _______ _______ _____ _____    ______ ____
ROOT
ATOM      1  C   UNL     1      -9.302   0.286 125.037  0.00  0.00    +0.000 C 
ATOM      2  C   UNL     1      -9.391   1.577 124.217  0.00  0.00    +0.000 C 
ATOM      3  C   UNL     1      -8.819   2.577 125.197  0.00  0.00    +0.000 C 
ATOM      4  O   UNL     1      -8.962   3.790 125.102  0.00  0.00    +0.000 OA
ATOM      5  C   UNL     1      -8.032   1.910 126.305  0.00  0.00    +0.000 C 
ATOM      6  C   UNL     1      -8.022   0.483 125.821  0.00  0.00    +0.000 C 
ATOM      7  C   UNL     1      -7.960  -0.554 126.919  0.00  0.00    +0.000 C 
ATOM      8  C   UNL     1      -7.827  -1.889 126.216  0.00  0.00    +0.000 C 
ATOM      9  C   UNL     1      -8.847  -2.098 125.064  0.00  0.00    +0.000 C 
ATOM     10  O   UNL     1      -9.148  -0.908 124.281  0.00  0.00    +0.000 OA
ENDROOT
BRANCH   9  11
ATOM     11  C   UNL     1      -8.218  -3.166 124.108  0.00  0.00    +0.000 C 
ATOM     12  F   UNL     1      -8.881  -4.351 124.246  0.00  0.00    +0.000 F 
ATOM     13  F   UNL     1      -8.398  -2.790 122.809  0.00  0.00    +0.000 F 
BRANCH  11  14
ATOM     14  C   UNL     1      -6.740  -3.381 124.368  0.00  0.00    +0.000 C 
BRANCH  14  15
ATOM     15  C   UNL     1      -5.886  -2.694 123.313  0.00  0.00    +0.000 C 
BRANCH  15  16
ATOM     16  C   UNL     1      -4.449  -3.191 123.400  0.00  0.00    +0.000 C 
ATOM     17  C   UNL     1      -4.416  -4.698 123.565  0.00  0.00    +0.000 C 
ENDBRANCH  15  16
ENDBRANCH  14  15
ENDBRANCH  11  14
ENDBRANCH   9  11
BRANCH   9  18
ATOM     18  O   UNL     1     -10.081  -2.616 125.575  0.00  0.00    +0.000 OA
ATOM     19  H   UNL     1     -10.474  -3.200 124.913  0.00  0.00    +0.000 HD
ENDBRANCH   9  18
BRANCH   5  20
ATOM     20  C   UNL     1      -6.602   2.413 126.384  0.00  0.00    +0.000 C 
BRANCH  20  21
ATOM     21  C   UNL     1      -6.047   2.559 124.987  0.00  0.00    +0.000 C 
BRANCH  21  22
ATOM     22  C   UNL     1      -5.330   3.882 124.850  0.00  0.00    +0.000 C 
BRANCH  22  23
ATOM     23  C   UNL     1      -5.175   4.211 123.376  0.00  0.00    +0.000 C 
BRANCH  23  24
ATOM     24  C   UNL     1      -6.381   3.683 122.627  0.00  0.00    +0.000 C 
BRANCH  24  25
ATOM     25  C   UNL     1      -6.176   3.750 121.126  0.00  0.00    +0.000 C 
BRANCH  25  26
ATOM     26  C   UNL     1      -7.430   4.001 120.324  0.00  0.00    +0.000 C 
ATOM     27  O   UNL     1      -7.386   4.260 119.125  0.00  0.00    +0.000 OA
BRANCH  26  28
ATOM     28  O   UNL     1      -8.608   3.928 120.973  0.00  0.00    +0.000 OA
ATOM     29  H   UNL     1      -8.587   3.771 121.934  0.00  0.00    +0.000 HD
ENDBRANCH  26  28
ENDBRANCH  25  26
ENDBRANCH  24  25
ENDBRANCH  23  24
ENDBRANCH  22  23
ENDBRANCH  21  22
ENDBRANCH  20  21
ENDBRANCH   5  20
TORSDOF 13
ENDMDL
MODEL 2
REMARK VINA RESULT:      -7.3      9.211     12.478
REMARK  Name = Lubiprostone
REMARK  14 active torsions:
REMARK  status: ('A' for Active; 'I' for Inactive)
REMARK    1  A    between atoms: C_6  and  C_7
REMARK    2  A    between atoms: C_7  and  C_8
REMARK    3  A    between atoms: C_8  and  C_9
REMARK    4  A    between atoms: C_9  and  C_10
REMARK    5  A    between atoms: C_10  and  C_11
REMARK    6  A    between atoms: C_11  and  C_12
REMARK    7  A    between atoms: C_12  and  C_13
REMARK    8  A    between atoms: C_13  and  O_14
REMARK    9  A    between atoms: C_20  and  O_21
REMARK   10  A    between atoms: C_20  and  C_23
REMARK   11  A    between atoms: C_23  and  C_26
REMARK   12  A    between atoms: C_26  and  C_27
REMARK   13  A    between atoms: C_27  and  C_28
REMARK   14  A    between atoms: C_28  and  C_29
REMARK                            x       y       z     vdW  Elec       q    Type
REMARK                         _______ _______ _______ _____ _____    ______ ____
ROOT
ATOM      1  C   UNL     1      -9.687   4.022 130.627  0.00  0.00    +0.000 C 
ATOM      2  C   UNL     1      -9.958   2.590 131.097  0.00  0.00    +0.000 C 
ATOM      3  C   UNL     1      -9.004   2.488 132.267  0.00  0.00    +0.000 C 
ATOM      4  O   UNL     1      -8.649   1.430 132.773  0.00  0.00    +0.000 OA
ATOM      5  C   UNL     1      -8.547   3.845 132.755  0.00  0.00    +0.000 C 
ATOM      6  C   UNL     1      -9.424   4.750 131.928  0.00  0.00    +0.000 C 
ATOM      7  C   UNL     1      -8.820   6.100 131.617  0.00  0.00    +0.000 C 
ATOM      8  C   UNL     1      -9.906   6.881 130.904  0.00  0.00    +0.000 C 
ATOM      9  C   UNL     1     -10.590   6.097 129.751  0.00  0.00    +0.000 C 
ATOM     10  O   UNL     1     -10.782   4.675 129.998  0.00  0.00    +0.000 OA
ENDROOT
BRANCH   9  11
ATOM     11  C   UNL     1     -11.997   6.752 129.550  0.00  0.00    +0.000 C 
ATOM     12  F   UNL     1     -12.853   5.839 129.002  0.00  0.00    +0.000 F 
ATOM     13  F   UNL     1     -12.533   7.082 130.760  0.00  0.00    +0.000 F 
BRANCH  11  14
ATOM     14  C   UNL     1     -11.945   7.986 128.669  0.00  0.00    +0.000 C 
BRANCH  14  15
ATOM     15  C   UNL     1     -13.324   8.609 128.507  0.00  0.00    +0.000 C 
BRANCH  15  16
ATOM     16  C   UNL     1     -13.270  10.092 128.853  0.00  0.00    +0.000 C 
ATOM     17  C   UNL     1     -13.320  10.290 130.355  0.00  0.00    +0.000 C 
ENDBRANCH  15  16
ENDBRANCH  14  15
ENDBRANCH  11  14
ENDBRANCH   9  11
BRANCH   9  18
ATOM     18  O   UNL     1      -9.845   6.240 128.536  0.00  0.00    +0.000 OA
ATOM     19  H   UNL     1      -9.793   5.381 128.097  0.00  0.00    +0.000 HD
ENDBRANCH   9  18
BRANCH   5  20
ATOM     20  C   UNL     1      -8.858   4.068 134.225  0.00  0.00    +0.000 C 
BRANCH  20  21
ATOM     21  C   UNL     1      -7.603   4.522 134.934  0.00  0.00    +0.000 C 
BRANCH  21  22
ATOM     22  C   UNL     1      -7.770   5.943 135.422  0.00  0.00    +0.000 C 
BRANCH  22  23
ATOM     23  C   UNL     1      -7.032   6.104 136.738  0.00  0.00    +0.000 C 
BRANCH  23  24
ATOM     24  C   UNL     1      -7.389   7.448 137.339  0.00  0.00    +0.000 C 
BRANCH  24  25
ATOM     25  C   UNL     1      -8.801   7.454 137.890  0.00  0.00    +0.000 C 
BRANCH  25  26
ATOM     26  C   UNL     1      -9.635   8.648 137.489  0.00  0.00    +0.000 C 
ATOM     27  O   UNL     1      -9.821   9.589 138.255  0.00  0.00    +0.000 OA
BRANCH  26  28
ATOM     28  O   UNL     1     -10.167   8.646 136.253  0.00  0.00    +0.000 OA
ATOM     29  H   UNL     1      -9.718   9.170 135.565  0.00  0.00    +0.000 HD
ENDBRANCH  26  28
ENDBRANCH  25  26
ENDBRANCH  24  25
ENDBRANCH  23  24
ENDBRANCH  22  23
ENDBRANCH  21  22
ENDBRANCH  20  21
ENDBRANCH   5  20
TORSDOF 13
ENDMDL
MODEL 3
REMARK VINA RESULT:      -7.2      1.518      2.035
REMARK  Name = Lubiprostone
REMARK  14 active torsions:
REMARK  status: ('A' for Active; 'I' for Inactive)
REMARK    1  A    between atoms: C_6  and  C_7
REMARK    2  A    between atoms: C_7  and  C_8
REMARK    3  A    between atoms: C_8  and  C_9
REMARK    4  A    between atoms: C_9  and  C_10
REMARK    5  A    between atoms: C_10  and  C_11
REMARK    6  A    between atoms: C_11  and  C_12
REMARK    7  A    between atoms: C_12  and  C_13
REMARK    8  A    between atoms: C_13  and  O_14
REMARK    9  A    between atoms: C_20  and  O_21
REMARK   10  A    between atoms: C_20  and  C_23
REMARK   11  A    between atoms: C_23  and  C_26
REMARK   12  A    between atoms: C_26  and  C_27
REMARK   13  A    between atoms: C_27  and  C_28
REMARK   14  A    between atoms: C_28  and  C_29
REMARK                            x       y       z     vdW  Elec       q    Type
REMARK                         _______ _______ _______ _____ _____    ______ ____
ROOT
ATOM      1  C   UNL     1      -9.222  -0.270 126.168  0.00  0.00    +0.000 C 
ATOM      2  C   UNL     1      -9.175   1.241 125.918  0.00  0.00    +0.000 C 
ATOM      3  C   UNL     1      -8.330   1.698 127.087  0.00  0.00    +0.000 C 
ATOM      4  O   UNL     1      -8.267   2.857 127.477  0.00  0.00    +0.000 OA
ATOM      5  C   UNL     1      -7.553   0.560 127.712  0.00  0.00    +0.000 C 
ATOM      6  C   UNL     1      -7.847  -0.551 126.736  0.00  0.00    +0.000 C 
ATOM      7  C   UNL     1      -7.844  -1.936 127.340  0.00  0.00    +0.000 C 
ATOM      8  C   UNL     1      -8.027  -2.891 126.177  0.00  0.00    +0.000 C 
ATOM      9  C   UNL     1      -9.192  -2.505 125.224  0.00  0.00    +0.000 C 
ATOM     10  O   UNL     1      -9.365  -1.076 125.006  0.00  0.00    +0.000 OA
ENDROOT
BRANCH   9  11
ATOM     11  C   UNL     1      -8.871  -3.174 123.846  0.00  0.00    +0.000 C 
ATOM     12  F   UNL     1      -7.879  -4.097 124.005  0.00  0.00    +0.000 F 
ATOM     13  F   UNL     1      -9.958  -3.870 123.404  0.00  0.00    +0.000 F 
BRANCH  11  14
ATOM     14  C   UNL     1      -8.458  -2.165 122.791  0.00  0.00    +0.000 C 
BRANCH  14  15
ATOM     15  C   UNL     1      -6.968  -2.253 122.495  0.00  0.00    +0.000 C 
BRANCH  15  16
ATOM     16  C   UNL     1      -6.196  -1.322 123.422  0.00  0.00    +0.000 C 
ATOM     17  C   UNL     1      -5.226  -2.110 124.279  0.00  0.00    +0.000 C 
ENDBRANCH  15  16
ENDBRANCH  14  15
ENDBRANCH  11  14
ENDBRANCH   9  11
BRANCH   9  18
ATOM     18  O   UNL     1     -10.432  -3.033 125.708  0.00  0.00    +0.000 OA
ATOM     19  H   UNL     1     -11.030  -2.301 125.905  0.00  0.00    +0.000 HD
ENDBRANCH   9  18
BRANCH   5  20
ATOM     20  C   UNL     1      -6.056   0.818 127.727  0.00  0.00    +0.000 C 
BRANCH  20  21
ATOM     21  C   UNL     1      -5.571   1.009 126.309  0.00  0.00    +0.000 C 
BRANCH  21  22
ATOM     22  C   UNL     1      -4.511   2.086 126.266  0.00  0.00    +0.000 C 
BRANCH  22  23
ATOM     23  C   UNL     1      -5.148   3.390 125.823  0.00  0.00    +0.000 C 
BRANCH  23  24
ATOM     24  C   UNL     1      -5.999   3.129 124.597  0.00  0.00    +0.000 C 
BRANCH  24  25
ATOM     25  C   UNL     1      -5.621   4.045 123.451  0.00  0.00    +0.000 C 
BRANCH  25  26
ATOM     26  C   UNL     1      -6.178   3.645 122.106  0.00  0.00    +0.000 C 
ATOM     27  O   UNL     1      -7.334   3.248 121.981  0.00  0.00    +0.000 OA
BRANCH  26  28
ATOM     28  O   UNL     1      -5.361   3.742 121.041  0.00  0.00    +0.000 OA
ATOM     29  H   UNL     1      -4.908   4.591 120.892  0.00  0.00    +0.000 HD
ENDBRANCH  26  28
ENDBRANCH  25  26
ENDBRANCH  24  25
ENDBRANCH  23  24
ENDBRANCH  22  23
ENDBRANCH  21  22
ENDBRANCH  20  21
ENDBRANCH   5  20
TORSDOF 13
ENDMDL
MODEL 4
REMARK VINA RESULT:      -7.1      4.497      7.140
REMARK  Name = Lubiprostone
REMARK  14 active torsions:
REMARK  status: ('A' for Active; 'I' for Inactive)
REMARK    1  A    between atoms: C_6  and  C_7
REMARK    2  A    between atoms: C_7  and  C_8
REMARK    3  A    between atoms: C_8  and  C_9
REMARK    4  A    between atoms: C_9  and  C_10
REMARK    5  A    between atoms: C_10  and  C_11
REMARK    6  A    between atoms: C_11  and  C_12
REMARK    7  A    between atoms: C_12  and  C_13
REMARK    8  A    between atoms: C_13  and  O_14
REMARK    9  A    between atoms: C_20  and  O_21
REMARK   10  A    between atoms: C_20  and  C_23
REMARK   11  A    between atoms: C_23  and  C_26
REMARK   12  A    between atoms: C_26  and  C_27
REMARK   13  A    between atoms: C_27  and  C_28
REMARK   14  A    between atoms: C_28  and  C_29
REMARK                            x       y       z     vdW  Elec       q    Type
REMARK                         _______ _______ _______ _____ _____    ______ ____
ROOT
ATOM      1  C   UNL     1      -7.990  -1.395 128.043  0.00  0.00    +0.000 C 
ATOM      2  C   UNL     1      -7.030  -0.443 128.763  0.00  0.00    +0.000 C 
ATOM      3  C   UNL     1      -7.172  -0.920 130.192  0.00  0.00    +0.000 C 
ATOM      4  O   UNL     1      -6.825  -0.270 131.170  0.00  0.00    +0.000 OA
ATOM      5  C   UNL     1      -7.779  -2.304 130.277  0.00  0.00    +0.000 C 
ATOM      6  C   UNL     1      -7.816  -2.683 128.818  0.00  0.00    +0.000 C 
ATOM      7  C   UNL     1      -8.931  -3.632 128.443  0.00  0.00    +0.000 C 
ATOM      8  C   UNL     1      -8.703  -3.978 126.985  0.00  0.00    +0.000 C 
ATOM      9  C   UNL     1      -8.449  -2.743 126.078  0.00  0.00    +0.000 C 
ATOM     10  O   UNL     1      -7.667  -1.677 126.688  0.00  0.00    +0.000 OA
ENDROOT
BRANCH   9  11
ATOM     11  C   UNL     1      -7.668  -3.269 124.829  0.00  0.00    +0.000 C 
ATOM     12  F   UNL     1      -7.829  -4.620 124.724  0.00  0.00    +0.000 F 
ATOM     13  F   UNL     1      -8.204  -2.743 123.690  0.00  0.00    +0.000 F 
BRANCH  11  14
ATOM     14  C   UNL     1      -6.188  -2.940 124.886  0.00  0.00    +0.000 C 
BRANCH  14  15
ATOM     15  C   UNL     1      -5.624  -2.682 123.497  0.00  0.00    +0.000 C 
BRANCH  15  16
ATOM     16  C   UNL     1      -4.301  -3.417 123.327  0.00  0.00    +0.000 C 
ATOM     17  C   UNL     1      -4.466  -4.891 123.642  0.00  0.00    +0.000 C 
ENDBRANCH  15  16
ENDBRANCH  14  15
ENDBRANCH  11  14
ENDBRANCH   9  11
BRANCH   9  18
ATOM     18  O   UNL     1      -9.691  -2.183 125.635  0.00  0.00    +0.000 OA
ATOM     19  H   UNL     1      -9.884  -1.395 126.158  0.00  0.00    +0.000 HD
ENDBRANCH   9  18
BRANCH   5  20
ATOM     20  C   UNL     1      -6.887  -3.284 131.018  0.00  0.00    +0.000 C 
BRANCH  20  21
ATOM     21  C   UNL     1      -6.048  -4.046 130.019  0.00  0.00    +0.000 C 
BRANCH  21  22
ATOM     22  C   UNL     1      -4.588  -3.966 130.401  0.00  0.00    +0.000 C 
BRANCH  22  23
ATOM     23  C   UNL     1      -3.882  -3.010 129.456  0.00  0.00    +0.000 C 
BRANCH  23  24
ATOM     24  C   UNL     1      -3.532  -1.744 130.211  0.00  0.00    +0.000 C 
BRANCH  24  25
ATOM     25  C   UNL     1      -3.373  -2.006 131.695  0.00  0.00    +0.000 C 
BRANCH  25  26
ATOM     26  C   UNL     1      -3.944  -0.936 132.594  0.00  0.00    +0.000 C 
ATOM     27  O   UNL     1      -3.488   0.204 132.608  0.00  0.00    +0.000 OA
BRANCH  26  28
ATOM     28  O   UNL     1      -4.981  -1.275 133.383  0.00  0.00    +0.000 OA
ATOM     29  H   UNL     1      -5.563  -0.561 133.699  0.00  0.00    +0.000 HD
ENDBRANCH  26  28
ENDBRANCH  25  26
ENDBRANCH  24  25
ENDBRANCH  23  24
ENDBRANCH  22  23
ENDBRANCH  21  22
ENDBRANCH  20  21
ENDBRANCH   5  20
TORSDOF 13
ENDMDL
MODEL 5
REMARK VINA RESULT:      -7.0      5.323      8.485
REMARK  Name = Lubiprostone
REMARK  14 active torsions:
REMARK  status: ('A' for Active; 'I' for Inactive)
REMARK    1  A    between atoms: C_6  and  C_7
REMARK    2  A    between atoms: C_7  and  C_8
REMARK    3  A    between atoms: C_8  and  C_9
REMARK    4  A    between atoms: C_9  and  C_10
REMARK    5  A    between atoms: C_10  and  C_11
REMARK    6  A    between atoms: C_11  and  C_12
REMARK    7  A    between atoms: C_12  and  C_13
REMARK    8  A    between atoms: C_13  and  O_14
REMARK    9  A    between atoms: C_20  and  O_21
REMARK   10  A    between atoms: C_20  and  C_23
REMARK   11  A    between atoms: C_23  and  C_26
REMARK   12  A    between atoms: C_26  and  C_27
REMARK   13  A    between atoms: C_27  and  C_28
REMARK   14  A    between atoms: C_28  and  C_29
REMARK                            x       y       z     vdW  Elec       q    Type
REMARK                         _______ _______ _______ _____ _____    ______ ____
ROOT
ATOM      1  C   UNL     1      -8.041  -1.309 127.813  0.00  0.00    +0.000 C 
ATOM      2  C   UNL     1      -7.131  -0.322 128.551  0.00  0.00    +0.000 C 
ATOM      3  C   UNL     1      -7.284  -0.803 129.977  0.00  0.00    +0.000 C 
ATOM      4  O   UNL     1      -6.980  -0.140 130.961  0.00  0.00    +0.000 OA
ATOM      5  C   UNL     1      -7.842  -2.208 130.052  0.00  0.00    +0.000 C 
ATOM      6  C   UNL     1      -7.836  -2.590 128.594  0.00  0.00    +0.000 C 
ATOM      7  C   UNL     1      -8.909  -3.578 128.197  0.00  0.00    +0.000 C 
ATOM      8  C   UNL     1      -8.638  -3.916 126.745  0.00  0.00    +0.000 C 
ATOM      9  C   UNL     1      -8.412  -2.674 125.841  0.00  0.00    +0.000 C 
ATOM     10  O   UNL     1      -7.680  -1.580 126.466  0.00  0.00    +0.000 OA
ENDROOT
BRANCH   9  11
ATOM     11  C   UNL     1      -7.587  -3.172 124.608  0.00  0.00    +0.000 C 
ATOM     12  F   UNL     1      -7.706  -4.527 124.496  0.00  0.00    +0.000 F 
ATOM     13  F   UNL     1      -8.112  -2.658 123.459  0.00  0.00    +0.000 F 
BRANCH  11  14
ATOM     14  C   UNL     1      -6.119  -2.800 124.701  0.00  0.00    +0.000 C 
BRANCH  14  15
ATOM     15  C   UNL     1      -5.472  -2.756 123.324  0.00  0.00    +0.000 C 
BRANCH  15  16
ATOM     16  C   UNL     1      -4.147  -3.507 123.347  0.00  0.00    +0.000 C 
ATOM     17  C   UNL     1      -4.379  -4.989 123.562  0.00  0.00    +0.000 C 
ENDBRANCH  15  16
ENDBRANCH  14  15
ENDBRANCH  11  14
ENDBRANCH   9  11
BRANCH   9  18
ATOM     18  O   UNL     1      -9.664  -2.159 125.373  0.00  0.00    +0.000 OA
ATOM     19  H   UNL     1      -9.712  -2.276 124.415  0.00  0.00    +0.000 HD
ENDBRANCH   9  18
BRANCH   5  20
ATOM     20  C   UNL     1      -6.930  -3.155 130.812  0.00  0.00    +0.000 C 
BRANCH  20  21
ATOM     21  C   UNL     1      -5.698  -3.433 129.982  0.00  0.00    +0.000 C 
BRANCH  21  22
ATOM     22  C   UNL     1      -4.692  -4.214 130.795  0.00  0.00    +0.000 C 
BRANCH  22  23
ATOM     23  C   UNL     1      -5.413  -5.318 131.546  0.00  0.00    +0.000 C 
BRANCH  23  24
ATOM     24  C   UNL     1      -4.924  -5.337 132.979  0.00  0.00    +0.000 C 
BRANCH  24  25
ATOM     25  C   UNL     1      -3.757  -4.391 133.182  0.00  0.00    +0.000 C 
BRANCH  25  26
ATOM     26  C   UNL     1      -2.758  -4.829 134.226  0.00  0.00    +0.000 C 
ATOM     27  O   UNL     1      -3.115  -5.322 135.292  0.00  0.00    +0.000 OA
BRANCH  26  28
ATOM     28  O   UNL     1      -1.452  -4.662 133.944  0.00  0.00    +0.000 OA
ATOM     29  H   UNL     1      -1.000  -5.372 133.454  0.00  0.00    +0.000 HD
ENDBRANCH  26  28
ENDBRANCH  25  26
ENDBRANCH  24  25
ENDBRANCH  23  24
ENDBRANCH  22  23
ENDBRANCH  21  22
ENDBRANCH  20  21
ENDBRANCH   5  20
TORSDOF 13
ENDMDL
MODEL 6
REMARK VINA RESULT:      -6.9      2.985      3.894
REMARK  Name = Lubiprostone
REMARK  14 active torsions:
REMARK  status: ('A' for Active; 'I' for Inactive)
REMARK    1  A    between atoms: C_6  and  C_7
REMARK    2  A    between atoms: C_7  and  C_8
REMARK    3  A    between atoms: C_8  and  C_9
REMARK    4  A    between atoms: C_9  and  C_10
REMARK    5  A    between atoms: C_10  and  C_11
REMARK    6  A    between atoms: C_11  and  C_12
REMARK    7  A    between atoms: C_12  and  C_13
REMARK    8  A    between atoms: C_13  and  O_14
REMARK    9  A    between atoms: C_20  and  O_21
REMARK   10  A    between atoms: C_20  and  C_23
REMARK   11  A    between atoms: C_23  and  C_26
REMARK   12  A    between atoms: C_26  and  C_27
REMARK   13  A    between atoms: C_27  and  C_28
REMARK   14  A    between atoms: C_28  and  C_29
REMARK                            x       y       z     vdW  Elec       q    Type
REMARK                         _______ _______ _______ _____ _____    ______ ____
ROOT
ATOM      1  C   UNL     1      -9.003  -0.226 126.177  0.00  0.00    +0.000 C 
ATOM      2  C   UNL     1      -8.841   1.279 125.943  0.00  0.00    +0.000 C 
ATOM      3  C   UNL     1      -8.393   1.735 127.314  0.00  0.00    +0.000 C 
ATOM      4  O   UNL     1      -8.426   2.898 127.695  0.00  0.00    +0.000 OA
ATOM      5  C   UNL     1      -7.881   0.590 128.160  0.00  0.00    +0.000 C 
ATOM      6  C   UNL     1      -7.884  -0.529 127.150  0.00  0.00    +0.000 C 
ATOM      7  C   UNL     1      -8.106  -1.905 127.734  0.00  0.00    +0.000 C 
ATOM      8  C   UNL     1      -7.940  -2.873 126.580  0.00  0.00    +0.000 C 
ATOM      9  C   UNL     1      -8.737  -2.476 125.307  0.00  0.00    +0.000 C 
ATOM     10  O   UNL     1      -8.796  -1.047 125.035  0.00  0.00    +0.000 OA
ENDROOT
BRANCH   9  11
ATOM     11  C   UNL     1      -8.018  -3.173 124.104  0.00  0.00    +0.000 C 
ATOM     12  F   UNL     1      -7.552  -4.395 124.496  0.00  0.00    +0.000 F 
ATOM     13  F   UNL     1      -8.915  -3.421 123.108  0.00  0.00    +0.000 F 
BRANCH  11  14
ATOM     14  C   UNL     1      -6.871  -2.348 123.554  0.00  0.00    +0.000 C 
BRANCH  14  15
ATOM     15  C   UNL     1      -5.557  -2.703 124.235  0.00  0.00    +0.000 C 
BRANCH  15  16
ATOM     16  C   UNL     1      -4.607  -3.345 123.232  0.00  0.00    +0.000 C 
ATOM     17  C   UNL     1      -4.367  -4.800 123.583  0.00  0.00    +0.000 C 
ENDBRANCH  15  16
ENDBRANCH  14  15
ENDBRANCH  11  14
ENDBRANCH   9  11
BRANCH   9  18
ATOM     18  O   UNL     1     -10.080  -2.969 125.382  0.00  0.00    +0.000 OA
ATOM     19  H   UNL     1     -10.226  -3.592 124.659  0.00  0.00    +0.000 HD
ENDBRANCH   9  18
BRANCH   5  20
ATOM     20  C   UNL     1      -6.458   0.814 128.642  0.00  0.00    +0.000 C 
BRANCH  20  21
ATOM     21  C   UNL     1      -5.536   0.893 127.447  0.00  0.00    +0.000 C 
BRANCH  21  22
ATOM     22  C   UNL     1      -4.612   2.081 127.585  0.00  0.00    +0.000 C 
BRANCH  22  23
ATOM     23  C   UNL     1      -5.040   3.156 126.602  0.00  0.00    +0.000 C 
BRANCH  23  24
ATOM     24  C   UNL     1      -3.805   3.857 126.074  0.00  0.00    +0.000 C 
BRANCH  24  25
ATOM     25  C   UNL     1      -2.865   4.249 127.196  0.00  0.00    +0.000 C 
BRANCH  25  26
ATOM     26  C   UNL     1      -3.152   5.591 127.826  0.00  0.00    +0.000 C 
ATOM     27  O   UNL     1      -4.135   6.254 127.508  0.00  0.00    +0.000 OA
BRANCH  26  28
ATOM     28  O   UNL     1      -2.289   6.037 128.758  0.00  0.00    +0.000 OA
ATOM     29  H   UNL     1      -1.616   5.415 129.088  0.00  0.00    +0.000 HD
ENDBRANCH  26  28
ENDBRANCH  25  26
ENDBRANCH  24  25
ENDBRANCH  23  24
ENDBRANCH  22  23
ENDBRANCH  21  22
ENDBRANCH  20  21
ENDBRANCH   5  20
TORSDOF 13
ENDMDL
MODEL 7
REMARK VINA RESULT:      -6.9      2.478      3.789
REMARK  Name = Lubiprostone
REMARK  14 active torsions:
REMARK  status: ('A' for Active; 'I' for Inactive)
REMARK    1  A    between atoms: C_6  and  C_7
REMARK    2  A    between atoms: C_7  and  C_8
REMARK    3  A    between atoms: C_8  and  C_9
REMARK    4  A    between atoms: C_9  and  C_10
REMARK    5  A    between atoms: C_10  and  C_11
REMARK    6  A    between atoms: C_11  and  C_12
REMARK    7  A    between atoms: C_12  and  C_13
REMARK    8  A    between atoms: C_13  and  O_14
REMARK    9  A    between atoms: C_20  and  O_21
REMARK   10  A    between atoms: C_20  and  C_23
REMARK   11  A    between atoms: C_23  and  C_26
REMARK   12  A    between atoms: C_26  and  C_27
REMARK   13  A    between atoms: C_27  and  C_28
REMARK   14  A    between atoms: C_28  and  C_29
REMARK                            x       y       z     vdW  Elec       q    Type
REMARK                         _______ _______ _______ _____ _____    ______ ____
ROOT
ATOM      1  C   UNL     1      -9.149   0.325 125.004  0.00  0.00    +0.000 C 
ATOM      2  C   UNL     1      -9.107   1.587 124.137  0.00  0.00    +0.000 C 
ATOM      3  C   UNL     1      -8.668   2.618 125.154  0.00  0.00    +0.000 C 
ATOM      4  O   UNL     1      -8.783   3.827 124.998  0.00  0.00    +0.000 OA
ATOM      5  C   UNL     1      -8.054   1.985 126.383  0.00  0.00    +0.000 C 
ATOM      6  C   UNL     1      -7.991   0.542 125.954  0.00  0.00    +0.000 C 
ATOM      7  C   UNL     1      -8.096  -0.456 127.085  0.00  0.00    +0.000 C 
ATOM      8  C   UNL     1      -7.879  -1.817 126.453  0.00  0.00    +0.000 C 
ATOM      9  C   UNL     1      -8.728  -2.059 125.175  0.00  0.00    +0.000 C 
ATOM     10  O   UNL     1      -8.902  -0.895 124.318  0.00  0.00    +0.000 OA
ENDROOT
BRANCH   9  11
ATOM     11  C   UNL     1      -7.982  -3.163 124.355  0.00  0.00    +0.000 C 
ATOM     12  F   UNL     1      -8.505  -4.388 124.654  0.00  0.00    +0.000 F 
ATOM     13  F   UNL     1      -8.204  -2.981 123.021  0.00  0.00    +0.000 F 
BRANCH  11  14
ATOM     14  C   UNL     1      -6.488  -3.174 124.618  0.00  0.00    +0.000 C 
BRANCH  14  15
ATOM     15  C   UNL     1      -5.705  -2.743 123.387  0.00  0.00    +0.000 C 
BRANCH  15  16
ATOM     16  C   UNL     1      -4.317  -3.370 123.405  0.00  0.00    +0.000 C 
ATOM     17  C   UNL     1      -4.417  -4.878 123.518  0.00  0.00    +0.000 C 
ENDBRANCH  15  16
ENDBRANCH  14  15
ENDBRANCH  11  14
ENDBRANCH   9  11
BRANCH   9  18
ATOM     18  O   UNL     1     -10.028  -2.551 125.523  0.00  0.00    +0.000 OA
ATOM     19  H   UNL     1     -10.033  -3.513 125.432  0.00  0.00    +0.000 HD
ENDBRANCH   9  18
BRANCH   5  20
ATOM     20  C   UNL     1      -6.644   2.482 126.648  0.00  0.00    +0.000 C 
BRANCH  20  21
ATOM     21  C   UNL     1      -6.494   2.792 128.120  0.00  0.00    +0.000 C 
BRANCH  21  22
ATOM     22  C   UNL     1      -6.067   4.230 128.305  0.00  0.00    +0.000 C 
BRANCH  22  23
ATOM     23  C   UNL     1      -4.988   4.292 129.370  0.00  0.00    +0.000 C 
BRANCH  23  24
ATOM     24  C   UNL     1      -3.912   3.279 129.039  0.00  0.00    +0.000 C 
BRANCH  24  25
ATOM     25  C   UNL     1      -2.762   3.916 128.285  0.00  0.00    +0.000 C 
BRANCH  25  26
ATOM     26  C   UNL     1      -2.532   3.370 126.896  0.00  0.00    +0.000 C 
ATOM     27  O   UNL     1      -3.277   3.652 125.962  0.00  0.00    +0.000 OA
BRANCH  26  28
ATOM     28  O   UNL     1      -1.472   2.561 126.715  0.00  0.00    +0.000 OA
ATOM     29  H   UNL     1      -1.243   2.311 125.801  0.00  0.00    +0.000 HD
ENDBRANCH  26  28
ENDBRANCH  25  26
ENDBRANCH  24  25
ENDBRANCH  23  24
ENDBRANCH  22  23
ENDBRANCH  21  22
ENDBRANCH  20  21
ENDBRANCH   5  20
TORSDOF 13
ENDMDL
MODEL 8
REMARK VINA RESULT:      -6.9      3.233      6.804
REMARK  Name = Lubiprostone
REMARK  14 active torsions:
REMARK  status: ('A' for Active; 'I' for Inactive)
REMARK    1  A    between atoms: C_6  and  C_7
REMARK    2  A    between atoms: C_7  and  C_8
REMARK    3  A    between atoms: C_8  and  C_9
REMARK    4  A    between atoms: C_9  and  C_10
REMARK    5  A    between atoms: C_10  and  C_11
REMARK    6  A    between atoms: C_11  and  C_12
REMARK    7  A    between atoms: C_12  and  C_13
REMARK    8  A    between atoms: C_13  and  O_14
REMARK    9  A    between atoms: C_20  and  O_21
REMARK   10  A    between atoms: C_20  and  C_23
REMARK   11  A    between atoms: C_23  and  C_26
REMARK   12  A    between atoms: C_26  and  C_27
REMARK   13  A    between atoms: C_27  and  C_28
REMARK   14  A    between atoms: C_28  and  C_29
REMARK                            x       y       z     vdW  Elec       q    Type
REMARK                         _______ _______ _______ _____ _____    ______ ____
ROOT
ATOM      1  C   UNL     1      -8.773   1.487 125.355  0.00  0.00    +0.000 C 
ATOM      2  C   UNL     1      -8.706   0.196 126.176  0.00  0.00    +0.000 C 
ATOM      3  C   UNL     1      -9.201  -0.813 125.164  0.00  0.00    +0.000 C 
ATOM      4  O   UNL     1      -9.603  -1.934 125.452  0.00  0.00    +0.000 OA
ATOM      5  C   UNL     1      -9.129  -0.287 123.747  0.00  0.00    +0.000 C 
ATOM      6  C   UNL     1      -8.398   1.013 123.967  0.00  0.00    +0.000 C 
ATOM      7  C   UNL     1      -8.734   2.101 122.973  0.00  0.00    +0.000 C 
ATOM      8  C   UNL     1      -7.803   3.252 123.295  0.00  0.00    +0.000 C 
ATOM      9  C   UNL     1      -7.757   3.621 124.804  0.00  0.00    +0.000 C 
ATOM     10  O   UNL     1      -7.836   2.491 125.719  0.00  0.00    +0.000 OA
ENDROOT
BRANCH   9  11
ATOM     11  C   UNL     1      -6.390   4.345 125.037  0.00  0.00    +0.000 C 
ATOM     12  F   UNL     1      -5.556   4.099 123.985  0.00  0.00    +0.000 F 
ATOM     13  F   UNL     1      -6.576   5.696 125.054  0.00  0.00    +0.000 F 
BRANCH  11  14
ATOM     14  C   UNL     1      -5.716   3.915 126.327  0.00  0.00    +0.000 C 
BRANCH  14  15
ATOM     15  C   UNL     1      -4.424   3.160 126.051  0.00  0.00    +0.000 C 
BRANCH  15  16
ATOM     16  C   UNL     1      -3.273   3.800 126.817  0.00  0.00    +0.000 C 
ATOM     17  C   UNL     1      -1.946   3.224 126.362  0.00  0.00    +0.000 C 
ENDBRANCH  15  16
ENDBRANCH  14  15
ENDBRANCH  11  14
ENDBRANCH   9  11
BRANCH   9  18
ATOM     18  O   UNL     1      -8.815   4.531 125.130  0.00  0.00    +0.000 OA
ATOM     19  H   UNL     1      -9.239   4.238 125.946  0.00  0.00    +0.000 HD
ENDBRANCH   9  18
BRANCH   5  20
ATOM     20  C   UNL     1      -8.295  -1.174 122.840  0.00  0.00    +0.000 C 
BRANCH  20  21
ATOM     21  C   UNL     1      -6.831  -0.960 123.146  0.00  0.00    +0.000 C 
BRANCH  21  22
ATOM     22  C   UNL     1      -6.057  -2.231 122.882  0.00  0.00    +0.000 C 
BRANCH  22  23
ATOM     23  C   UNL     1      -5.318  -2.632 124.146  0.00  0.00    +0.000 C 
BRANCH  23  24
ATOM     24  C   UNL     1      -5.557  -1.579 125.208  0.00  0.00    +0.000 C 
BRANCH  24  25
ATOM     25  C   UNL     1      -6.042  -2.197 126.505  0.00  0.00    +0.000 C 
BRANCH  25  26
ATOM     26  C   UNL     1      -5.156  -1.942 127.701  0.00  0.00    +0.000 C 
ATOM     27  O   UNL     1      -4.674  -2.865 128.352  0.00  0.00    +0.000 OA
BRANCH  26  28
ATOM     28  O   UNL     1      -4.907  -0.661 128.028  0.00  0.00    +0.000 OA
ATOM     29  H   UNL     1      -4.167  -0.213 127.580  0.00  0.00    +0.000 HD
ENDBRANCH  26  28
ENDBRANCH  25  26
ENDBRANCH  24  25
ENDBRANCH  23  24
ENDBRANCH  22  23
ENDBRANCH  21  22
ENDBRANCH  20  21
ENDBRANCH   5  20
TORSDOF 13
ENDMDL
MODEL 9
REMARK VINA RESULT:      -6.9      8.356     10.832
REMARK  Name = Lubiprostone
REMARK  14 active torsions:
REMARK  status: ('A' for Active; 'I' for Inactive)
REMARK    1  A    between atoms: C_6  and  C_7
REMARK    2  A    between atoms: C_7  and  C_8
REMARK    3  A    between atoms: C_8  and  C_9
REMARK    4  A    between atoms: C_9  and  C_10
REMARK    5  A    between atoms: C_10  and  C_11
REMARK    6  A    between atoms: C_11  and  C_12
REMARK    7  A    between atoms: C_12  and  C_13
REMARK    8  A    between atoms: C_13  and  O_14
REMARK    9  A    between atoms: C_20  and  O_21
REMARK   10  A    between atoms: C_20  and  C_23
REMARK   11  A    between atoms: C_23  and  C_26
REMARK   12  A    between atoms: C_26  and  C_27
REMARK   13  A    between atoms: C_27  and  C_28
REMARK   14  A    between atoms: C_28  and  C_29
REMARK                            x       y       z     vdW  Elec       q    Type
REMARK                         _______ _______ _______ _____ _____    ______ ____
ROOT
ATOM      1  C   UNL     1      -9.704   4.246 130.396  0.00  0.00    +0.000 C 
ATOM      2  C   UNL     1     -10.128   2.920 131.035  0.00  0.00    +0.000 C 
ATOM      3  C   UNL     1      -9.207   2.874 132.235  0.00  0.00    +0.000 C 
ATOM      4  O   UNL     1      -8.971   1.860 132.880  0.00  0.00    +0.000 OA
ATOM      5  C   UNL     1      -8.622   4.231 132.561  0.00  0.00    +0.000 C 
ATOM      6  C   UNL     1      -9.388   5.105 131.602  0.00  0.00    +0.000 C 
ATOM      7  C   UNL     1      -8.644   6.337 131.141  0.00  0.00    +0.000 C 
ATOM      8  C   UNL     1      -9.633   7.125 130.305  0.00  0.00    +0.000 C 
ATOM      9  C   UNL     1     -10.376   6.272 129.241  0.00  0.00    +0.000 C 
ATOM     10  O   UNL     1     -10.716   4.919 129.660  0.00  0.00    +0.000 OA
ENDROOT
BRANCH   9  11
ATOM     11  C   UNL     1     -11.706   7.032 128.919  0.00  0.00    +0.000 C 
ATOM     12  F   UNL     1     -12.041   6.835 127.611  0.00  0.00    +0.000 F 
ATOM     13  F   UNL     1     -12.730   6.505 129.648  0.00  0.00    +0.000 F 
BRANCH  11  14
ATOM     14  C   UNL     1     -11.606   8.520 129.195  0.00  0.00    +0.000 C 
BRANCH  14  15
ATOM     15  C   UNL     1     -12.838   9.031 129.930  0.00  0.00    +0.000 C 
BRANCH  15  16
ATOM     16  C   UNL     1     -13.465  10.185 129.158  0.00  0.00    +0.000 C 
ATOM     17  C   UNL     1     -13.641  11.392 130.057  0.00  0.00    +0.000 C 
ENDBRANCH  15  16
ENDBRANCH  14  15
ENDBRANCH  11  14
ENDBRANCH   9  11
BRANCH   9  18
ATOM     18  O   UNL     1      -9.602   6.182 128.039  0.00  0.00    +0.000 OA
ATOM     19  H   UNL     1      -9.351   5.261 127.895  0.00  0.00    +0.000 HD
ENDBRANCH   9  18
BRANCH   5  20
ATOM     20  C   UNL     1      -8.930   4.670 133.982  0.00  0.00    +0.000 C 
BRANCH  20  21
ATOM     21  C   UNL     1      -7.636   4.972 134.701  0.00  0.00    +0.000 C 
BRANCH  21  22
ATOM     22  C   UNL     1      -6.460   4.595 133.829  0.00  0.00    +0.000 C 
BRANCH  22  23
ATOM     23  C   UNL     1      -5.709   5.855 133.440  0.00  0.00    +0.000 C 
BRANCH  23  24
ATOM     24  C   UNL     1      -5.053   5.639 132.091  0.00  0.00    +0.000 C 
BRANCH  24  25
ATOM     25  C   UNL     1      -5.009   6.921 131.283  0.00  0.00    +0.000 C 
BRANCH  25  26
ATOM     26  C   UNL     1      -4.128   6.869 130.058  0.00  0.00    +0.000 C 
ATOM     27  O   UNL     1      -4.279   7.650 129.122  0.00  0.00    +0.000 OA
BRANCH  26  28
ATOM     28  O   UNL     1      -3.161   5.933 130.027  0.00  0.00    +0.000 OA
ATOM     29  H   UNL     1      -3.416   5.025 129.784  0.00  0.00    +0.000 HD
ENDBRANCH  26  28
ENDBRANCH  25  26
ENDBRANCH  24  25
ENDBRANCH  23  24
ENDBRANCH  22  23
ENDBRANCH  21  22
ENDBRANCH  20  21
ENDBRANCH   5  20
TORSDOF 13
ENDMDL
