MODEL 1
REMARK VINA RESULT:      -6.7      0.000      0.000
REMARK  Name = Luliconazole
REMARK  3 active torsions:
REMARK  status: ('A' for Active; 'I' for Inactive)
REMARK    1  A    between atoms: C_6  and  C_9
REMARK    2  A    between atoms: C_14  and  C_15
REMARK    3  A    between atoms: C_14  and  N_17
REMARK                            x       y       z     vdW  Elec       q    Type
REMARK                         _______ _______ _______ _____ _____    ______ ____
ROOT
ATOM      1  C   UNL     1      -8.003  -0.673 125.485  0.00  0.00    +0.000 C 
ATOM      2  C   UNL     1      -7.294  -1.167 124.217  0.00  0.00    +0.000 C 
ATOM      3  S   UNL     1      -6.838   0.226 123.161  0.00  0.00    +0.000 S 
ATOM      4  C   UNL     1      -7.406   1.476 124.228  0.00  0.00    +0.000 C 
ATOM      5  S   UNL     1      -7.523   1.033 125.883  0.00  0.00    +0.000 S 
ATOM      6  C   UNL     1      -7.724   2.709 123.822  0.00  0.00    +0.000 C 
ENDROOT
BRANCH   1  12
ATOM      7 CL   UNL     1      -6.847  -3.785 130.485  0.00  0.00    +0.000 Cl
ATOM      8  C   UNL     1      -7.175  -2.909 129.044  0.00  0.00    +0.000 A 
ATOM      9  C   UNL     1      -8.210  -3.324 128.205  0.00  0.00    +0.000 A 
ATOM     10  C   UNL     1      -8.478  -2.624 127.034  0.00  0.00    +0.000 A 
ATOM     11 CL   UNL     1      -9.796  -3.167 126.057  0.00  0.00    +0.000 Cl
ATOM     12  C   UNL     1      -7.702  -1.512 126.692  0.00  0.00    +0.000 A 
ATOM     13  C   UNL     1      -6.662  -1.105 127.559  0.00  0.00    +0.000 A 
ATOM     14  C   UNL     1      -6.404  -1.797 128.732  0.00  0.00    +0.000 A 
ENDBRANCH   1  12
BRANCH   6  15
ATOM     15  N   UNL     1      -7.658   3.114 122.478  0.00  0.00    +0.000 N 
ATOM     16  C   UNL     1      -6.550   3.556 121.776  0.00  0.00    +0.000 A 
ATOM     17  C   UNL     1      -7.011   3.977 120.549  0.00  0.00    +0.000 A 
ATOM     18  N   UNL     1      -8.361   3.808 120.463  0.00  0.00    +0.000 NA
ATOM     19  C   UNL     1      -8.723   3.288 121.619  0.00  0.00    +0.000 A 
ENDBRANCH   6  15
BRANCH   6  20
ATOM     20  C   UNL     1      -8.182   3.751 124.831  0.00  0.00    +0.000 C 
ATOM     21  N   UNL     1      -8.562   4.615 125.667  0.00  0.00    +0.000 NA
ENDBRANCH   6  20
TORSDOF 3
ENDMDL
MODEL 2
REMARK VINA RESULT:      -6.3      8.075     10.637
REMARK  Name = Luliconazole
REMARK  3 active torsions:
REMARK  status: ('A' for Active; 'I' for Inactive)
REMARK    1  A    between atoms: C_6  and  C_9
REMARK    2  A    between atoms: C_14  and  C_15
REMARK    3  A    between atoms: C_14  and  N_17
REMARK                            x       y       z     vdW  Elec       q    Type
REMARK                         _______ _______ _______ _____ _____    ______ ____
ROOT
ATOM      1  C   UNL     1     -10.217   5.712 129.865  0.00  0.00    +0.000 C 
ATOM      2  C   UNL     1     -10.940   4.441 130.330  0.00  0.00    +0.000 C 
ATOM      3  S   UNL     1      -9.949   3.559 131.556  0.00  0.00    +0.000 S 
ATOM      4  C   UNL     1      -8.652   4.716 131.630  0.00  0.00    +0.000 C 
ATOM      5  S   UNL     1      -9.058   6.307 131.132  0.00  0.00    +0.000 S 
ATOM      6  C   UNL     1      -7.419   4.421 132.053  0.00  0.00    +0.000 C 
ENDROOT
BRANCH   1  12
ATOM      7 CL   UNL     1     -13.828  10.395 128.838  0.00  0.00    +0.000 Cl
ATOM      8  C   UNL     1     -12.803   9.046 129.119  0.00  0.00    +0.000 A 
ATOM      9  C   UNL     1     -12.026   8.541 128.076  0.00  0.00    +0.000 A 
ATOM     10  C   UNL     1     -11.198   7.445 128.294  0.00  0.00    +0.000 A 
ATOM     11 CL   UNL     1     -10.233   6.890 126.972  0.00  0.00    +0.000 Cl
ATOM     12  C   UNL     1     -11.155   6.842 129.556  0.00  0.00    +0.000 A 
ATOM     13  C   UNL     1     -11.947   7.373 130.600  0.00  0.00    +0.000 A 
ATOM     14  C   UNL     1     -12.762   8.473 130.384  0.00  0.00    +0.000 A 
ENDBRANCH   1  12
BRANCH   6  15
ATOM     15  N   UNL     1      -7.036   3.131 132.457  0.00  0.00    +0.000 N 
ATOM     16  C   UNL     1      -6.526   2.109 131.674  0.00  0.00    +0.000 A 
ATOM     17  C   UNL     1      -6.449   1.000 132.486  0.00  0.00    +0.000 A 
ATOM     18  N   UNL     1      -6.887   1.297 133.742  0.00  0.00    +0.000 NA
ATOM     19  C   UNL     1      -7.225   2.571 133.704  0.00  0.00    +0.000 A 
ENDBRANCH   6  15
BRANCH   6  20
ATOM     20  C   UNL     1      -6.354   5.504 132.116  0.00  0.00    +0.000 C 
ATOM     21  N   UNL     1      -5.471   6.403 132.168  0.00  0.00    +0.000 NA
ENDBRANCH   6  20
TORSDOF 3
ENDMDL
MODEL 3
REMARK VINA RESULT:      -6.2      3.753      4.961
REMARK  Name = Luliconazole
REMARK  3 active torsions:
REMARK  status: ('A' for Active; 'I' for Inactive)
REMARK    1  A    between atoms: C_6  and  C_9
REMARK    2  A    between atoms: C_14  and  C_15
REMARK    3  A    between atoms: C_14  and  N_17
REMARK                            x       y       z     vdW  Elec       q    Type
REMARK                         _______ _______ _______ _____ _____    ______ ____
ROOT
ATOM      1  C   UNL     1      -7.580  -2.707 129.438  0.00  0.00    +0.000 C 
ATOM      2  C   UNL     1      -8.640  -3.571 128.741  0.00  0.00    +0.000 C 
ATOM      3  S   UNL     1      -8.694  -3.207 126.973  0.00  0.00    +0.000 S 
ATOM      4  C   UNL     1      -7.390  -2.056 126.968  0.00  0.00    +0.000 C 
ATOM      5  S   UNL     1      -6.282  -2.196 128.272  0.00  0.00    +0.000 S 
ATOM      6  C   UNL     1      -7.226  -1.125 126.024  0.00  0.00    +0.000 C 
ENDROOT
BRANCH   1  12
ATOM      7 CL   UNL     1      -4.601  -5.473 133.854  0.00  0.00    +0.000 Cl
ATOM      8  C   UNL     1      -5.469  -4.684 132.599  0.00  0.00    +0.000 A 
ATOM      9  C   UNL     1      -6.273  -3.585 132.901  0.00  0.00    +0.000 A 
ATOM     10  C   UNL     1      -6.984  -2.945 131.891  0.00  0.00    +0.000 A 
ATOM     11 CL   UNL     1      -7.933  -1.568 132.324  0.00  0.00    +0.000 Cl
ATOM     12  C   UNL     1      -6.901  -3.412 130.575  0.00  0.00    +0.000 A 
ATOM     13  C   UNL     1      -6.075  -4.524 130.290  0.00  0.00    +0.000 A 
ATOM     14  C   UNL     1      -5.358  -5.153 131.296  0.00  0.00    +0.000 A 
ENDBRANCH   1  12
BRANCH   6  15
ATOM     15  N   UNL     1      -8.113  -0.964 124.946  0.00  0.00    +0.000 N 
ATOM     16  C   UNL     1      -8.072  -1.583 123.708  0.00  0.00    +0.000 A 
ATOM     17  C   UNL     1      -9.054  -0.993 122.946  0.00  0.00    +0.000 A 
ATOM     18  N   UNL     1      -9.705  -0.035 123.664  0.00  0.00    +0.000 NA
ATOM     19  C   UNL     1      -9.134  -0.040 124.853  0.00  0.00    +0.000 A 
ENDBRANCH   6  15
BRANCH   6  20
ATOM     20  C   UNL     1      -6.037  -0.180 126.081  0.00  0.00    +0.000 C 
ATOM     21  N   UNL     1      -5.050   0.604 126.128  0.00  0.00    +0.000 NA
ENDBRANCH   6  20
TORSDOF 3
ENDMDL
MODEL 4
REMARK VINA RESULT:      -6.0      1.692      2.072
REMARK  Name = Luliconazole
REMARK  3 active torsions:
REMARK  status: ('A' for Active; 'I' for Inactive)
REMARK    1  A    between atoms: C_6  and  C_9
REMARK    2  A    between atoms: C_14  and  C_15
REMARK    3  A    between atoms: C_14  and  N_17
REMARK                            x       y       z     vdW  Elec       q    Type
REMARK                         _______ _______ _______ _____ _____    ______ ____
ROOT
ATOM      1  C   UNL     1      -7.158  -1.603 127.018  0.00  0.00    +0.000 C 
ATOM      2  C   UNL     1      -6.675  -2.028 125.625  0.00  0.00    +0.000 C 
ATOM      3  S   UNL     1      -6.569  -0.598 124.527  0.00  0.00    +0.000 S 
ATOM      4  C   UNL     1      -7.024   0.593 125.709  0.00  0.00    +0.000 C 
ATOM      5  S   UNL     1      -6.766   0.141 127.345  0.00  0.00    +0.000 S 
ATOM      6  C   UNL     1      -7.529   1.791 125.399  0.00  0.00    +0.000 C 
ENDROOT
BRANCH   1  12
ATOM      7 CL   UNL     1      -4.640  -4.574 131.584  0.00  0.00    +0.000 Cl
ATOM      8  C   UNL     1      -5.365  -3.740 130.270  0.00  0.00    +0.000 A 
ATOM      9  C   UNL     1      -6.706  -3.970 129.962  0.00  0.00    +0.000 A 
ATOM     10  C   UNL     1      -7.299  -3.302 128.896  0.00  0.00    +0.000 A 
ATOM     11 CL   UNL     1      -8.972  -3.604 128.589  0.00  0.00    +0.000 Cl
ATOM     12  C   UNL     1      -6.546  -2.410 128.125  0.00  0.00    +0.000 A 
ATOM     13  C   UNL     1      -5.189  -2.188 128.458  0.00  0.00    +0.000 A 
ATOM     14  C   UNL     1      -4.604  -2.844 129.529  0.00  0.00    +0.000 A 
ENDBRANCH   1  12
BRANCH   6  15
ATOM     15  N   UNL     1      -7.771   2.201 124.076  0.00  0.00    +0.000 N 
ATOM     16  C   UNL     1      -6.910   2.867 123.220  0.00  0.00    +0.000 A 
ATOM     17  C   UNL     1      -7.644   3.181 122.099  0.00  0.00    +0.000 A 
ATOM     18  N   UNL     1      -8.925   2.732 122.226  0.00  0.00    +0.000 NA
ATOM     19  C   UNL     1      -8.976   2.146 123.406  0.00  0.00    +0.000 A 
ENDBRANCH   6  15
BRANCH   6  20
ATOM     20  C   UNL     1      -7.869   2.785 126.498  0.00  0.00    +0.000 C 
ATOM     21  N   UNL     1      -8.151   3.610 127.409  0.00  0.00    +0.000 NA
ENDBRANCH   6  20
TORSDOF 3
ENDMDL
MODEL 5
REMARK VINA RESULT:      -5.9      4.336      6.135
REMARK  Name = Luliconazole
REMARK  3 active torsions:
REMARK  status: ('A' for Active; 'I' for Inactive)
REMARK    1  A    between atoms: C_6  and  C_9
REMARK    2  A    between atoms: C_14  and  C_15
REMARK    3  A    between atoms: C_14  and  N_17
REMARK                            x       y       z     vdW  Elec       q    Type
REMARK                         _______ _______ _______ _____ _____    ______ ____
ROOT
ATOM      1  C   UNL     1      -8.082  -0.069 126.620  0.00  0.00    +0.000 C 
ATOM      2  C   UNL     1      -7.888   1.362 126.102  0.00  0.00    +0.000 C 
ATOM      3  S   UNL     1      -7.882   2.539 127.472  0.00  0.00    +0.000 S 
ATOM      4  C   UNL     1      -8.033   1.361 128.743  0.00  0.00    +0.000 C 
ATOM      5  S   UNL     1      -7.517  -0.225 128.340  0.00  0.00    +0.000 S 
ATOM      6  C   UNL     1      -8.501   1.643 129.963  0.00  0.00    +0.000 C 
ENDROOT
BRANCH   1  12
ATOM      7 CL   UNL     1      -4.898  -4.173 123.614  0.00  0.00    +0.000 Cl
ATOM      8  C   UNL     1      -5.821  -2.999 124.461  0.00  0.00    +0.000 A 
ATOM      9  C   UNL     1      -7.141  -3.283 124.814  0.00  0.00    +0.000 A 
ATOM     10  C   UNL     1      -7.897  -2.334 125.495  0.00  0.00    +0.000 A 
ATOM     11 CL   UNL     1      -9.512  -2.760 125.937  0.00  0.00    +0.000 Cl
ATOM     12  C   UNL     1      -7.338  -1.093 125.814  0.00  0.00    +0.000 A 
ATOM     13  C   UNL     1      -5.997  -0.828 125.450  0.00  0.00    +0.000 A 
ATOM     14  C   UNL     1      -5.241  -1.779 124.784  0.00  0.00    +0.000 A 
ENDBRANCH   1  12
BRANCH   6  15
ATOM     15  N   UNL     1      -8.948   2.922 130.335  0.00  0.00    +0.000 N 
ATOM     16  C   UNL     1      -8.204   3.964 130.862  0.00  0.00    +0.000 A 
ATOM     17  C   UNL     1      -9.102   4.949 131.203  0.00  0.00    +0.000 A 
ATOM     18  N   UNL     1     -10.374   4.560 130.904  0.00  0.00    +0.000 NA
ATOM     19  C   UNL     1     -10.257   3.354 130.383  0.00  0.00    +0.000 A 
ENDBRANCH   6  15
BRANCH   6  20
ATOM     20  C   UNL     1      -8.568   0.557 131.025  0.00  0.00    +0.000 C 
ATOM     21  N   UNL     1      -8.623  -0.344 131.906  0.00  0.00    +0.000 NA
ENDBRANCH   6  20
TORSDOF 3
ENDMDL
MODEL 6
REMARK VINA RESULT:      -5.9      4.768      6.264
REMARK  Name = Luliconazole
REMARK  3 active torsions:
REMARK  status: ('A' for Active; 'I' for Inactive)
REMARK    1  A    between atoms: C_6  and  C_9
REMARK    2  A    between atoms: C_14  and  C_15
REMARK    3  A    between atoms: C_14  and  N_17
REMARK                            x       y       z     vdW  Elec       q    Type
REMARK                         _______ _______ _______ _____ _____    ______ ____
ROOT
ATOM      1  C   UNL     1      -5.795   2.059 127.141  0.00  0.00    +0.000 C 
ATOM      2  C   UNL     1      -5.239   0.648 127.373  0.00  0.00    +0.000 C 
ATOM      3  S   UNL     1      -5.821  -0.484 126.092  0.00  0.00    +0.000 S 
ATOM      4  C   UNL     1      -6.698   0.700 125.167  0.00  0.00    +0.000 C 
ATOM      5  S   UNL     1      -6.193   2.326 125.388  0.00  0.00    +0.000 S 
ATOM      6  C   UNL     1      -7.691   0.396 124.326  0.00  0.00    +0.000 C 
ENDROOT
BRANCH   1  12
ATOM      7 CL   UNL     1      -1.943   6.462 128.481  0.00  0.00    +0.000 Cl
ATOM      8  C   UNL     1      -3.048   5.199 128.115  0.00  0.00    +0.000 A 
ATOM      9  C   UNL     1      -4.341   5.240 128.637  0.00  0.00    +0.000 A 
ATOM     10  C   UNL     1      -5.239   4.217 128.350  0.00  0.00    +0.000 A 
ATOM     11 CL   UNL     1      -6.836   4.345 128.998  0.00  0.00    +0.000 Cl
ATOM     12  C   UNL     1      -4.841   3.143 127.548  0.00  0.00    +0.000 A 
ATOM     13  C   UNL     1      -3.527   3.124 127.025  0.00  0.00    +0.000 A 
ATOM     14  C   UNL     1      -2.638   4.150 127.301  0.00  0.00    +0.000 A 
ENDBRANCH   1  12
BRANCH   6  15
ATOM     15  N   UNL     1      -8.148  -0.917 124.122  0.00  0.00    +0.000 N 
ATOM     16  C   UNL     1      -7.917  -1.740 123.033  0.00  0.00    +0.000 A 
ATOM     17  C   UNL     1      -8.690  -2.862 123.224  0.00  0.00    +0.000 A 
ATOM     18  N   UNL     1      -9.387  -2.769 124.392  0.00  0.00    +0.000 NA
ATOM     19  C   UNL     1      -9.044  -1.607 124.913  0.00  0.00    +0.000 A 
ENDBRANCH   6  15
BRANCH   6  20
ATOM     20  C   UNL     1      -8.382   1.493 123.532  0.00  0.00    +0.000 C 
ATOM     21  N   UNL     1      -8.954   2.403 122.872  0.00  0.00    +0.000 NA
ENDBRANCH   6  20
TORSDOF 3
ENDMDL
MODEL 7
REMARK VINA RESULT:      -5.9      5.181      6.792
REMARK  Name = Luliconazole
REMARK  3 active torsions:
REMARK  status: ('A' for Active; 'I' for Inactive)
REMARK    1  A    between atoms: C_6  and  C_9
REMARK    2  A    between atoms: C_14  and  C_15
REMARK    3  A    between atoms: C_14  and  N_17
REMARK                            x       y       z     vdW  Elec       q    Type
REMARK                         _______ _______ _______ _____ _____    ______ ____
ROOT
ATOM      1  C   UNL     1      -4.603   2.750 126.036  0.00  0.00    +0.000 C 
ATOM      2  C   UNL     1      -5.644   3.316 125.060  0.00  0.00    +0.000 C 
ATOM      3  S   UNL     1      -6.874   2.060 124.646  0.00  0.00    +0.000 S 
ATOM      4  C   UNL     1      -6.246   0.817 125.686  0.00  0.00    +0.000 C 
ATOM      5  S   UNL     1      -5.291   1.372 127.000  0.00  0.00    +0.000 S 
ATOM      6  C   UNL     1      -6.482  -0.487 125.511  0.00  0.00    +0.000 C 
ENDROOT
BRANCH   1  12
ATOM      7 CL   UNL     1      -2.746   6.686 130.168  0.00  0.00    +0.000 Cl
ATOM      8  C   UNL     1      -3.268   5.568 128.974  0.00  0.00    +0.000 A 
ATOM      9  C   UNL     1      -2.324   4.820 128.270  0.00  0.00    +0.000 A 
ATOM     10  C   UNL     1      -2.738   3.917 127.296  0.00  0.00    +0.000 A 
ATOM     11 CL   UNL     1      -1.522   2.995 126.486  0.00  0.00    +0.000 Cl
ATOM     12  C   UNL     1      -4.100   3.769 127.015  0.00  0.00    +0.000 A 
ATOM     13  C   UNL     1      -5.040   4.534 127.744  0.00  0.00    +0.000 A 
ATOM     14  C   UNL     1      -4.626   5.424 128.723  0.00  0.00    +0.000 A 
ENDBRANCH   1  12
BRANCH   6  15
ATOM     15  N   UNL     1      -7.245  -0.989 124.443  0.00  0.00    +0.000 N 
ATOM     16  C   UNL     1      -8.597  -1.287 124.429  0.00  0.00    +0.000 A 
ATOM     17  C   UNL     1      -8.849  -1.889 123.218  0.00  0.00    +0.000 A 
ATOM     18  N   UNL     1      -7.707  -1.972 122.479  0.00  0.00    +0.000 NA
ATOM     19  C   UNL     1      -6.767  -1.425 123.224  0.00  0.00    +0.000 A 
ENDBRANCH   6  15
BRANCH   6  20
ATOM     20  C   UNL     1      -5.918  -1.504 126.490  0.00  0.00    +0.000 C 
ATOM     21  N   UNL     1      -5.450  -2.348 127.302  0.00  0.00    +0.000 NA
ENDBRANCH   6  20
TORSDOF 3
ENDMDL
MODEL 8
REMARK VINA RESULT:      -5.8      4.060      7.804
REMARK  Name = Luliconazole
REMARK  3 active torsions:
REMARK  status: ('A' for Active; 'I' for Inactive)
REMARK    1  A    between atoms: C_6  and  C_9
REMARK    2  A    between atoms: C_14  and  C_15
REMARK    3  A    between atoms: C_14  and  N_17
REMARK                            x       y       z     vdW  Elec       q    Type
REMARK                         _______ _______ _______ _____ _____    ______ ____
ROOT
ATOM      1  C   UNL     1      -7.228   1.972 124.386  0.00  0.00    +0.000 C 
ATOM      2  C   UNL     1      -6.063   2.425 125.275  0.00  0.00    +0.000 C 
ATOM      3  S   UNL     1      -5.425   1.038 126.242  0.00  0.00    +0.000 S 
ATOM      4  C   UNL     1      -6.476  -0.172 125.567  0.00  0.00    +0.000 C 
ATOM      5  S   UNL     1      -7.121   0.195 124.019  0.00  0.00    +0.000 S 
ATOM      6  C   UNL     1      -6.770  -1.323 126.178  0.00  0.00    +0.000 C 
ENDROOT
BRANCH   1  12
ATOM      7 CL   UNL     1      -7.225   4.676 119.028  0.00  0.00    +0.000 Cl
ATOM      8  C   UNL     1      -7.239   3.913 120.567  0.00  0.00    +0.000 A 
ATOM      9  C   UNL     1      -8.417   3.335 121.039  0.00  0.00    +0.000 A 
ATOM     10  C   UNL     1      -8.438   2.720 122.287  0.00  0.00    +0.000 A 
ATOM     11 CL   UNL     1      -9.919   1.992 122.799  0.00  0.00    +0.000 Cl
ATOM     12  C   UNL     1      -7.281   2.694 123.072  0.00  0.00    +0.000 A 
ATOM     13  C   UNL     1      -6.096   3.282 122.571  0.00  0.00    +0.000 A 
ATOM     14  C   UNL     1      -6.074   3.882 121.322  0.00  0.00    +0.000 A 
ENDBRANCH   1  12
BRANCH   6  15
ATOM     15  N   UNL     1      -6.277  -1.662 127.450  0.00  0.00    +0.000 N 
ATOM     16  C   UNL     1      -6.781  -1.292 128.685  0.00  0.00    +0.000 A 
ATOM     17  C   UNL     1      -5.878  -1.738 129.623  0.00  0.00    +0.000 A 
ATOM     18  N   UNL     1      -4.836  -2.375 129.016  0.00  0.00    +0.000 NA
ATOM     19  C   UNL     1      -5.098  -2.324 127.725  0.00  0.00    +0.000 A 
ENDBRANCH   6  15
BRANCH   6  20
ATOM     20  C   UNL     1      -7.672  -2.341 125.499  0.00  0.00    +0.000 C 
ATOM     21  N   UNL     1      -8.421  -3.185 124.936  0.00  0.00    +0.000 NA
ENDBRANCH   6  20
TORSDOF 3
ENDMDL
MODEL 9
REMARK VINA RESULT:      -5.7      4.310      5.890
REMARK  Name = Luliconazole
REMARK  3 active torsions:
REMARK  status: ('A' for Active; 'I' for Inactive)
REMARK    1  A    between atoms: C_6  and  C_9
REMARK    2  A    between atoms: C_14  and  C_15
REMARK    3  A    between atoms: C_14  and  N_17
REMARK                            x       y       z     vdW  Elec       q    Type
REMARK                         _______ _______ _______ _____ _____    ______ ____
ROOT
ATOM      1  C   UNL     1      -6.320   0.988 127.349  0.00  0.00    +0.000 C 
ATOM      2  C   UNL     1      -7.314   2.102 127.702  0.00  0.00    +0.000 C 
ATOM      3  S   UNL     1      -6.482   3.705 127.750  0.00  0.00    +0.000 S 
ATOM      4  C   UNL     1      -4.914   3.127 127.271  0.00  0.00    +0.000 C 
ATOM      5  S   UNL     1      -4.909   1.643 126.409  0.00  0.00    +0.000 S 
ATOM      6  C   UNL     1      -3.774   3.776 127.529  0.00  0.00    +0.000 C 
ENDROOT
BRANCH   1  12
ATOM      7 CL   UNL     1      -8.494  -3.446 123.939  0.00  0.00    +0.000 Cl
ATOM      8  C   UNL     1      -7.888  -2.175 124.922  0.00  0.00    +0.000 A 
ATOM      9  C   UNL     1      -7.998  -2.264 126.310  0.00  0.00    +0.000 A 
ATOM     10  C   UNL     1      -7.515  -1.236 127.113  0.00  0.00    +0.000 A 
ATOM     11 CL   UNL     1      -7.648  -1.423 128.825  0.00  0.00    +0.000 Cl
ATOM     12  C   UNL     1      -6.931  -0.108 126.527  0.00  0.00    +0.000 A 
ATOM     13  C   UNL     1      -6.826  -0.041 125.118  0.00  0.00    +0.000 A 
ATOM     14  C   UNL     1      -7.296  -1.072 124.321  0.00  0.00    +0.000 A 
ENDBRANCH   1  12
BRANCH   6  15
ATOM     15  N   UNL     1      -3.726   4.985 128.242  0.00  0.00    +0.000 N 
ATOM     16  C   UNL     1      -3.734   5.166 129.615  0.00  0.00    +0.000 A 
ATOM     17  C   UNL     1      -3.827   6.522 129.827  0.00  0.00    +0.000 A 
ATOM     18  N   UNL     1      -3.872   7.190 128.640  0.00  0.00    +0.000 NA
ATOM     19  C   UNL     1      -3.804   6.256 127.711  0.00  0.00    +0.000 A 
ENDBRANCH   6  15
BRANCH   6  20
ATOM     20  C   UNL     1      -2.448   3.213 127.042  0.00  0.00    +0.000 C 
ATOM     21  N   UNL     1      -1.348   2.746 126.638  0.00  0.00    +0.000 NA
ENDBRANCH   6  20
TORSDOF 3
ENDMDL
