MODEL 1
REMARK VINA RESULT:      -8.5      0.000      0.000
REMARK  Name = Lumateperone
REMARK  6 active torsions:
REMARK  status: ('A' for Active; 'I' for Inactive)
REMARK    1  A    between atoms: N_5  and  C_6
REMARK    2  A    between atoms: C_6  and  C_7
REMARK    3  A    between atoms: C_7  and  C_8
REMARK    4  A    between atoms: C_8  and  C_9
REMARK    5  A    between atoms: C_9  and  C_11
REMARK    6  A    between atoms: N_30  and  C_31
REMARK                            x       y       z     vdW  Elec       q    Type
REMARK                         _______ _______ _______ _____ _____    ______ ____
ROOT
ATOM      1  C   UNL     1      -6.878   0.216 127.264  0.00  0.00    +0.000 C 
ATOM      2  C   UNL     1      -6.674   1.647 126.899  0.00  0.00    +0.000 C 
ATOM      3  C   UNL     1      -7.777   2.430 127.550  0.00  0.00    +0.000 C 
ATOM      4  N   UNL     1      -7.872   2.187 129.007  0.00  0.00    +0.000 NA
ATOM      5  C   UNL     1      -8.136   0.764 129.332  0.00  0.00    +0.000 C 
ATOM      6  C   UNL     1      -7.083  -0.183 128.758  0.00  0.00    +0.000 C 
ATOM      7  C   UNL     1      -7.720  -1.538 128.516  0.00  0.00    +0.000 A 
ATOM      8  C   UNL     1      -7.966  -2.653 129.257  0.00  0.00    +0.000 A 
ATOM      9  C   UNL     1      -8.606  -3.685 128.555  0.00  0.00    +0.000 A 
ATOM     10  C   UNL     1      -8.829  -3.625 127.099  0.00  0.00    +0.000 A 
ATOM     11  C   UNL     1      -8.485  -2.487 126.345  0.00  0.00    +0.000 A 
ATOM     12  C   UNL     1      -8.179  -1.465 127.190  0.00  0.00    +0.000 A 
ATOM     13  N   UNL     1      -8.187  -0.145 126.761  0.00  0.00    +0.000 N 
ATOM     14  C   UNL     1      -8.787   0.219 125.504  0.00  0.00    +0.000 C 
ATOM     15  C   UNL     1      -7.932  -0.658 124.618  0.00  0.00    +0.000 C 
ATOM     16  N   UNL     1      -8.301  -2.154 124.957  0.00  0.00    +0.000 N 
ATOM     17  C   UNL     1      -9.207  -2.754 123.991  0.00  0.00    +0.000 C 
ENDROOT
BRANCH   4  18
ATOM     18  C   UNL     1      -9.002   2.967 129.516  0.00  0.00    +0.000 C 
BRANCH  18  19
ATOM     19  C   UNL     1      -8.495   3.938 130.569  0.00  0.00    +0.000 C 
BRANCH  19  20
ATOM     20  C   UNL     1      -9.583   4.327 131.535  0.00  0.00    +0.000 C 
BRANCH  20  21
ATOM     21  C   UNL     1      -9.525   5.836 131.760  0.00  0.00    +0.000 C 
ATOM     22  O   UNL     1      -8.703   6.400 132.428  0.00  0.00    +0.000 OA
BRANCH  21  23
ATOM     23  C   UNL     1     -10.522   6.628 131.004  0.00  0.00    +0.000 A 
ATOM     24  C   UNL     1     -11.834   6.668 131.482  0.00  0.00    +0.000 A 
ATOM     25  C   UNL     1     -12.737   7.555 130.901  0.00  0.00    +0.000 A 
ATOM     26  C   UNL     1     -12.382   8.213 129.727  0.00  0.00    +0.000 A 
ATOM     27  F   UNL     1     -13.291   8.969 129.098  0.00  0.00    +0.000 F 
ATOM     28  C   UNL     1     -11.109   8.085 129.185  0.00  0.00    +0.000 A 
ATOM     29  C   UNL     1     -10.147   7.348 129.869  0.00  0.00    +0.000 A 
ENDBRANCH  21  23
ENDBRANCH  20  21
ENDBRANCH  19  20
ENDBRANCH  18  19
ENDBRANCH   4  18
TORSDOF 5
ENDMDL
MODEL 2
REMARK VINA RESULT:      -8.4      2.555      3.483
REMARK  Name = Lumateperone
REMARK  6 active torsions:
REMARK  status: ('A' for Active; 'I' for Inactive)
REMARK    1  A    between atoms: N_5  and  C_6
REMARK    2  A    between atoms: C_6  and  C_7
REMARK    3  A    between atoms: C_7  and  C_8
REMARK    4  A    between atoms: C_8  and  C_9
REMARK    5  A    between atoms: C_9  and  C_11
REMARK    6  A    between atoms: N_30  and  C_31
REMARK                            x       y       z     vdW  Elec       q    Type
REMARK                         _______ _______ _______ _____ _____    ______ ____
ROOT
ATOM      1  C   UNL     1      -6.608   1.682 127.523  0.00  0.00    +0.000 C 
ATOM      2  C   UNL     1      -5.716   2.185 128.607  0.00  0.00    +0.000 C 
ATOM      3  C   UNL     1      -6.511   3.176 129.407  0.00  0.00    +0.000 C 
ATOM      4  N   UNL     1      -7.795   2.625 129.892  0.00  0.00    +0.000 NA
ATOM      5  C   UNL     1      -8.683   2.190 128.786  0.00  0.00    +0.000 C 
ATOM      6  C   UNL     1      -8.032   1.151 127.874  0.00  0.00    +0.000 C 
ATOM      7  C   UNL     1      -8.635   1.269 126.487  0.00  0.00    +0.000 A 
ATOM      8  C   UNL     1      -9.735   0.781 125.851  0.00  0.00    +0.000 A 
ATOM      9  C   UNL     1      -9.862   1.194 124.516  0.00  0.00    +0.000 A 
ATOM     10  C   UNL     1      -8.801   1.946 123.821  0.00  0.00    +0.000 A 
ATOM     11  C   UNL     1      -7.633   2.363 124.487  0.00  0.00    +0.000 A 
ATOM     12  C   UNL     1      -7.791   2.177 125.826  0.00  0.00    +0.000 A 
ATOM     13  N   UNL     1      -6.993   2.842 126.747  0.00  0.00    +0.000 N 
ATOM     14  C   UNL     1      -6.172   3.955 126.345  0.00  0.00    +0.000 C 
ATOM     15  C   UNL     1      -5.349   3.226 125.308  0.00  0.00    +0.000 C 
ATOM     16  N   UNL     1      -6.326   2.847 124.129  0.00  0.00    +0.000 N 
ATOM     17  C   UNL     1      -6.226   3.747 122.990  0.00  0.00    +0.000 C 
ENDROOT
BRANCH   4  18
ATOM     18  C   UNL     1      -8.493   3.691 130.617  0.00  0.00    +0.000 C 
BRANCH  18  19
ATOM     19  C   UNL     1      -8.305   5.000 129.869  0.00  0.00    +0.000 C 
BRANCH  19  20
ATOM     20  C   UNL     1      -8.314   6.179 130.804  0.00  0.00    +0.000 C 
BRANCH  20  21
ATOM     21  C   UNL     1      -9.758   6.482 131.200  0.00  0.00    +0.000 C 
ATOM     22  O   UNL     1     -10.164   6.542 132.327  0.00  0.00    +0.000 OA
BRANCH  21  23
ATOM     23  C   UNL     1     -10.666   6.809 130.076  0.00  0.00    +0.000 A 
ATOM     24  C   UNL     1     -11.829   6.049 129.925  0.00  0.00    +0.000 A 
ATOM     25  C   UNL     1     -12.786   6.460 129.000  0.00  0.00    +0.000 A 
ATOM     26  C   UNL     1     -12.471   7.474 128.100  0.00  0.00    +0.000 A 
ATOM     27  F   UNL     1     -13.340   7.785 127.130  0.00  0.00    +0.000 F 
ATOM     28  C   UNL     1     -11.263   8.156 128.178  0.00  0.00    +0.000 A 
ATOM     29  C   UNL     1     -10.385   7.874 129.221  0.00  0.00    +0.000 A 
ENDBRANCH  21  23
ENDBRANCH  20  21
ENDBRANCH  19  20
ENDBRANCH  18  19
ENDBRANCH   4  18
TORSDOF 5
ENDMDL
MODEL 3
REMARK VINA RESULT:      -8.2      4.273      7.012
REMARK  Name = Lumateperone
REMARK  6 active torsions:
REMARK  status: ('A' for Active; 'I' for Inactive)
REMARK    1  A    between atoms: N_5  and  C_6
REMARK    2  A    between atoms: C_6  and  C_7
REMARK    3  A    between atoms: C_7  and  C_8
REMARK    4  A    between atoms: C_8  and  C_9
REMARK    5  A    between atoms: C_9  and  C_11
REMARK    6  A    between atoms: N_30  and  C_31
REMARK                            x       y       z     vdW  Elec       q    Type
REMARK                         _______ _______ _______ _____ _____    ______ ____
ROOT
ATOM      1  C   UNL     1      -4.106   3.353 131.598  0.00  0.00    +0.000 C 
ATOM      2  C   UNL     1      -5.010   2.797 132.646  0.00  0.00    +0.000 C 
ATOM      3  C   UNL     1      -6.418   3.027 132.179  0.00  0.00    +0.000 C 
ATOM      4  N   UNL     1      -6.669   2.495 130.822  0.00  0.00    +0.000 NA
ATOM      5  C   UNL     1      -5.794   3.113 129.796  0.00  0.00    +0.000 C 
ATOM      6  C   UNL     1      -4.306   2.950 130.105  0.00  0.00    +0.000 C 
ATOM      7  C   UNL     1      -3.546   4.106 129.484  0.00  0.00    +0.000 A 
ATOM      8  C   UNL     1      -3.012   4.386 128.264  0.00  0.00    +0.000 A 
ATOM      9  C   UNL     1      -2.382   5.637 128.181  0.00  0.00    +0.000 A 
ATOM     10  C   UNL     1      -2.170   6.490 129.364  0.00  0.00    +0.000 A 
ATOM     11  C   UNL     1      -2.663   6.131 130.632  0.00  0.00    +0.000 A 
ATOM     12  C   UNL     1      -3.511   5.075 130.501  0.00  0.00    +0.000 A 
ATOM     13  N   UNL     1      -4.432   4.760 131.490  0.00  0.00    +0.000 N 
ATOM     14  C   UNL     1      -4.722   5.688 132.551  0.00  0.00    +0.000 C 
ATOM     15  C   UNL     1      -3.319   5.803 133.101  0.00  0.00    +0.000 C 
ATOM     16  N   UNL     1      -2.451   6.525 132.000  0.00  0.00    +0.000 N 
ATOM     17  C   UNL     1      -2.239   7.938 132.273  0.00  0.00    +0.000 C 
ENDROOT
BRANCH   4  18
ATOM     18  C   UNL     1      -8.053   2.815 130.465  0.00  0.00    +0.000 C 
BRANCH  18  19
ATOM     19  C   UNL     1      -8.321   4.275 130.794  0.00  0.00    +0.000 C 
BRANCH  19  20
ATOM     20  C   UNL     1      -9.767   4.507 131.144  0.00  0.00    +0.000 C 
BRANCH  20  21
ATOM     21  C   UNL     1      -9.933   5.952 131.610  0.00  0.00    +0.000 C 
ATOM     22  O   UNL     1      -9.435   6.418 132.597  0.00  0.00    +0.000 OA
BRANCH  21  23
ATOM     23  C   UNL     1     -10.701   6.828 130.695  0.00  0.00    +0.000 A 
ATOM     24  C   UNL     1     -12.053   7.045 130.968  0.00  0.00    +0.000 A 
ATOM     25  C   UNL     1     -12.741   8.012 130.238  0.00  0.00    +0.000 A 
ATOM     26  C   UNL     1     -12.138   8.574 129.117  0.00  0.00    +0.000 A 
ATOM     27  F   UNL     1     -12.842   9.409 128.342  0.00  0.00    +0.000 F 
ATOM     28  C   UNL     1     -10.825   8.271 128.777  0.00  0.00    +0.000 A 
ATOM     29  C   UNL     1     -10.075   7.450 129.615  0.00  0.00    +0.000 A 
ENDBRANCH  21  23
ENDBRANCH  20  21
ENDBRANCH  19  20
ENDBRANCH  18  19
ENDBRANCH   4  18
TORSDOF 5
ENDMDL
MODEL 4
REMARK VINA RESULT:      -8.1      4.321      5.997
REMARK  Name = Lumateperone
REMARK  6 active torsions:
REMARK  status: ('A' for Active; 'I' for Inactive)
REMARK    1  A    between atoms: N_5  and  C_6
REMARK    2  A    between atoms: C_6  and  C_7
REMARK    3  A    between atoms: C_7  and  C_8
REMARK    4  A    between atoms: C_8  and  C_9
REMARK    5  A    between atoms: C_9  and  C_11
REMARK    6  A    between atoms: N_30  and  C_31
REMARK                            x       y       z     vdW  Elec       q    Type
REMARK                         _______ _______ _______ _____ _____    ______ ____
ROOT
ATOM      1  C   UNL     1      -4.013   3.535 131.108  0.00  0.00    +0.000 C 
ATOM      2  C   UNL     1      -4.415   3.929 132.489  0.00  0.00    +0.000 C 
ATOM      3  C   UNL     1      -5.898   4.159 132.468  0.00  0.00    +0.000 C 
ATOM      4  N   UNL     1      -6.651   3.005 131.927  0.00  0.00    +0.000 NA
ATOM      5  C   UNL     1      -6.270   2.679 130.531  0.00  0.00    +0.000 C 
ATOM      6  C   UNL     1      -4.777   2.391 130.373  0.00  0.00    +0.000 C 
ATOM      7  C   UNL     1      -4.355   2.746 128.961  0.00  0.00    +0.000 A 
ATOM      8  C   UNL     1      -4.354   2.122 127.751  0.00  0.00    +0.000 A 
ATOM      9  C   UNL     1      -3.842   2.898 126.700  0.00  0.00    +0.000 A 
ATOM     10  C   UNL     1      -3.201   4.206 126.928  0.00  0.00    +0.000 A 
ATOM     11  C   UNL     1      -3.143   4.787 128.208  0.00  0.00    +0.000 A 
ATOM     12  C   UNL     1      -3.946   4.087 129.055  0.00  0.00    +0.000 A 
ATOM     13  N   UNL     1      -4.392   4.637 130.249  0.00  0.00    +0.000 N 
ATOM     14  C   UNL     1      -4.264   6.048 130.505  0.00  0.00    +0.000 C 
ATOM     15  C   UNL     1      -2.761   6.136 130.369  0.00  0.00    +0.000 C 
ATOM     16  N   UNL     1      -2.418   5.848 128.857  0.00  0.00    +0.000 N 
ATOM     17  C   UNL     1      -2.153   7.054 128.089  0.00  0.00    +0.000 C 
ENDROOT
BRANCH   4  18
ATOM     18  C   UNL     1      -8.071   3.364 131.918  0.00  0.00    +0.000 C 
BRANCH  18  19
ATOM     19  C   UNL     1      -8.302   4.437 130.866  0.00  0.00    +0.000 C 
BRANCH  19  20
ATOM     20  C   UNL     1      -9.400   5.384 131.272  0.00  0.00    +0.000 C 
BRANCH  20  21
ATOM     21  C   UNL     1      -9.159   6.733 130.598  0.00  0.00    +0.000 C 
ATOM     22  O   UNL     1      -8.091   7.271 130.499  0.00  0.00    +0.000 OA
BRANCH  21  23
ATOM     23  C   UNL     1     -10.347   7.339 129.955  0.00  0.00    +0.000 A 
ATOM     24  C   UNL     1     -11.571   7.267 130.625  0.00  0.00    +0.000 A 
ATOM     25  C   UNL     1     -12.653   7.994 130.133  0.00  0.00    +0.000 A 
ATOM     26  C   UNL     1     -12.558   8.589 128.879  0.00  0.00    +0.000 A 
ATOM     27  F   UNL     1     -13.635   9.181 128.349  0.00  0.00    +0.000 F 
ATOM     28  C   UNL     1     -11.370   8.564 128.157  0.00  0.00    +0.000 A 
ATOM     29  C   UNL     1     -10.234   8.001 128.732  0.00  0.00    +0.000 A 
ENDBRANCH  21  23
ENDBRANCH  20  21
ENDBRANCH  19  20
ENDBRANCH  18  19
ENDBRANCH   4  18
TORSDOF 5
ENDMDL
MODEL 5
REMARK VINA RESULT:      -8.1      2.303      2.722
REMARK  Name = Lumateperone
REMARK  6 active torsions:
REMARK  status: ('A' for Active; 'I' for Inactive)
REMARK    1  A    between atoms: N_5  and  C_6
REMARK    2  A    between atoms: C_6  and  C_7
REMARK    3  A    between atoms: C_7  and  C_8
REMARK    4  A    between atoms: C_8  and  C_9
REMARK    5  A    between atoms: C_9  and  C_11
REMARK    6  A    between atoms: N_30  and  C_31
REMARK                            x       y       z     vdW  Elec       q    Type
REMARK                         _______ _______ _______ _____ _____    ______ ____
ROOT
ATOM      1  C   UNL     1      -6.738   2.698 125.245  0.00  0.00    +0.000 C 
ATOM      2  C   UNL     1      -7.286   4.053 125.544  0.00  0.00    +0.000 C 
ATOM      3  C   UNL     1      -7.829   4.009 126.943  0.00  0.00    +0.000 C 
ATOM      4  N   UNL     1      -6.837   3.529 127.930  0.00  0.00    +0.000 NA
ATOM      5  C   UNL     1      -6.358   2.156 127.637  0.00  0.00    +0.000 C 
ATOM      6  C   UNL     1      -5.747   2.024 126.242  0.00  0.00    +0.000 C 
ATOM      7  C   UNL     1      -5.923   0.596 125.761  0.00  0.00    +0.000 A 
ATOM      8  C   UNL     1      -5.247  -0.577 125.903  0.00  0.00    +0.000 A 
ATOM      9  C   UNL     1      -5.834  -1.666 125.241  0.00  0.00    +0.000 A 
ATOM     10  C   UNL     1      -6.983  -1.508 124.332  0.00  0.00    +0.000 A 
ATOM     11  C   UNL     1      -7.608  -0.261 124.142  0.00  0.00    +0.000 A 
ATOM     12  C   UNL     1      -7.147   0.619 125.073  0.00  0.00    +0.000 A 
ATOM     13  N   UNL     1      -7.846   1.777 125.382  0.00  0.00    +0.000 N 
ATOM     14  C   UNL     1      -9.208   1.954 124.951  0.00  0.00    +0.000 C 
ATOM     15  C   UNL     1      -8.962   1.824 123.465  0.00  0.00    +0.000 C 
ATOM     16  N   UNL     1      -8.522   0.332 123.202  0.00  0.00    +0.000 N 
ATOM     17  C   UNL     1      -9.598  -0.500 122.687  0.00  0.00    +0.000 C 
ENDROOT
BRANCH   4  18
ATOM     18  C   UNL     1      -7.492   3.491 129.240  0.00  0.00    +0.000 C 
BRANCH  18  19
ATOM     19  C   UNL     1      -7.955   4.893 129.600  0.00  0.00    +0.000 C 
BRANCH  19  20
ATOM     20  C   UNL     1      -9.336   4.884 130.199  0.00  0.00    +0.000 C 
BRANCH  20  21
ATOM     21  C   UNL     1      -9.573   6.216 130.908  0.00  0.00    +0.000 C 
ATOM     22  O   UNL     1      -8.977   6.594 131.878  0.00  0.00    +0.000 OA
BRANCH  21  23
ATOM     23  C   UNL     1     -10.558   7.111 130.259  0.00  0.00    +0.000 A 
ATOM     24  C   UNL     1     -10.147   7.851 129.147  0.00  0.00    +0.000 A 
ATOM     25  C   UNL     1     -11.102   8.547 128.410  0.00  0.00    +0.000 A 
ATOM     26  C   UNL     1     -12.392   8.673 128.916  0.00  0.00    +0.000 A 
ATOM     27  F   UNL     1     -13.277   9.445 128.273  0.00  0.00    +0.000 F 
ATOM     28  C   UNL     1     -12.773   8.028 130.086  0.00  0.00    +0.000 A 
ATOM     29  C   UNL     1     -11.872   7.179 130.723  0.00  0.00    +0.000 A 
ENDBRANCH  21  23
ENDBRANCH  20  21
ENDBRANCH  19  20
ENDBRANCH  18  19
ENDBRANCH   4  18
TORSDOF 5
ENDMDL
MODEL 6
REMARK VINA RESULT:      -8.1      5.125      6.582
REMARK  Name = Lumateperone
REMARK  6 active torsions:
REMARK  status: ('A' for Active; 'I' for Inactive)
REMARK    1  A    between atoms: N_5  and  C_6
REMARK    2  A    between atoms: C_6  and  C_7
REMARK    3  A    between atoms: C_7  and  C_8
REMARK    4  A    between atoms: C_8  and  C_9
REMARK    5  A    between atoms: C_9  and  C_11
REMARK    6  A    between atoms: N_30  and  C_31
REMARK                            x       y       z     vdW  Elec       q    Type
REMARK                         _______ _______ _______ _____ _____    ______ ____
ROOT
ATOM      1  C   UNL     1      -3.764   4.745 132.372  0.00  0.00    +0.000 C 
ATOM      2  C   UNL     1      -4.138   5.624 133.517  0.00  0.00    +0.000 C 
ATOM      3  C   UNL     1      -5.631   5.779 133.484  0.00  0.00    +0.000 C 
ATOM      4  N   UNL     1      -6.343   4.483 133.462  0.00  0.00    +0.000 NA
ATOM      5  C   UNL     1      -5.994   3.659 132.279  0.00  0.00    +0.000 C 
ATOM      6  C   UNL     1      -4.494   3.382 132.169  0.00  0.00    +0.000 C 
ATOM      7  C   UNL     1      -4.139   3.183 130.708  0.00  0.00    +0.000 A 
ATOM      8  C   UNL     1      -4.148   2.143 129.829  0.00  0.00    +0.000 A 
ATOM      9  C   UNL     1      -3.711   2.473 128.538  0.00  0.00    +0.000 A 
ATOM     10  C   UNL     1      -3.129   3.789 128.217  0.00  0.00    +0.000 A 
ATOM     11  C   UNL     1      -3.056   4.818 129.174  0.00  0.00    +0.000 A 
ATOM     12  C   UNL     1      -3.794   4.470 130.263  0.00  0.00    +0.000 A 
ATOM     13  N   UNL     1      -4.226   5.420 131.178  0.00  0.00    +0.000 N 
ATOM     14  C   UNL     1      -4.159   6.825 130.869  0.00  0.00    +0.000 C 
ATOM     15  C   UNL     1      -2.668   6.904 130.635  0.00  0.00    +0.000 C 
ATOM     16  N   UNL     1      -2.363   6.069 129.332  0.00  0.00    +0.000 N 
ATOM     17  C   UNL     1      -2.184   6.898 128.149  0.00  0.00    +0.000 C 
ENDROOT
BRANCH   4  18
ATOM     18  C   UNL     1      -7.779   4.764 133.389  0.00  0.00    +0.000 C 
BRANCH  18  19
ATOM     19  C   UNL     1      -7.987   6.075 132.649  0.00  0.00    +0.000 C 
BRANCH  19  20
ATOM     20  C   UNL     1      -8.724   5.868 131.352  0.00  0.00    +0.000 C 
BRANCH  20  21
ATOM     21  C   UNL     1     -10.154   6.378 131.513  0.00  0.00    +0.000 C 
ATOM     22  O   UNL     1     -10.696   6.588 132.564  0.00  0.00    +0.000 OA
BRANCH  21  23
ATOM     23  C   UNL     1     -10.853   6.711 130.251  0.00  0.00    +0.000 A 
ATOM     24  C   UNL     1     -12.059   6.064 129.972  0.00  0.00    +0.000 A 
ATOM     25  C   UNL     1     -12.825   6.500 128.893  0.00  0.00    +0.000 A 
ATOM     26  C   UNL     1     -12.276   7.408 127.994  0.00  0.00    +0.000 A 
ATOM     27  F   UNL     1     -12.959   7.733 126.889  0.00  0.00    +0.000 F 
ATOM     28  C   UNL     1     -11.023   7.970 128.210  0.00  0.00    +0.000 A 
ATOM     29  C   UNL     1     -10.338   7.678 129.386  0.00  0.00    +0.000 A 
ENDBRANCH  21  23
ENDBRANCH  20  21
ENDBRANCH  19  20
ENDBRANCH  18  19
ENDBRANCH   4  18
TORSDOF 5
ENDMDL
MODEL 7
REMARK VINA RESULT:      -7.8      6.078      8.845
REMARK  Name = Lumateperone
REMARK  6 active torsions:
REMARK  status: ('A' for Active; 'I' for Inactive)
REMARK    1  A    between atoms: N_5  and  C_6
REMARK    2  A    between atoms: C_6  and  C_7
REMARK    3  A    between atoms: C_7  and  C_8
REMARK    4  A    between atoms: C_8  and  C_9
REMARK    5  A    between atoms: C_9  and  C_11
REMARK    6  A    between atoms: N_30  and  C_31
REMARK                            x       y       z     vdW  Elec       q    Type
REMARK                         _______ _______ _______ _____ _____    ______ ____
ROOT
ATOM      1  C   UNL     1      -4.822  -1.992 128.998  0.00  0.00    +0.000 C 
ATOM      2  C   UNL     1      -5.314  -2.433 127.660  0.00  0.00    +0.000 C 
ATOM      3  C   UNL     1      -6.618  -1.730 127.417  0.00  0.00    +0.000 C 
ATOM      4  N   UNL     1      -6.516  -0.261 127.568  0.00  0.00    +0.000 NA
ATOM      5  C   UNL     1      -6.083   0.144 128.927  0.00  0.00    +0.000 C 
ATOM      6  C   UNL     1      -4.744  -0.472 129.334  0.00  0.00    +0.000 C 
ATOM      7  C   UNL     1      -4.703  -0.604 130.844  0.00  0.00    +0.000 A 
ATOM      8  C   UNL     1      -4.373   0.201 131.891  0.00  0.00    +0.000 A 
ATOM      9  C   UNL     1      -4.506  -0.403 133.150  0.00  0.00    +0.000 A 
ATOM     10  C   UNL     1      -4.806  -1.838 133.306  0.00  0.00    +0.000 A 
ATOM     11  C   UNL     1      -5.060  -2.664 132.195  0.00  0.00    +0.000 A 
ATOM     12  C   UNL     1      -5.212  -1.891 131.086  0.00  0.00    +0.000 A 
ATOM     13  N   UNL     1      -5.845  -2.374 129.949  0.00  0.00    +0.000 N 
ATOM     14  C   UNL     1      -6.609  -3.593 129.991  0.00  0.00    +0.000 C 
ATOM     15  C   UNL     1      -5.494  -4.507 130.448  0.00  0.00    +0.000 C 
ATOM     16  N   UNL     1      -5.121  -4.076 131.918  0.00  0.00    +0.000 N 
ATOM     17  C   UNL     1      -5.700  -4.941 132.934  0.00  0.00    +0.000 C 
ENDROOT
BRANCH   4  18
ATOM     18  C   UNL     1      -7.850   0.303 127.349  0.00  0.00    +0.000 C 
BRANCH  18  19
ATOM     19  C   UNL     1      -8.622  -0.607 126.409  0.00  0.00    +0.000 C 
BRANCH  19  20
ATOM     20  C   UNL     1      -8.789   0.015 125.048  0.00  0.00    +0.000 C 
BRANCH  20  21
ATOM     21  C   UNL     1      -8.846  -1.097 124.003  0.00  0.00    +0.000 C 
ATOM     22  O   UNL     1      -9.709  -1.222 123.178  0.00  0.00    +0.000 OA
BRANCH  21  23
ATOM     23  C   UNL     1      -7.681  -2.011 123.988  0.00  0.00    +0.000 A 
ATOM     24  C   UNL     1      -6.435  -1.488 123.633  0.00  0.00    +0.000 A 
ATOM     25  C   UNL     1      -5.300  -2.278 123.798  0.00  0.00    +0.000 A 
ATOM     26  C   UNL     1      -5.450  -3.629 124.096  0.00  0.00    +0.000 A 
ATOM     27  F   UNL     1      -4.369  -4.418 124.132  0.00  0.00    +0.000 F 
ATOM     28  C   UNL     1      -6.704  -4.179 124.339  0.00  0.00    +0.000 A 
ATOM     29  C   UNL     1      -7.821  -3.348 124.361  0.00  0.00    +0.000 A 
ENDBRANCH  21  23
ENDBRANCH  20  21
ENDBRANCH  19  20
ENDBRANCH  18  19
ENDBRANCH   4  18
TORSDOF 5
ENDMDL
MODEL 8
REMARK VINA RESULT:      -7.7      4.618      8.213
REMARK  Name = Lumateperone
REMARK  6 active torsions:
REMARK  status: ('A' for Active; 'I' for Inactive)
REMARK    1  A    between atoms: N_5  and  C_6
REMARK    2  A    between atoms: C_6  and  C_7
REMARK    3  A    between atoms: C_7  and  C_8
REMARK    4  A    between atoms: C_8  and  C_9
REMARK    5  A    between atoms: C_9  and  C_11
REMARK    6  A    between atoms: N_30  and  C_31
REMARK                            x       y       z     vdW  Elec       q    Type
REMARK                         _______ _______ _______ _____ _____    ______ ____
ROOT
ATOM      1  C   UNL     1      -6.634   3.720 128.785  0.00  0.00    +0.000 C 
ATOM      2  C   UNL     1      -8.019   3.402 129.236  0.00  0.00    +0.000 C 
ATOM      3  C   UNL     1      -8.086   1.917 129.441  0.00  0.00    +0.000 C 
ATOM      4  N   UNL     1      -7.027   1.413 130.344  0.00  0.00    +0.000 NA
ATOM      5  C   UNL     1      -5.663   1.692 129.836  0.00  0.00    +0.000 C 
ATOM      6  C   UNL     1      -5.412   3.180 129.590  0.00  0.00    +0.000 C 
ATOM      7  C   UNL     1      -4.372   3.329 128.495  0.00  0.00    +0.000 A 
ATOM      8  C   UNL     1      -3.013   3.338 128.429  0.00  0.00    +0.000 A 
ATOM      9  C   UNL     1      -2.498   3.513 127.135  0.00  0.00    +0.000 A 
ATOM     10  C   UNL     1      -3.360   3.834 125.983  0.00  0.00    +0.000 A 
ATOM     11  C   UNL     1      -4.761   3.900 126.104  0.00  0.00    +0.000 A 
ATOM     12  C   UNL     1      -5.130   3.402 127.315  0.00  0.00    +0.000 A 
ATOM     13  N   UNL     1      -6.430   2.981 127.557  0.00  0.00    +0.000 N 
ATOM     14  C   UNL     1      -7.358   2.787 126.473  0.00  0.00    +0.000 C 
ATOM     15  C   UNL     1      -7.313   4.194 125.923  0.00  0.00    +0.000 C 
ATOM     16  N   UNL     1      -5.865   4.413 125.337  0.00  0.00    +0.000 N 
ATOM     17  C   UNL     1      -5.806   4.278 123.890  0.00  0.00    +0.000 C 
ENDROOT
BRANCH   4  18
ATOM     18  C   UNL     1      -7.170  -0.043 130.430  0.00  0.00    +0.000 C 
BRANCH  18  19
ATOM     19  C   UNL     1      -7.636  -0.573 129.084  0.00  0.00    +0.000 C 
BRANCH  19  20
ATOM     20  C   UNL     1      -7.389  -2.052 128.956  0.00  0.00    +0.000 C 
BRANCH  20  21
ATOM     21  C   UNL     1      -6.643  -2.314 127.649  0.00  0.00    +0.000 C 
ATOM     22  O   UNL     1      -5.449  -2.366 127.538  0.00  0.00    +0.000 OA
BRANCH  21  23
ATOM     23  C   UNL     1      -7.501  -2.611 126.479  0.00  0.00    +0.000 A 
ATOM     24  C   UNL     1      -6.899  -2.683 125.220  0.00  0.00    +0.000 A 
ATOM     25  C   UNL     1      -7.647  -3.149 124.141  0.00  0.00    +0.000 A 
ATOM     26  C   UNL     1      -9.021  -3.317 124.289  0.00  0.00    +0.000 A 
ATOM     27  F   UNL     1      -9.761  -3.643 123.222  0.00  0.00    +0.000 F 
ATOM     28  C   UNL     1      -9.641  -3.134 125.519  0.00  0.00    +0.000 A 
ATOM     29  C   UNL     1      -8.865  -2.854 126.640  0.00  0.00    +0.000 A 
ENDBRANCH  21  23
ENDBRANCH  20  21
ENDBRANCH  19  20
ENDBRANCH  18  19
ENDBRANCH   4  18
TORSDOF 5
ENDMDL
MODEL 9
REMARK VINA RESULT:      -7.7      3.198      3.980
REMARK  Name = Lumateperone
REMARK  6 active torsions:
REMARK  status: ('A' for Active; 'I' for Inactive)
REMARK    1  A    between atoms: N_5  and  C_6
REMARK    2  A    between atoms: C_6  and  C_7
REMARK    3  A    between atoms: C_7  and  C_8
REMARK    4  A    between atoms: C_8  and  C_9
REMARK    5  A    between atoms: C_9  and  C_11
REMARK    6  A    between atoms: N_30  and  C_31
REMARK                            x       y       z     vdW  Elec       q    Type
REMARK                         _______ _______ _______ _____ _____    ______ ____
ROOT
ATOM      1  C   UNL     1      -5.840  -1.854 129.050  0.00  0.00    +0.000 C 
ATOM      2  C   UNL     1      -4.985  -0.991 129.916  0.00  0.00    +0.000 C 
ATOM      3  C   UNL     1      -5.909  -0.172 130.770  0.00  0.00    +0.000 C 
ATOM      4  N   UNL     1      -6.885  -0.996 131.516  0.00  0.00    +0.000 NA
ATOM      5  C   UNL     1      -7.758  -1.795 130.623  0.00  0.00    +0.000 C 
ATOM      6  C   UNL     1      -6.972  -2.715 129.689  0.00  0.00    +0.000 C 
ATOM      7  C   UNL     1      -7.783  -2.942 128.427  0.00  0.00    +0.000 A 
ATOM      8  C   UNL     1      -8.771  -3.794 128.036  0.00  0.00    +0.000 A 
ATOM      9  C   UNL     1      -9.212  -3.601 126.718  0.00  0.00    +0.000 A 
ATOM     10  C   UNL     1      -8.539  -2.674 125.791  0.00  0.00    +0.000 A 
ATOM     11  C   UNL     1      -7.462  -1.867 126.205  0.00  0.00    +0.000 A 
ATOM     12  C   UNL     1      -7.355  -1.923 127.560  0.00  0.00    +0.000 A 
ATOM     13  N   UNL     1      -6.663  -0.953 128.271  0.00  0.00    +0.000 N 
ATOM     14  C   UNL     1      -6.279   0.287 127.647  0.00  0.00    +0.000 C 
ATOM     15  C   UNL     1      -5.442  -0.305 126.536  0.00  0.00    +0.000 C 
ATOM     16  N   UNL     1      -6.427  -1.084 125.583  0.00  0.00    +0.000 N 
ATOM     17  C   UNL     1      -6.770  -0.340 124.381  0.00  0.00    +0.000 C 
ENDROOT
BRANCH   4  18
ATOM     18  C   UNL     1      -7.750  -0.088 132.273  0.00  0.00    +0.000 C 
BRANCH  18  19
ATOM     19  C   UNL     1      -8.461   0.839 131.301  0.00  0.00    +0.000 C 
BRANCH  19  20
ATOM     20  C   UNL     1      -9.743   1.373 131.882  0.00  0.00    +0.000 C 
BRANCH  20  21
ATOM     21  C   UNL     1      -9.861   2.855 131.533  0.00  0.00    +0.000 C 
ATOM     22  O   UNL     1     -10.594   3.310 130.699  0.00  0.00    +0.000 OA
BRANCH  21  23
ATOM     23  C   UNL     1      -9.057   3.769 132.378  0.00  0.00    +0.000 A 
ATOM     24  C   UNL     1      -9.165   3.653 133.766  0.00  0.00    +0.000 A 
ATOM     25  C   UNL     1      -8.281   4.365 134.573  0.00  0.00    +0.000 A 
ATOM     26  C   UNL     1      -7.467   5.336 133.997  0.00  0.00    +0.000 A 
ATOM     27  F   UNL     1      -6.708   6.107 134.785  0.00  0.00    +0.000 F 
ATOM     28  C   UNL     1      -7.442   5.532 132.622  0.00  0.00    +0.000 A 
ATOM     29  C   UNL     1      -8.185   4.691 131.798  0.00  0.00    +0.000 A 
ENDBRANCH  21  23
ENDBRANCH  20  21
ENDBRANCH  19  20
ENDBRANCH  18  19
ENDBRANCH   4  18
TORSDOF 5
ENDMDL
