MODEL 1
REMARK VINA RESULT:      -9.8      0.000      0.000
REMARK  Name = Lumacaftor
REMARK  7 active torsions:
REMARK  status: ('A' for Active; 'I' for Inactive)
REMARK    1  A    between atoms: C_1  and  C_2
REMARK    2  A    between atoms: C_5  and  N_6
REMARK    3  A    between atoms: C_7  and  C_9
REMARK    4  A    between atoms: C_9  and  C_12
REMARK    5  A    between atoms: C_24  and  C_25
REMARK    6  A    between atoms: C_27  and  C_31
REMARK    7  A    between atoms: C_31  and  O_32
REMARK                            x       y       z     vdW  Elec       q    Type
REMARK                         _______ _______ _______ _____ _____    ______ ____
ROOT
ATOM      1  N   UNL     1      -7.069   4.690 129.310  0.00  0.00    +0.000 N 
ATOM      2  C   UNL     1      -8.060   4.646 130.275  0.00  0.00    +0.000 C 
ATOM      3  O   UNL     1      -8.796   3.706 130.566  0.00  0.00    +0.000 OA
ATOM      4  H   UNL     1      -6.522   5.528 129.172  0.00  0.00    +0.000 HD
ENDROOT
BRANCH   1   9
ATOM      5  C   UNL     1      -5.748   0.701 125.546  0.00  0.00    +0.000 C 
ATOM      6  C   UNL     1      -6.189   1.728 126.542  0.00  0.00    +0.000 A 
ATOM      7  C   UNL     1      -5.645   1.665 127.811  0.00  0.00    +0.000 A 
ATOM      8  C   UNL     1      -5.982   2.623 128.731  0.00  0.00    +0.000 A 
ATOM      9  C   UNL     1      -6.815   3.671 128.380  0.00  0.00    +0.000 A 
ATOM     10  N   UNL     1      -7.394   3.756 127.153  0.00  0.00    +0.000 NA
ATOM     11  C   UNL     1      -7.099   2.763 126.252  0.00  0.00    +0.000 A 
BRANCH  11  12
ATOM     12  C   UNL     1      -7.726   2.831 124.909  0.00  0.00    +0.000 A 
ATOM     13  C   UNL     1      -8.971   2.209 124.656  0.00  0.00    +0.000 A 
ATOM     14  C   UNL     1      -9.427   1.947 123.349  0.00  0.00    +0.000 A 
ATOM     15  C   UNL     1      -8.711   2.486 122.283  0.00  0.00    +0.000 A 
ATOM     16  C   UNL     1      -7.557   3.240 122.522  0.00  0.00    +0.000 A 
ATOM     17  C   UNL     1      -7.035   3.358 123.814  0.00  0.00    +0.000 A 
BRANCH  14  18
ATOM     18  C   UNL     1     -10.619   1.054 123.188  0.00  0.00    +0.000 C 
ATOM     19  O   UNL     1     -10.633   0.137 122.380  0.00  0.00    +0.000 OA
BRANCH  18  20
ATOM     20  O   UNL     1     -11.702   1.330 123.946  0.00  0.00    +0.000 OA
ATOM     21  H   UNL     1     -11.577   1.724 124.823  0.00  0.00    +0.000 HD
ENDBRANCH  18  20
ENDBRANCH  14  18
ENDBRANCH  11  12
ENDBRANCH   1   9
BRANCH   2  22
ATOM     22  C   UNL     1      -8.337   5.936 130.984  0.00  0.00    +0.000 C 
ATOM     23  C   UNL     1      -7.762   6.008 132.415  0.00  0.00    +0.000 C 
ATOM     24  C   UNL     1      -7.169   6.844 131.327  0.00  0.00    +0.000 C 
BRANCH  22  25
ATOM     25  C   UNL     1      -9.768   6.403 130.673  0.00  0.00    +0.000 A 
ATOM     26  C   UNL     1     -10.798   6.224 131.641  0.00  0.00    +0.000 A 
ATOM     27  C   UNL     1     -12.013   6.933 131.607  0.00  0.00    +0.000 A 
ATOM     28  C   UNL     1     -12.229   7.785 130.548  0.00  0.00    +0.000 A 
ATOM     29  O   UNL     1     -13.337   8.543 130.314  0.00  0.00    +0.000 OA
ATOM     30  C   UNL     1     -12.965   9.161 129.068  0.00  0.00    +0.000 C 
ATOM     31  F   UNL     1     -13.097  10.506 129.183  0.00  0.00    +0.000 F 
ATOM     32  F   UNL     1     -13.826   8.754 128.100  0.00  0.00    +0.000 F 
ATOM     33  O   UNL     1     -11.631   8.868 128.635  0.00  0.00    +0.000 OA
ATOM     34  C   UNL     1     -11.265   7.963 129.585  0.00  0.00    +0.000 A 
ATOM     35  C   UNL     1     -10.040   7.311 129.631  0.00  0.00    +0.000 A 
ENDBRANCH  22  25
ENDBRANCH   2  22
TORSDOF 6
ENDMDL
MODEL 2
REMARK VINA RESULT:      -9.8      7.056      9.268
REMARK  Name = Lumacaftor
REMARK  7 active torsions:
REMARK  status: ('A' for Active; 'I' for Inactive)
REMARK    1  A    between atoms: C_1  and  C_2
REMARK    2  A    between atoms: C_5  and  N_6
REMARK    3  A    between atoms: C_7  and  C_9
REMARK    4  A    between atoms: C_9  and  C_12
REMARK    5  A    between atoms: C_24  and  C_25
REMARK    6  A    between atoms: C_27  and  C_31
REMARK    7  A    between atoms: C_31  and  O_32
REMARK                            x       y       z     vdW  Elec       q    Type
REMARK                         _______ _______ _______ _____ _____    ______ ____
ROOT
ATOM      1  N   UNL     1      -7.117  -0.602 124.923  0.00  0.00    +0.000 N 
ATOM      2  C   UNL     1      -8.264  -0.951 125.616  0.00  0.00    +0.000 C 
ATOM      3  O   UNL     1      -9.194  -0.226 125.960  0.00  0.00    +0.000 OA
ATOM      4  H   UNL     1      -6.424  -1.300 124.691  0.00  0.00    +0.000 HD
ENDROOT
BRANCH   1   9
ATOM      5  C   UNL     1      -5.859   4.786 123.822  0.00  0.00    +0.000 C 
ATOM      6  C   UNL     1      -6.135   3.330 124.042  0.00  0.00    +0.000 A 
ATOM      7  C   UNL     1      -5.745   2.779 125.248  0.00  0.00    +0.000 A 
ATOM      8  C   UNL     1      -6.033   1.464 125.507  0.00  0.00    +0.000 A 
ATOM      9  C   UNL     1      -6.752   0.712 124.595  0.00  0.00    +0.000 A 
ATOM     10  N   UNL     1      -7.130   1.205 123.386  0.00  0.00    +0.000 NA
ATOM     11  C   UNL     1      -6.789   2.505 123.107  0.00  0.00    +0.000 A 
BRANCH  11  12
ATOM     12  C   UNL     1      -7.185   3.062 121.790  0.00  0.00    +0.000 A 
ATOM     13  C   UNL     1      -6.253   3.763 120.988  0.00  0.00    +0.000 A 
ATOM     14  C   UNL     1      -6.655   4.595 119.924  0.00  0.00    +0.000 A 
ATOM     15  C   UNL     1      -7.995   4.574 119.544  0.00  0.00    +0.000 A 
ATOM     16  C   UNL     1      -8.907   3.764 120.230  0.00  0.00    +0.000 A 
ATOM     17  C   UNL     1      -8.520   3.067 121.378  0.00  0.00    +0.000 A 
BRANCH  14  18
ATOM     18  C   UNL     1      -5.626   5.494 119.311  0.00  0.00    +0.000 C 
ATOM     19  O   UNL     1      -4.836   6.130 119.994  0.00  0.00    +0.000 OA
BRANCH  18  20
ATOM     20  O   UNL     1      -5.632   5.610 117.966  0.00  0.00    +0.000 OA
ATOM     21  H   UNL     1      -6.248   5.069 117.449  0.00  0.00    +0.000 HD
ENDBRANCH  18  20
ENDBRANCH  14  18
ENDBRANCH  11  12
ENDBRANCH   1   9
BRANCH   2  22
ATOM     22  C   UNL     1      -8.329  -2.369 126.095  0.00  0.00    +0.000 C 
ATOM     23  C   UNL     1      -9.678  -3.069 125.819  0.00  0.00    +0.000 C 
ATOM     24  C   UNL     1      -8.453  -3.480 125.067  0.00  0.00    +0.000 C 
BRANCH  22  25
ATOM     25  C   UNL     1      -7.631  -2.490 127.459  0.00  0.00    +0.000 A 
ATOM     26  C   UNL     1      -8.249  -3.228 128.509  0.00  0.00    +0.000 A 
ATOM     27  C   UNL     1      -7.543  -3.701 129.631  0.00  0.00    +0.000 A 
ATOM     28  C   UNL     1      -6.211  -3.370 129.739  0.00  0.00    +0.000 A 
ATOM     29  O   UNL     1      -5.359  -3.703 130.748  0.00  0.00    +0.000 OA
ATOM     30  C   UNL     1      -4.160  -3.045 130.297  0.00  0.00    +0.000 C 
ATOM     31  F   UNL     1      -3.144  -3.943 130.270  0.00  0.00    +0.000 F 
ATOM     32  F   UNL     1      -3.822  -2.083 131.194  0.00  0.00    +0.000 F 
ATOM     33  O   UNL     1      -4.268  -2.437 129.005  0.00  0.00    +0.000 OA
ATOM     34  C   UNL     1      -5.591  -2.639 128.754  0.00  0.00    +0.000 A 
ATOM     35  C   UNL     1      -6.259  -2.209 127.615  0.00  0.00    +0.000 A 
ENDBRANCH  22  25
ENDBRANCH   2  22
TORSDOF 6
ENDMDL
MODEL 3
REMARK VINA RESULT:      -9.8      1.928      2.272
REMARK  Name = Lumacaftor
REMARK  7 active torsions:
REMARK  status: ('A' for Active; 'I' for Inactive)
REMARK    1  A    between atoms: C_1  and  C_2
REMARK    2  A    between atoms: C_5  and  N_6
REMARK    3  A    between atoms: C_7  and  C_9
REMARK    4  A    between atoms: C_9  and  C_12
REMARK    5  A    between atoms: C_24  and  C_25
REMARK    6  A    between atoms: C_27  and  C_31
REMARK    7  A    between atoms: C_31  and  O_32
REMARK                            x       y       z     vdW  Elec       q    Type
REMARK                         _______ _______ _______ _____ _____    ______ ____
ROOT
ATOM      1  N   UNL     1      -8.812   3.775 129.631  0.00  0.00    +0.000 N 
ATOM      2  C   UNL     1      -7.943   4.840 129.796  0.00  0.00    +0.000 C 
ATOM      3  O   UNL     1      -6.857   5.026 129.253  0.00  0.00    +0.000 OA
ATOM      4  H   UNL     1      -9.688   3.743 130.134  0.00  0.00    +0.000 HD
ENDROOT
BRANCH   1   9
ATOM      5  C   UNL     1      -7.365  -0.818 126.693  0.00  0.00    +0.000 C 
ATOM      6  C   UNL     1      -7.839   0.390 127.441  0.00  0.00    +0.000 A 
ATOM      7  C   UNL     1      -7.765   0.359 128.821  0.00  0.00    +0.000 A 
ATOM      8  C   UNL     1      -8.136   1.469 129.535  0.00  0.00    +0.000 A 
ATOM      9  C   UNL     1      -8.529   2.623 128.882  0.00  0.00    +0.000 A 
ATOM     10  N   UNL     1      -8.644   2.688 127.528  0.00  0.00    +0.000 NA
ATOM     11  C   UNL     1      -8.326   1.556 126.820  0.00  0.00    +0.000 A 
BRANCH  11  12
ATOM     12  C   UNL     1      -8.451   1.601 125.342  0.00  0.00    +0.000 A 
ATOM     13  C   UNL     1      -7.415   2.139 124.542  0.00  0.00    +0.000 A 
ATOM     14  C   UNL     1      -7.624   2.522 123.202  0.00  0.00    +0.000 A 
ATOM     15  C   UNL     1      -8.837   2.185 122.604  0.00  0.00    +0.000 A 
ATOM     16  C   UNL     1      -9.818   1.511 123.338  0.00  0.00    +0.000 A 
ATOM     17  C   UNL     1      -9.653   1.278 124.707  0.00  0.00    +0.000 A 
BRANCH  14  18
ATOM     18  C   UNL     1      -6.552   3.321 122.526  0.00  0.00    +0.000 C 
ATOM     19  O   UNL     1      -6.037   2.953 121.481  0.00  0.00    +0.000 OA
BRANCH  18  20
ATOM     20  O   UNL     1      -6.144   4.450 123.143  0.00  0.00    +0.000 OA
ATOM     21  H   UNL     1      -5.196   4.600 123.274  0.00  0.00    +0.000 HD
ENDBRANCH  18  20
ENDBRANCH  14  18
ENDBRANCH  11  12
ENDBRANCH   1   9
BRANCH   2  22
ATOM     22  C   UNL     1      -8.329   5.839 130.844  0.00  0.00    +0.000 C 
ATOM     23  C   UNL     1      -7.846   5.482 132.267  0.00  0.00    +0.000 C 
ATOM     24  C   UNL     1      -7.233   6.632 131.533  0.00  0.00    +0.000 C 
BRANCH  22  25
ATOM     25  C   UNL     1      -9.762   6.333 130.588  0.00  0.00    +0.000 A 
ATOM     26  C   UNL     1     -10.766   6.145 131.582  0.00  0.00    +0.000 A 
ATOM     27  C   UNL     1     -11.970   6.872 131.602  0.00  0.00    +0.000 A 
ATOM     28  C   UNL     1     -12.205   7.754 130.571  0.00  0.00    +0.000 A 
ATOM     29  O   UNL     1     -13.308   8.533 130.389  0.00  0.00    +0.000 OA
ATOM     30  C   UNL     1     -12.963   9.177 129.148  0.00  0.00    +0.000 C 
ATOM     31  F   UNL     1     -13.072  10.520 129.301  0.00  0.00    +0.000 F 
ATOM     32  F   UNL     1     -13.859   8.807 128.197  0.00  0.00    +0.000 F 
ATOM     33  O   UNL     1     -11.648   8.876 128.669  0.00  0.00    +0.000 OA
ATOM     34  C   UNL     1     -11.267   7.942 129.584  0.00  0.00    +0.000 A 
ATOM     35  C   UNL     1     -10.051   7.271 129.577  0.00  0.00    +0.000 A 
ENDBRANCH  22  25
ENDBRANCH   2  22
TORSDOF 6
ENDMDL
MODEL 4
REMARK VINA RESULT:      -9.3      2.333      2.791
REMARK  Name = Lumacaftor
REMARK  7 active torsions:
REMARK  status: ('A' for Active; 'I' for Inactive)
REMARK    1  A    between atoms: C_1  and  C_2
REMARK    2  A    between atoms: C_5  and  N_6
REMARK    3  A    between atoms: C_7  and  C_9
REMARK    4  A    between atoms: C_9  and  C_12
REMARK    5  A    between atoms: C_24  and  C_25
REMARK    6  A    between atoms: C_27  and  C_31
REMARK    7  A    between atoms: C_31  and  O_32
REMARK                            x       y       z     vdW  Elec       q    Type
REMARK                         _______ _______ _______ _____ _____    ______ ____
ROOT
ATOM      1  N   UNL     1      -8.709   3.601 130.485  0.00  0.00    +0.000 N 
ATOM      2  C   UNL     1      -7.804   4.624 130.258  0.00  0.00    +0.000 C 
ATOM      3  O   UNL     1      -6.723   4.568 129.675  0.00  0.00    +0.000 OA
ATOM      4  H   UNL     1      -9.574   3.780 130.975  0.00  0.00    +0.000 HD
ENDROOT
BRANCH   1   9
ATOM      5  C   UNL     1      -7.507  -1.812 129.446  0.00  0.00    +0.000 C 
ATOM      6  C   UNL     1      -7.902  -0.384 129.664  0.00  0.00    +0.000 A 
ATOM      7  C   UNL     1      -8.251  -0.004 130.947  0.00  0.00    +0.000 A 
ATOM      8  C   UNL     1      -8.562   1.308 131.194  0.00  0.00    +0.000 A 
ATOM      9  C   UNL     1      -8.478   2.250 130.185  0.00  0.00    +0.000 A 
ATOM     10  N   UNL     1      -8.168   1.916 128.904  0.00  0.00    +0.000 NA
ATOM     11  C   UNL     1      -7.913   0.591 128.648  0.00  0.00    +0.000 A 
BRANCH  11  12
ATOM     12  C   UNL     1      -7.579   0.202 127.257  0.00  0.00    +0.000 A 
ATOM     13  C   UNL     1      -8.547  -0.403 126.420  0.00  0.00    +0.000 A 
ATOM     14  C   UNL     1      -8.195  -1.096 125.245  0.00  0.00    +0.000 A 
ATOM     15  C   UNL     1      -6.874  -1.018 124.807  0.00  0.00    +0.000 A 
ATOM     16  C   UNL     1      -5.933  -0.290 125.542  0.00  0.00    +0.000 A 
ATOM     17  C   UNL     1      -6.265   0.260 126.783  0.00  0.00    +0.000 A 
BRANCH  14  18
ATOM     18  C   UNL     1      -9.250  -1.923 124.576  0.00  0.00    +0.000 C 
ATOM     19  O   UNL     1      -9.532  -1.776 123.396  0.00  0.00    +0.000 OA
BRANCH  18  20
ATOM     20  O   UNL     1      -9.912  -2.815 125.343  0.00  0.00    +0.000 OA
ATOM     21  H   UNL     1     -10.835  -3.022 125.136  0.00  0.00    +0.000 HD
ENDBRANCH  18  20
ENDBRANCH  14  18
ENDBRANCH  11  12
ENDBRANCH   1   9
BRANCH   2  22
ATOM     22  C   UNL     1      -8.136   5.940 130.891  0.00  0.00    +0.000 C 
ATOM     23  C   UNL     1      -7.567   6.117 132.316  0.00  0.00    +0.000 C 
ATOM     24  C   UNL     1      -7.008   6.914 131.182  0.00  0.00    +0.000 C 
BRANCH  22  25
ATOM     25  C   UNL     1      -9.585   6.328 130.556  0.00  0.00    +0.000 A 
ATOM     26  C   UNL     1     -10.621   6.087 131.503  0.00  0.00    +0.000 A 
ATOM     27  C   UNL     1     -11.872   6.728 131.449  0.00  0.00    +0.000 A 
ATOM     28  C   UNL     1     -12.117   7.572 130.390  0.00  0.00    +0.000 A 
ATOM     29  O   UNL     1     -13.261   8.268 130.138  0.00  0.00    +0.000 OA
ATOM     30  C   UNL     1     -12.900   8.912 128.902  0.00  0.00    +0.000 C 
ATOM     31  F   UNL     1     -13.109  10.247 129.020  0.00  0.00    +0.000 F 
ATOM     32  F   UNL     1     -13.719   8.463 127.916  0.00  0.00    +0.000 F 
ATOM     33  O   UNL     1     -11.544   8.696 128.493  0.00  0.00    +0.000 OA
ATOM     34  C   UNL     1     -11.146   7.807 129.446  0.00  0.00    +0.000 A 
ATOM     35  C   UNL     1      -9.888   7.224 129.512  0.00  0.00    +0.000 A 
ENDBRANCH  22  25
ENDBRANCH   2  22
TORSDOF 6
ENDMDL
MODEL 5
REMARK VINA RESULT:      -9.3      2.535      3.420
REMARK  Name = Lumacaftor
REMARK  7 active torsions:
REMARK  status: ('A' for Active; 'I' for Inactive)
REMARK    1  A    between atoms: C_1  and  C_2
REMARK    2  A    between atoms: C_5  and  N_6
REMARK    3  A    between atoms: C_7  and  C_9
REMARK    4  A    between atoms: C_9  and  C_12
REMARK    5  A    between atoms: C_24  and  C_25
REMARK    6  A    between atoms: C_27  and  C_31
REMARK    7  A    between atoms: C_31  and  O_32
REMARK                            x       y       z     vdW  Elec       q    Type
REMARK                         _______ _______ _______ _____ _____    ______ ____
ROOT
ATOM      1  N   UNL     1      -8.542   2.861 131.769  0.00  0.00    +0.000 N 
ATOM      2  C   UNL     1      -7.521   3.690 132.201  0.00  0.00    +0.000 C 
ATOM      3  O   UNL     1      -6.316   3.590 131.983  0.00  0.00    +0.000 OA
ATOM      4  H   UNL     1      -9.503   3.059 132.012  0.00  0.00    +0.000 HD
ENDROOT
BRANCH   1   9
ATOM      5  C   UNL     1      -7.510  -2.054 129.200  0.00  0.00    +0.000 C 
ATOM      6  C   UNL     1      -7.858  -0.737 129.823  0.00  0.00    +0.000 A 
ATOM      7  C   UNL     1      -8.240  -0.738 131.151  0.00  0.00    +0.000 A 
ATOM      8  C   UNL     1      -8.510   0.456 131.769  0.00  0.00    +0.000 A 
ATOM      9  C   UNL     1      -8.352   1.650 131.088  0.00  0.00    +0.000 A 
ATOM     10  N   UNL     1      -8.006   1.695 129.773  0.00  0.00    +0.000 NA
ATOM     11  C   UNL     1      -7.792   0.494 129.142  0.00  0.00    +0.000 A 
BRANCH  11  12
ATOM     12  C   UNL     1      -7.421   0.519 127.707  0.00  0.00    +0.000 A 
ATOM     13  C   UNL     1      -8.377   0.227 126.704  0.00  0.00    +0.000 A 
ATOM     14  C   UNL     1      -8.004  -0.103 125.386  0.00  0.00    +0.000 A 
ATOM     15  C   UNL     1      -6.667   0.046 125.024  0.00  0.00    +0.000 A 
ATOM     16  C   UNL     1      -5.730   0.485 125.965  0.00  0.00    +0.000 A 
ATOM     17  C   UNL     1      -6.090   0.658 127.305  0.00  0.00    +0.000 A 
BRANCH  14  18
ATOM     18  C   UNL     1      -9.060  -0.652 124.476  0.00  0.00    +0.000 C 
ATOM     19  O   UNL     1      -9.660   0.059 123.683  0.00  0.00    +0.000 OA
BRANCH  18  20
ATOM     20  O   UNL     1      -9.357  -1.963 124.598  0.00  0.00    +0.000 OA
ATOM     21  H   UNL     1      -9.733  -2.434 123.839  0.00  0.00    +0.000 HD
ENDBRANCH  18  20
ENDBRANCH  14  18
ENDBRANCH  11  12
ENDBRANCH   1   9
BRANCH   2  22
ATOM     22  C   UNL     1      -7.926   4.788 133.137  0.00  0.00    +0.000 C 
ATOM     23  C   UNL     1      -8.290   4.307 134.558  0.00  0.00    +0.000 C 
ATOM     24  C   UNL     1      -7.039   5.092 134.331  0.00  0.00    +0.000 C 
BRANCH  22  25
ATOM     25  C   UNL     1      -8.800   5.810 132.392  0.00  0.00    +0.000 A 
ATOM     26  C   UNL     1      -8.284   6.487 131.249  0.00  0.00    +0.000 A 
ATOM     27  C   UNL     1      -9.103   7.134 130.307  0.00  0.00    +0.000 A 
ATOM     28  C   UNL     1     -10.458   7.165 130.548  0.00  0.00    +0.000 A 
ATOM     29  O   UNL     1     -11.418   7.754 129.781  0.00  0.00    +0.000 OA
ATOM     30  C   UNL     1     -12.587   7.470 130.572  0.00  0.00    +0.000 C 
ATOM     31  F   UNL     1     -13.517   6.868 129.789  0.00  0.00    +0.000 F 
ATOM     32  F   UNL     1     -13.122   8.641 131.003  0.00  0.00    +0.000 F 
ATOM     33  O   UNL     1     -12.343   6.639 131.713  0.00  0.00    +0.000 OA
ATOM     34  C   UNL     1     -10.986   6.542 131.653  0.00  0.00    +0.000 A 
ATOM     35  C   UNL     1     -10.198   5.854 132.566  0.00  0.00    +0.000 A 
ENDBRANCH  22  25
ENDBRANCH   2  22
TORSDOF 6
ENDMDL
MODEL 6
REMARK VINA RESULT:      -9.3      5.493      8.878
REMARK  Name = Lumacaftor
REMARK  7 active torsions:
REMARK  status: ('A' for Active; 'I' for Inactive)
REMARK    1  A    between atoms: C_1  and  C_2
REMARK    2  A    between atoms: C_5  and  N_6
REMARK    3  A    between atoms: C_7  and  C_9
REMARK    4  A    between atoms: C_9  and  C_12
REMARK    5  A    between atoms: C_24  and  C_25
REMARK    6  A    between atoms: C_27  and  C_31
REMARK    7  A    between atoms: C_31  and  O_32
REMARK                            x       y       z     vdW  Elec       q    Type
REMARK                         _______ _______ _______ _____ _____    ______ ____
ROOT
ATOM      1  N   UNL     1      -7.053   0.766 127.181  0.00  0.00    +0.000 N 
ATOM      2  C   UNL     1      -7.877   1.875 127.281  0.00  0.00    +0.000 C 
ATOM      3  O   UNL     1      -9.037   1.926 127.682  0.00  0.00    +0.000 OA
ATOM      4  H   UNL     1      -6.107   0.858 126.841  0.00  0.00    +0.000 HD
ENDROOT
BRANCH   1   9
ATOM      5  C   UNL     1      -9.002  -4.440 128.143  0.00  0.00    +0.000 C 
ATOM      6  C   UNL     1      -8.396  -3.095 127.886  0.00  0.00    +0.000 A 
ATOM      7  C   UNL     1      -8.730  -2.457 126.706  0.00  0.00    +0.000 A 
ATOM      8  C   UNL     1      -8.239  -1.200 126.464  0.00  0.00    +0.000 A 
ATOM      9  C   UNL     1      -7.464  -0.556 127.411  0.00  0.00    +0.000 A 
ATOM     10  N   UNL     1      -7.088  -1.157 128.572  0.00  0.00    +0.000 NA
ATOM     11  C   UNL     1      -7.534  -2.437 128.785  0.00  0.00    +0.000 A 
BRANCH  11  12
ATOM     12  C   UNL     1      -7.131  -3.115 130.041  0.00  0.00    +0.000 A 
ATOM     13  C   UNL     1      -7.691  -2.736 131.284  0.00  0.00    +0.000 A 
ATOM     14  C   UNL     1      -7.101  -3.091 132.513  0.00  0.00    +0.000 A 
ATOM     15  C   UNL     1      -6.042  -3.996 132.496  0.00  0.00    +0.000 A 
ATOM     16  C   UNL     1      -5.573  -4.505 131.281  0.00  0.00    +0.000 A 
ATOM     17  C   UNL     1      -6.068  -4.023 130.065  0.00  0.00    +0.000 A 
BRANCH  14  18
ATOM     18  C   UNL     1      -7.612  -2.424 133.754  0.00  0.00    +0.000 C 
ATOM     19  O   UNL     1      -6.986  -1.534 134.311  0.00  0.00    +0.000 OA
BRANCH  18  20
ATOM     20  O   UNL     1      -8.777  -2.878 134.261  0.00  0.00    +0.000 OA
ATOM     21  H   UNL     1      -9.280  -3.543 133.767  0.00  0.00    +0.000 HD
ENDBRANCH  18  20
ENDBRANCH  14  18
ENDBRANCH  11  12
ENDBRANCH   1   9
BRANCH   2  22
ATOM     22  C   UNL     1      -7.316   3.153 126.737  0.00  0.00    +0.000 C 
ATOM     23  C   UNL     1      -7.934   4.427 127.352  0.00  0.00    +0.000 C 
ATOM     24  C   UNL     1      -6.521   4.053 127.665  0.00  0.00    +0.000 C 
BRANCH  22  25
ATOM     25  C   UNL     1      -7.101   3.022 125.220  0.00  0.00    +0.000 A 
ATOM     26  C   UNL     1      -8.192   2.667 124.376  0.00  0.00    +0.000 A 
ATOM     27  C   UNL     1      -8.188   2.885 122.987  0.00  0.00    +0.000 A 
ATOM     28  C   UNL     1      -7.045   3.403 122.421  0.00  0.00    +0.000 A 
ATOM     29  O   UNL     1      -6.825   3.667 121.102  0.00  0.00    +0.000 OA
ATOM     30  C   UNL     1      -5.468   4.144 121.161  0.00  0.00    +0.000 C 
ATOM     31  F   UNL     1      -5.396   5.353 120.551  0.00  0.00    +0.000 F 
ATOM     32  F   UNL     1      -4.672   3.294 120.461  0.00  0.00    +0.000 F 
ATOM     33  O   UNL     1      -4.938   4.267 122.486  0.00  0.00    +0.000 OA
ATOM     34  C   UNL     1      -5.965   3.734 123.205  0.00  0.00    +0.000 A 
ATOM     35  C   UNL     1      -5.972   3.574 124.584  0.00  0.00    +0.000 A 
ENDBRANCH  22  25
ENDBRANCH   2  22
TORSDOF 6
ENDMDL
MODEL 7
REMARK VINA RESULT:      -9.2      3.200      3.909
REMARK  Name = Lumacaftor
REMARK  7 active torsions:
REMARK  status: ('A' for Active; 'I' for Inactive)
REMARK    1  A    between atoms: C_1  and  C_2
REMARK    2  A    between atoms: C_5  and  N_6
REMARK    3  A    between atoms: C_7  and  C_9
REMARK    4  A    between atoms: C_9  and  C_12
REMARK    5  A    between atoms: C_24  and  C_25
REMARK    6  A    between atoms: C_27  and  C_31
REMARK    7  A    between atoms: C_31  and  O_32
REMARK                            x       y       z     vdW  Elec       q    Type
REMARK                         _______ _______ _______ _____ _____    ______ ____
ROOT
ATOM      1  N   UNL     1      -7.262   1.107 130.485  0.00  0.00    +0.000 N 
ATOM      2  C   UNL     1      -8.217   1.934 131.051  0.00  0.00    +0.000 C 
ATOM      3  O   UNL     1      -9.411   1.707 131.230  0.00  0.00    +0.000 OA
ATOM      4  H   UNL     1      -6.303   1.411 130.402  0.00  0.00    +0.000 HD
ENDROOT
BRANCH   1   9
ATOM      5  C   UNL     1      -8.114  -3.992 128.226  0.00  0.00    +0.000 C 
ATOM      6  C   UNL     1      -7.957  -2.605 128.768  0.00  0.00    +0.000 A 
ATOM      7  C   UNL     1      -8.238  -2.405 130.107  0.00  0.00    +0.000 A 
ATOM      8  C   UNL     1      -8.050  -1.160 130.650  0.00  0.00    +0.000 A 
ATOM      9  C   UNL     1      -7.535  -0.130 129.883  0.00  0.00    +0.000 A 
ATOM     10  N   UNL     1      -7.273  -0.275 128.556  0.00  0.00    +0.000 NA
ATOM     11  C   UNL     1      -7.517  -1.508 128.002  0.00  0.00    +0.000 A 
BRANCH  11  12
ATOM     12  C   UNL     1      -7.244  -1.687 126.556  0.00  0.00    +0.000 A 
ATOM     13  C   UNL     1      -8.292  -1.622 125.606  0.00  0.00    +0.000 A 
ATOM     14  C   UNL     1      -8.149  -2.123 124.297  0.00  0.00    +0.000 A 
ATOM     15  C   UNL     1      -6.881  -2.523 123.880  0.00  0.00    +0.000 A 
ATOM     16  C   UNL     1      -5.797  -2.448 124.761  0.00  0.00    +0.000 A 
ATOM     17  C   UNL     1      -5.987  -2.095 126.100  0.00  0.00    +0.000 A 
BRANCH  14  18
ATOM     18  C   UNL     1      -9.384  -2.252 123.458  0.00  0.00    +0.000 C 
ATOM     19  O   UNL     1      -9.797  -1.327 122.773  0.00  0.00    +0.000 OA
BRANCH  18  20
ATOM     20  O   UNL     1     -10.051  -3.423 123.520  0.00  0.00    +0.000 OA
ATOM     21  H   UNL     1     -10.492  -3.758 122.724  0.00  0.00    +0.000 HD
ENDBRANCH  18  20
ENDBRANCH  14  18
ENDBRANCH  11  12
ENDBRANCH   1   9
BRANCH   2  22
ATOM     22  C   UNL     1      -7.758   3.318 131.395  0.00  0.00    +0.000 C 
ATOM     23  C   UNL     1      -7.031   3.425 132.753  0.00  0.00    +0.000 C 
ATOM     24  C   UNL     1      -6.266   3.591 131.479  0.00  0.00    +0.000 C 
BRANCH  22  25
ATOM     25  C   UNL     1      -8.829   4.340 130.981  0.00  0.00    +0.000 A 
ATOM     26  C   UNL     1      -9.472   5.136 131.973  0.00  0.00    +0.000 A 
ATOM     27  C   UNL     1     -10.165   6.322 131.671  0.00  0.00    +0.000 A 
ATOM     28  C   UNL     1     -10.278   6.682 130.347  0.00  0.00    +0.000 A 
ATOM     29  O   UNL     1     -10.923   7.770 129.842  0.00  0.00    +0.000 OA
ATOM     30  C   UNL     1     -10.710   7.561 128.433  0.00  0.00    +0.000 C 
ATOM     31  F   UNL     1     -10.164   8.680 127.895  0.00  0.00    +0.000 F 
ATOM     32  F   UNL     1     -11.912   7.371 127.830  0.00  0.00    +0.000 F 
ATOM     33  O   UNL     1      -9.868   6.445 128.119  0.00  0.00    +0.000 OA
ATOM     34  C   UNL     1      -9.689   5.922 129.364  0.00  0.00    +0.000 A 
ATOM     35  C   UNL     1      -8.957   4.778 129.648  0.00  0.00    +0.000 A 
ENDBRANCH  22  25
ENDBRANCH   2  22
TORSDOF 6
ENDMDL
MODEL 8
REMARK VINA RESULT:      -9.2      5.661      8.666
REMARK  Name = Lumacaftor
REMARK  7 active torsions:
REMARK  status: ('A' for Active; 'I' for Inactive)
REMARK    1  A    between atoms: C_1  and  C_2
REMARK    2  A    between atoms: C_5  and  N_6
REMARK    3  A    between atoms: C_7  and  C_9
REMARK    4  A    between atoms: C_9  and  C_12
REMARK    5  A    between atoms: C_24  and  C_25
REMARK    6  A    between atoms: C_27  and  C_31
REMARK    7  A    between atoms: C_31  and  O_32
REMARK                            x       y       z     vdW  Elec       q    Type
REMARK                         _______ _______ _______ _____ _____    ______ ____
ROOT
ATOM      1  N   UNL     1      -6.813   0.415 126.378  0.00  0.00    +0.000 N 
ATOM      2  C   UNL     1      -7.517   1.602 126.272  0.00  0.00    +0.000 C 
ATOM      3  O   UNL     1      -8.674   1.833 126.614  0.00  0.00    +0.000 OA
ATOM      4  H   UNL     1      -5.854   0.356 126.064  0.00  0.00    +0.000 HD
ENDROOT
BRANCH   1   9
ATOM      5  C   UNL     1      -9.311  -4.342 128.095  0.00  0.00    +0.000 C 
ATOM      6  C   UNL     1      -8.565  -3.127 127.637  0.00  0.00    +0.000 A 
ATOM      7  C   UNL     1      -8.904  -2.593 126.408  0.00  0.00    +0.000 A 
ATOM      8  C   UNL     1      -8.281  -1.448 125.982  0.00  0.00    +0.000 A 
ATOM      9  C   UNL     1      -7.364  -0.805 126.795  0.00  0.00    +0.000 A 
ATOM     10  N   UNL     1      -6.981  -1.311 127.998  0.00  0.00    +0.000 NA
ATOM     11  C   UNL     1      -7.564  -2.489 128.395  0.00  0.00    +0.000 A 
BRANCH  11  12
ATOM     12  C   UNL     1      -7.156  -3.063 129.700  0.00  0.00    +0.000 A 
ATOM     13  C   UNL     1      -7.731  -2.601 130.908  0.00  0.00    +0.000 A 
ATOM     14  C   UNL     1      -7.142  -2.852 132.163  0.00  0.00    +0.000 A 
ATOM     15  C   UNL     1      -6.066  -3.736 132.219  0.00  0.00    +0.000 A 
ATOM     16  C   UNL     1      -5.580  -4.326 131.048  0.00  0.00    +0.000 A 
ATOM     17  C   UNL     1      -6.077  -3.946 129.797  0.00  0.00    +0.000 A 
BRANCH  14  18
ATOM     18  C   UNL     1      -7.671  -2.104 133.348  0.00  0.00    +0.000 C 
ATOM     19  O   UNL     1      -8.396  -2.638 134.175  0.00  0.00    +0.000 OA
BRANCH  18  20
ATOM     20  O   UNL     1      -7.350  -0.797 133.445  0.00  0.00    +0.000 OA
ATOM     21  H   UNL     1      -7.398  -0.239 132.654  0.00  0.00    +0.000 HD
ENDBRANCH  18  20
ENDBRANCH  14  18
ENDBRANCH  11  12
ENDBRANCH   1   9
BRANCH   2  22
ATOM     22  C   UNL     1      -6.813   2.715 125.558  0.00  0.00    +0.000 C 
ATOM     23  C   UNL     1      -6.686   2.507 124.033  0.00  0.00    +0.000 C 
ATOM     24  C   UNL     1      -7.600   3.560 124.571  0.00  0.00    +0.000 C 
BRANCH  22  25
ATOM     25  C   UNL     1      -5.623   3.203 126.399  0.00  0.00    +0.000 A 
ATOM     26  C   UNL     1      -4.379   2.510 126.338  0.00  0.00    +0.000 A 
ATOM     27  C   UNL     1      -3.164   3.079 126.761  0.00  0.00    +0.000 A 
ATOM     28  C   UNL     1      -3.203   4.337 127.319  0.00  0.00    +0.000 A 
ATOM     29  O   UNL     1      -2.153   5.053 127.810  0.00  0.00    +0.000 OA
ATOM     30  C   UNL     1      -2.841   6.232 128.268  0.00  0.00    +0.000 C 
ATOM     31  F   UNL     1      -2.252   7.328 127.727  0.00  0.00    +0.000 F 
ATOM     32  F   UNL     1      -2.704   6.326 129.616  0.00  0.00    +0.000 F 
ATOM     33  O   UNL     1      -4.238   6.263 127.955  0.00  0.00    +0.000 OA
ATOM     34  C   UNL     1      -4.391   5.022 127.414  0.00  0.00    +0.000 A 
ATOM     35  C   UNL     1      -5.591   4.498 126.954  0.00  0.00    +0.000 A 
ENDBRANCH  22  25
ENDBRANCH   2  22
TORSDOF 6
ENDMDL
MODEL 9
REMARK VINA RESULT:      -9.1      5.277      8.323
REMARK  Name = Lumacaftor
REMARK  7 active torsions:
REMARK  status: ('A' for Active; 'I' for Inactive)
REMARK    1  A    between atoms: C_1  and  C_2
REMARK    2  A    between atoms: C_5  and  N_6
REMARK    3  A    between atoms: C_7  and  C_9
REMARK    4  A    between atoms: C_9  and  C_12
REMARK    5  A    between atoms: C_24  and  C_25
REMARK    6  A    between atoms: C_27  and  C_31
REMARK    7  A    between atoms: C_31  and  O_32
REMARK                            x       y       z     vdW  Elec       q    Type
REMARK                         _______ _______ _______ _____ _____    ______ ____
ROOT
ATOM      1  N   UNL     1      -5.985  -0.538 130.269  0.00  0.00    +0.000 N 
ATOM      2  C   UNL     1      -5.571  -1.731 129.701  0.00  0.00    +0.000 C 
ATOM      3  O   UNL     1      -4.555  -1.949 129.045  0.00  0.00    +0.000 OA
ATOM      4  H   UNL     1      -6.846  -0.491 130.796  0.00  0.00    +0.000 HD
ENDROOT
BRANCH   1   9
ATOM      5  C   UNL     1      -3.629   4.559 129.725  0.00  0.00    +0.000 C 
ATOM      6  C   UNL     1      -4.201   3.176 129.796  0.00  0.00    +0.000 A 
ATOM      7  C   UNL     1      -3.968   2.444 130.945  0.00  0.00    +0.000 A 
ATOM      8  C   UNL     1      -4.524   1.197 131.068  0.00  0.00    +0.000 A 
ATOM      9  C   UNL     1      -5.352   0.699 130.078  0.00  0.00    +0.000 A 
ATOM     10  N   UNL     1      -5.585   1.372 128.919  0.00  0.00    +0.000 NA
ATOM     11  C   UNL     1      -4.979   2.596 128.775  0.00  0.00    +0.000 A 
BRANCH  11  12
ATOM     12  C   UNL     1      -5.213   3.345 127.517  0.00  0.00    +0.000 A 
ATOM     13  C   UNL     1      -6.484   3.895 127.225  0.00  0.00    +0.000 A 
ATOM     14  C   UNL     1      -6.847   4.296 125.924  0.00  0.00    +0.000 A 
ATOM     15  C   UNL     1      -5.857   4.319 124.943  0.00  0.00    +0.000 A 
ATOM     16  C   UNL     1      -4.551   3.925 125.254  0.00  0.00    +0.000 A 
ATOM     17  C   UNL     1      -4.248   3.384 126.507  0.00  0.00    +0.000 A 
BRANCH  14  18
ATOM     18  C   UNL     1      -8.288   4.613 125.664  0.00  0.00    +0.000 C 
ATOM     19  O   UNL     1      -8.798   5.655 126.048  0.00  0.00    +0.000 OA
BRANCH  18  20
ATOM     20  O   UNL     1      -9.018   3.676 125.022  0.00  0.00    +0.000 OA
ATOM     21  H   UNL     1      -8.608   3.166 124.307  0.00  0.00    +0.000 HD
ENDBRANCH  18  20
ENDBRANCH  14  18
ENDBRANCH  11  12
ENDBRANCH   1   9
BRANCH   2  22
ATOM     22  C   UNL     1      -6.533  -2.874 129.813  0.00  0.00    +0.000 C 
ATOM     23  C   UNL     1      -6.008  -4.064 130.644  0.00  0.00    +0.000 C 
ATOM     24  C   UNL     1      -7.112  -3.208 131.176  0.00  0.00    +0.000 C 
BRANCH  22  25
ATOM     25  C   UNL     1      -7.241  -3.091 128.465  0.00  0.00    +0.000 A 
ATOM     26  C   UNL     1      -8.487  -3.781 128.422  0.00  0.00    +0.000 A 
ATOM     27  C   UNL     1      -9.368  -3.702 127.328  0.00  0.00    +0.000 A 
ATOM     28  C   UNL     1      -8.965  -2.976 126.229  0.00  0.00    +0.000 A 
ATOM     29  O   UNL     1      -9.651  -2.793 125.067  0.00  0.00    +0.000 OA
ATOM     30  C   UNL     1      -8.703  -1.995 124.334  0.00  0.00    +0.000 C 
ATOM     31  F   UNL     1      -9.316  -0.868 123.895  0.00  0.00    +0.000 F 
ATOM     32  F   UNL     1      -8.300  -2.687 123.237  0.00  0.00    +0.000 F 
ATOM     33  O   UNL     1      -7.539  -1.621 125.081  0.00  0.00    +0.000 OA
ATOM     34  C   UNL     1      -7.758  -2.318 126.231  0.00  0.00    +0.000 A 
ATOM     35  C   UNL     1      -6.900  -2.342 127.322  0.00  0.00    +0.000 A 
ENDBRANCH  22  25
ENDBRANCH   2  22
TORSDOF 6
ENDMDL
