MODEL 1
REMARK VINA RESULT:      -8.7      0.000      0.000
REMARK  Name = Lumefantrine
REMARK  13 active torsions:
REMARK  status: ('A' for Active; 'I' for Inactive)
REMARK    1  A    between atoms: C_1  and  C_2
REMARK    2  A    between atoms: C_2  and  C_3
REMARK    3  A    between atoms: C_3  and  C_4
REMARK    4  A    between atoms: C_4  and  N_5
REMARK    5  A    between atoms: N_5  and  C_6
REMARK    6  A    between atoms: N_5  and  C_10
REMARK    7  A    between atoms: C_6  and  C_7
REMARK    8  A    between atoms: C_7  and  C_8
REMARK    9  A    between atoms: C_8  and  C_9
REMARK   10  A    between atoms: C_10  and  C_11
REMARK   11  A    between atoms: C_11  and  O_12
REMARK   12  A    between atoms: C_11  and  C_13
REMARK   13  A    between atoms: C_21  and  C_22
REMARK                            x       y       z     vdW  Elec       q    Type
REMARK                         _______ _______ _______ _____ _____    ______ ____
ROOT
ATOM      1  C   UNL     1      -8.819   1.735 124.510  0.00  0.00    +0.000 A 
ATOM      2  C   UNL     1      -7.707   2.536 124.175  0.00  0.00    +0.000 A 
ATOM      3  C   UNL     1      -6.794   2.870 125.192  0.00  0.00    +0.000 A 
ATOM      4  C   UNL     1      -7.025   2.478 126.509  0.00  0.00    +0.000 A 
ATOM      5  C   UNL     1      -8.092   1.651 126.823  0.00  0.00    +0.000 A 
ATOM      6 CL   UNL     1      -8.298   1.090 128.434  0.00  0.00    +0.000 Cl
ATOM      7  C   UNL     1      -8.986   1.284 125.837  0.00  0.00    +0.000 A 
ATOM      8  C   UNL     1      -5.689   3.660 124.554  0.00  0.00    +0.000 C 
ATOM      9  C   UNL     1      -4.574   4.126 125.130  0.00  0.00    +0.000 C 
ATOM     10  C   UNL     1      -6.021   3.824 123.102  0.00  0.00    +0.000 A 
ATOM     11  C   UNL     1      -7.242   3.146 122.905  0.00  0.00    +0.000 A 
ATOM     12  C   UNL     1      -7.799   3.156 121.629  0.00  0.00    +0.000 A 
ATOM     13  C   UNL     1      -7.166   3.782 120.558  0.00  0.00    +0.000 A 
ATOM     14  C   UNL     1      -5.959   4.434 120.770  0.00  0.00    +0.000 A 
ATOM     15 CL   UNL     1      -5.204   5.212 119.432  0.00  0.00    +0.000 Cl
ATOM     16  C   UNL     1      -5.375   4.467 122.044  0.00  0.00    +0.000 A 
ENDROOT
BRANCH   9  17
ATOM     17  C   UNL     1      -4.202   3.923 126.546  0.00  0.00    +0.000 A 
ATOM     18  C   UNL     1      -3.620   2.712 126.959  0.00  0.00    +0.000 A 
ATOM     19  C   UNL     1      -3.607   2.367 128.317  0.00  0.00    +0.000 A 
ATOM     20  C   UNL     1      -4.019   3.296 129.267  0.00  0.00    +0.000 A 
ATOM     21 CL   UNL     1      -4.087   2.849 130.927  0.00  0.00    +0.000 Cl
ATOM     22  C   UNL     1      -4.425   4.571 128.873  0.00  0.00    +0.000 A 
ATOM     23  C   UNL     1      -4.559   4.869 127.512  0.00  0.00    +0.000 A 
ENDBRANCH   9  17
BRANCH   1  24
ATOM     24  C   UNL     1      -9.865   1.279 123.538  0.00  0.00    +0.000 C 
BRANCH  24  25
ATOM     25  O   UNL     1     -11.084   1.230 124.272  0.00  0.00    +0.000 OA
ATOM     26  H   UNL     1     -10.976   0.681 125.061  0.00  0.00    +0.000 HD
ENDBRANCH  24  25
BRANCH  24  27
ATOM     27  C   UNL     1      -9.360   0.017 122.769  0.00  0.00    +0.000 C 
BRANCH  27  28
ATOM     28  N   UNL     1      -8.598  -0.985 123.555  0.00  0.00    +0.000 NA
BRANCH  28  29
ATOM     29  C   UNL     1      -9.217  -2.317 123.307  0.00  0.00    +0.000 C 
BRANCH  29  30
ATOM     30  C   UNL     1      -9.290  -3.162 124.564  0.00  0.00    +0.000 C 
BRANCH  30  32
ATOM     31  C   UNL     1      -8.552  -3.366 126.885  0.00  0.00    +0.000 C 
ATOM     32  C   UNL     1      -9.319  -2.473 125.903  0.00  0.00    +0.000 C 
ENDBRANCH  30  32
ENDBRANCH  29  30
ENDBRANCH  28  29
BRANCH  28  33
ATOM     33  C   UNL     1      -7.160  -0.918 123.213  0.00  0.00    +0.000 C 
BRANCH  33  34
ATOM     34  C   UNL     1      -6.177  -0.838 124.356  0.00  0.00    +0.000 C 
BRANCH  34  35
ATOM     35  C   UNL     1      -5.636  -2.169 124.823  0.00  0.00    +0.000 C 
ATOM     36  C   UNL     1      -5.297  -2.941 123.554  0.00  0.00    +0.000 C 
ENDBRANCH  34  35
ENDBRANCH  33  34
ENDBRANCH  28  33
ENDBRANCH  27  28
ENDBRANCH  24  27
ENDBRANCH   1  24
TORSDOF 11
ENDMDL
MODEL 2
REMARK VINA RESULT:      -8.0      1.045      2.180
REMARK  Name = Lumefantrine
REMARK  13 active torsions:
REMARK  status: ('A' for Active; 'I' for Inactive)
REMARK    1  A    between atoms: C_1  and  C_2
REMARK    2  A    between atoms: C_2  and  C_3
REMARK    3  A    between atoms: C_3  and  C_4
REMARK    4  A    between atoms: C_4  and  N_5
REMARK    5  A    between atoms: N_5  and  C_6
REMARK    6  A    between atoms: N_5  and  C_10
REMARK    7  A    between atoms: C_6  and  C_7
REMARK    8  A    between atoms: C_7  and  C_8
REMARK    9  A    between atoms: C_8  and  C_9
REMARK   10  A    between atoms: C_10  and  C_11
REMARK   11  A    between atoms: C_11  and  O_12
REMARK   12  A    between atoms: C_11  and  C_13
REMARK   13  A    between atoms: C_21  and  C_22
REMARK                            x       y       z     vdW  Elec       q    Type
REMARK                         _______ _______ _______ _____ _____    ______ ____
ROOT
ATOM      1  C   UNL     1      -8.266   1.510 125.629  0.00  0.00    +0.000 A 
ATOM      2  C   UNL     1      -7.278   2.389 125.137  0.00  0.00    +0.000 A 
ATOM      3  C   UNL     1      -6.350   2.926 126.048  0.00  0.00    +0.000 A 
ATOM      4  C   UNL     1      -6.453   2.651 127.410  0.00  0.00    +0.000 A 
ATOM      5  C   UNL     1      -7.394   1.750 127.880  0.00  0.00    +0.000 A 
ATOM      6 CL   UNL     1      -7.434   1.340 129.548  0.00  0.00    +0.000 Cl
ATOM      7  C   UNL     1      -8.298   1.185 127.001  0.00  0.00    +0.000 A 
ATOM      8  C   UNL     1      -5.385   3.762 125.257  0.00  0.00    +0.000 C 
ATOM      9  C   UNL     1      -4.300   4.405 125.703  0.00  0.00    +0.000 C 
ATOM     10  C   UNL     1      -5.823   3.735 123.825  0.00  0.00    +0.000 A 
ATOM     11  C   UNL     1      -6.966   2.910 123.783  0.00  0.00    +0.000 A 
ATOM     12  C   UNL     1      -7.597   2.725 122.556  0.00  0.00    +0.000 A 
ATOM     13  C   UNL     1      -7.109   3.301 121.387  0.00  0.00    +0.000 A 
ATOM     14  C   UNL     1      -5.975   4.100 121.446  0.00  0.00    +0.000 A 
ATOM     15 CL   UNL     1      -5.400   4.812 119.988  0.00  0.00    +0.000 Cl
ATOM     16  C   UNL     1      -5.322   4.331 122.665  0.00  0.00    +0.000 A 
ENDROOT
BRANCH   9  17
ATOM     17  C   UNL     1      -3.820   4.393 127.101  0.00  0.00    +0.000 A 
ATOM     18  C   UNL     1      -3.157   3.265 127.613  0.00  0.00    +0.000 A 
ATOM     19  C   UNL     1      -3.033   3.093 128.998  0.00  0.00    +0.000 A 
ATOM     20  C   UNL     1      -3.419   4.118 129.857  0.00  0.00    +0.000 A 
ATOM     21 CL   UNL     1      -3.350   3.879 131.559  0.00  0.00    +0.000 Cl
ATOM     22  C   UNL     1      -3.908   5.318 129.343  0.00  0.00    +0.000 A 
ATOM     23  C   UNL     1      -4.150   5.439 127.969  0.00  0.00    +0.000 A 
ENDBRANCH   9  17
BRANCH   1  24
ATOM     24  C   UNL     1      -9.310   0.843 124.784  0.00  0.00    +0.000 C 
BRANCH  24  25
ATOM     25  O   UNL     1     -10.317   1.824 124.562  0.00  0.00    +0.000 OA
ATOM     26  H   UNL     1     -11.101   1.414 124.170  0.00  0.00    +0.000 HD
ENDBRANCH  24  25
BRANCH  24  27
ATOM     27  C   UNL     1      -9.685  -0.542 125.402  0.00  0.00    +0.000 C 
BRANCH  27  28
ATOM     28  N   UNL     1      -9.577  -1.723 124.511  0.00  0.00    +0.000 NA
BRANCH  28  29
ATOM     29  C   UNL     1      -8.809  -1.310 123.304  0.00  0.00    +0.000 C 
BRANCH  29  30
ATOM     30  C   UNL     1      -7.384  -1.826 123.322  0.00  0.00    +0.000 C 
BRANCH  30  32
ATOM     31  C   UNL     1      -5.758  -1.104 124.998  0.00  0.00    +0.000 C 
ATOM     32  C   UNL     1      -6.261  -0.853 123.572  0.00  0.00    +0.000 C 
ENDBRANCH  30  32
ENDBRANCH  29  30
ENDBRANCH  28  29
BRANCH  28  33
ATOM     33  C   UNL     1      -8.980  -2.863 125.242  0.00  0.00    +0.000 C 
BRANCH  33  34
ATOM     34  C   UNL     1      -8.635  -2.651 126.696  0.00  0.00    +0.000 C 
BRANCH  34  35
ATOM     35  C   UNL     1      -8.888  -3.844 127.589  0.00  0.00    +0.000 C 
ATOM     36  C   UNL     1      -8.491  -3.398 128.991  0.00  0.00    +0.000 C 
ENDBRANCH  34  35
ENDBRANCH  33  34
ENDBRANCH  28  33
ENDBRANCH  27  28
ENDBRANCH  24  27
ENDBRANCH   1  24
TORSDOF 11
ENDMDL
MODEL 3
REMARK VINA RESULT:      -7.6      4.034      6.891
REMARK  Name = Lumefantrine
REMARK  13 active torsions:
REMARK  status: ('A' for Active; 'I' for Inactive)
REMARK    1  A    between atoms: C_1  and  C_2
REMARK    2  A    between atoms: C_2  and  C_3
REMARK    3  A    between atoms: C_3  and  C_4
REMARK    4  A    between atoms: C_4  and  N_5
REMARK    5  A    between atoms: N_5  and  C_6
REMARK    6  A    between atoms: N_5  and  C_10
REMARK    7  A    between atoms: C_6  and  C_7
REMARK    8  A    between atoms: C_7  and  C_8
REMARK    9  A    between atoms: C_8  and  C_9
REMARK   10  A    between atoms: C_10  and  C_11
REMARK   11  A    between atoms: C_11  and  O_12
REMARK   12  A    between atoms: C_11  and  C_13
REMARK   13  A    between atoms: C_21  and  C_22
REMARK                            x       y       z     vdW  Elec       q    Type
REMARK                         _______ _______ _______ _____ _____    ______ ____
ROOT
ATOM      1  C   UNL     1      -6.986   0.835 127.287  0.00  0.00    +0.000 A 
ATOM      2  C   UNL     1      -7.464   0.776 128.613  0.00  0.00    +0.000 A 
ATOM      3  C   UNL     1      -8.129   1.902 129.134  0.00  0.00    +0.000 A 
ATOM      4  C   UNL     1      -8.245   3.067 128.379  0.00  0.00    +0.000 A 
ATOM      5  C   UNL     1      -7.817   3.102 127.062  0.00  0.00    +0.000 A 
ATOM      6 CL   UNL     1      -8.068   4.514 126.114  0.00  0.00    +0.000 Cl
ATOM      7  C   UNL     1      -7.188   2.000 126.518  0.00  0.00    +0.000 A 
ATOM      8  C   UNL     1      -8.584   1.546 130.519  0.00  0.00    +0.000 C 
ATOM      9  C   UNL     1      -9.314   2.290 131.359  0.00  0.00    +0.000 C 
ATOM     10  C   UNL     1      -8.107   0.158 130.817  0.00  0.00    +0.000 A 
ATOM     11  C   UNL     1      -7.431  -0.277 129.658  0.00  0.00    +0.000 A 
ATOM     12  C   UNL     1      -6.860  -1.547 129.670  0.00  0.00    +0.000 A 
ATOM     13  C   UNL     1      -6.974  -2.391 130.771  0.00  0.00    +0.000 A 
ATOM     14  C   UNL     1      -7.654  -1.950 131.897  0.00  0.00    +0.000 A 
ATOM     15 CL   UNL     1      -7.769  -3.008 133.250  0.00  0.00    +0.000 Cl
ATOM     16  C   UNL     1      -8.224  -0.669 131.936  0.00  0.00    +0.000 A 
ENDROOT
BRANCH   9  17
ATOM     17  C   UNL     1      -9.844   3.638 131.059  0.00  0.00    +0.000 A 
ATOM     18  C   UNL     1      -9.235   4.778 131.609  0.00  0.00    +0.000 A 
ATOM     19  C   UNL     1      -9.926   5.996 131.640  0.00  0.00    +0.000 A 
ATOM     20  C   UNL     1     -11.145   6.113 130.979  0.00  0.00    +0.000 A 
ATOM     21 CL   UNL     1     -12.038   7.579 131.087  0.00  0.00    +0.000 Cl
ATOM     22  C   UNL     1     -11.668   5.031 130.272  0.00  0.00    +0.000 A 
ATOM     23  C   UNL     1     -11.040   3.781 130.349  0.00  0.00    +0.000 A 
ENDBRANCH   9  17
BRANCH   1  24
ATOM     24  C   UNL     1      -6.278  -0.285 126.586  0.00  0.00    +0.000 C 
BRANCH  24  25
ATOM     25  O   UNL     1      -4.888  -0.063 126.799  0.00  0.00    +0.000 OA
ATOM     26  H   UNL     1      -4.388  -0.289 126.003  0.00  0.00    +0.000 HD
ENDBRANCH  24  25
BRANCH  24  27
ATOM     27  C   UNL     1      -6.835  -0.438 125.135  0.00  0.00    +0.000 C 
BRANCH  27  28
ATOM     28  N   UNL     1      -7.262  -1.798 124.722  0.00  0.00    +0.000 NA
BRANCH  28  29
ATOM     29  C   UNL     1      -8.740  -1.875 124.880  0.00  0.00    +0.000 C 
BRANCH  29  30
ATOM     30  C   UNL     1      -9.162  -2.978 125.831  0.00  0.00    +0.000 C 
BRANCH  30  32
ATOM     31  C   UNL     1      -9.356  -4.037 128.025  0.00  0.00    +0.000 C 
ATOM     32  C   UNL     1      -8.539  -3.035 127.201  0.00  0.00    +0.000 C 
ENDBRANCH  30  32
ENDBRANCH  29  30
ENDBRANCH  28  29
BRANCH  28  33
ATOM     33  C   UNL     1      -6.789  -2.087 123.349  0.00  0.00    +0.000 C 
BRANCH  33  34
ATOM     34  C   UNL     1      -5.397  -2.651 123.198  0.00  0.00    +0.000 C 
BRANCH  34  35
ATOM     35  C   UNL     1      -4.969  -3.590 124.302  0.00  0.00    +0.000 C 
ATOM     36  C   UNL     1      -4.342  -4.789 123.599  0.00  0.00    +0.000 C 
ENDBRANCH  34  35
ENDBRANCH  33  34
ENDBRANCH  28  33
ENDBRANCH  27  28
ENDBRANCH  24  27
ENDBRANCH   1  24
TORSDOF 11
ENDMDL
MODEL 4
REMARK VINA RESULT:      -7.6      4.076      6.835
REMARK  Name = Lumefantrine
REMARK  13 active torsions:
REMARK  status: ('A' for Active; 'I' for Inactive)
REMARK    1  A    between atoms: C_1  and  C_2
REMARK    2  A    between atoms: C_2  and  C_3
REMARK    3  A    between atoms: C_3  and  C_4
REMARK    4  A    between atoms: C_4  and  N_5
REMARK    5  A    between atoms: N_5  and  C_6
REMARK    6  A    between atoms: N_5  and  C_10
REMARK    7  A    between atoms: C_6  and  C_7
REMARK    8  A    between atoms: C_7  and  C_8
REMARK    9  A    between atoms: C_8  and  C_9
REMARK   10  A    between atoms: C_10  and  C_11
REMARK   11  A    between atoms: C_11  and  O_12
REMARK   12  A    between atoms: C_11  and  C_13
REMARK   13  A    between atoms: C_21  and  C_22
REMARK                            x       y       z     vdW  Elec       q    Type
REMARK                         _______ _______ _______ _____ _____    ______ ____
ROOT
ATOM      1  C   UNL     1      -6.350   0.531 127.488  0.00  0.00    +0.000 A 
ATOM      2  C   UNL     1      -6.494  -0.061 128.760  0.00  0.00    +0.000 A 
ATOM      3  C   UNL     1      -7.090   0.697 129.785  0.00  0.00    +0.000 A 
ATOM      4  C   UNL     1      -7.462   2.021 129.562  0.00  0.00    +0.000 A 
ATOM      5  C   UNL     1      -7.363   2.580 128.299  0.00  0.00    +0.000 A 
ATOM      6 CL   UNL     1      -7.928   4.179 128.020  0.00  0.00    +0.000 Cl
ATOM      7  C   UNL     1      -6.808   1.847 127.268  0.00  0.00    +0.000 A 
ATOM      8  C   UNL     1      -7.178  -0.186 130.996  0.00  0.00    +0.000 C 
ATOM      9  C   UNL     1      -7.735   0.096 132.179  0.00  0.00    +0.000 C 
ATOM     10  C   UNL     1      -6.550  -1.502 130.650  0.00  0.00    +0.000 A 
ATOM     11  C   UNL     1      -6.141  -1.395 129.305  0.00  0.00    +0.000 A 
ATOM     12  C   UNL     1      -5.500  -2.487 128.726  0.00  0.00    +0.000 A 
ATOM     13  C   UNL     1      -5.290  -3.671 129.428  0.00  0.00    +0.000 A 
ATOM     14  C   UNL     1      -5.711  -3.761 130.748  0.00  0.00    +0.000 A 
ATOM     15 CL   UNL     1      -5.428  -5.230 131.598  0.00  0.00    +0.000 Cl
ATOM     16  C   UNL     1      -6.341  -2.676 131.376  0.00  0.00    +0.000 A 
ENDROOT
BRANCH   9  17
ATOM     17  C   UNL     1      -8.412   1.367 132.517  0.00  0.00    +0.000 A 
ATOM     18  C   UNL     1      -9.670   1.667 131.969  0.00  0.00    +0.000 A 
ATOM     19  C   UNL     1     -10.142   2.987 131.978  0.00  0.00    +0.000 A 
ATOM     20  C   UNL     1      -9.440   3.964 132.676  0.00  0.00    +0.000 A 
ATOM     21 CL   UNL     1      -9.967   5.601 132.619  0.00  0.00    +0.000 Cl
ATOM     22  C   UNL     1      -8.283   3.631 133.379  0.00  0.00    +0.000 A 
ATOM     23  C   UNL     1      -7.745   2.343 133.264  0.00  0.00    +0.000 A 
ENDBRANCH   9  17
BRANCH   1  24
ATOM     24  C   UNL     1      -5.755  -0.152 126.293  0.00  0.00    +0.000 C 
BRANCH  24  25
ATOM     25  O   UNL     1      -4.471   0.434 126.108  0.00  0.00    +0.000 OA
ATOM     26  H   UNL     1      -4.517   1.138 125.447  0.00  0.00    +0.000 HD
ENDBRANCH  24  25
BRANCH  24  27
ATOM     27  C   UNL     1      -6.787  -0.165 125.121  0.00  0.00    +0.000 C 
BRANCH  27  28
ATOM     28  N   UNL     1      -7.332  -1.486 124.723  0.00  0.00    +0.000 NA
BRANCH  28  29
ATOM     29  C   UNL     1      -8.806  -1.447 124.925  0.00  0.00    +0.000 C 
BRANCH  29  30
ATOM     30  C   UNL     1      -9.277  -2.465 125.945  0.00  0.00    +0.000 C 
BRANCH  30  32
ATOM     31  C   UNL     1      -8.893  -3.771 127.975  0.00  0.00    +0.000 C 
ATOM     32  C   UNL     1      -8.251  -3.302 126.664  0.00  0.00    +0.000 C 
ENDBRANCH  30  32
ENDBRANCH  29  30
ENDBRANCH  28  29
BRANCH  28  33
ATOM     33  C   UNL     1      -6.924  -1.812 123.338  0.00  0.00    +0.000 C 
BRANCH  33  34
ATOM     34  C   UNL     1      -5.616  -2.543 123.153  0.00  0.00    +0.000 C 
BRANCH  34  35
ATOM     35  C   UNL     1      -5.261  -3.502 124.265  0.00  0.00    +0.000 C 
ATOM     36  C   UNL     1      -4.361  -4.554 123.628  0.00  0.00    +0.000 C 
ENDBRANCH  34  35
ENDBRANCH  33  34
ENDBRANCH  28  33
ENDBRANCH  27  28
ENDBRANCH  24  27
ENDBRANCH   1  24
TORSDOF 11
ENDMDL
MODEL 5
REMARK VINA RESULT:      -7.5      3.528      8.301
REMARK  Name = Lumefantrine
REMARK  13 active torsions:
REMARK  status: ('A' for Active; 'I' for Inactive)
REMARK    1  A    between atoms: C_1  and  C_2
REMARK    2  A    between atoms: C_2  and  C_3
REMARK    3  A    between atoms: C_3  and  C_4
REMARK    4  A    between atoms: C_4  and  N_5
REMARK    5  A    between atoms: N_5  and  C_6
REMARK    6  A    between atoms: N_5  and  C_10
REMARK    7  A    between atoms: C_6  and  C_7
REMARK    8  A    between atoms: C_7  and  C_8
REMARK    9  A    between atoms: C_8  and  C_9
REMARK   10  A    between atoms: C_10  and  C_11
REMARK   11  A    between atoms: C_11  and  O_12
REMARK   12  A    between atoms: C_11  and  C_13
REMARK   13  A    between atoms: C_21  and  C_22
REMARK                            x       y       z     vdW  Elec       q    Type
REMARK                         _______ _______ _______ _____ _____    ______ ____
ROOT
ATOM      1  C   UNL     1      -8.036   2.367 128.529  0.00  0.00    +0.000 A 
ATOM      2  C   UNL     1      -7.958   1.010 128.907  0.00  0.00    +0.000 A 
ATOM      3  C   UNL     1      -8.015   0.031 127.897  0.00  0.00    +0.000 A 
ATOM      4  C   UNL     1      -8.214   0.395 126.568  0.00  0.00    +0.000 A 
ATOM      5  C   UNL     1      -8.240   1.730 126.197  0.00  0.00    +0.000 A 
ATOM      6 CL   UNL     1      -8.377   2.159 124.538  0.00  0.00    +0.000 Cl
ATOM      7  C   UNL     1      -8.157   2.711 127.165  0.00  0.00    +0.000 A 
ATOM      8  C   UNL     1      -7.845  -1.303 128.564  0.00  0.00    +0.000 C 
ATOM      9  C   UNL     1      -7.767  -2.507 127.984  0.00  0.00    +0.000 C 
ATOM     10  C   UNL     1      -7.736  -1.069 130.039  0.00  0.00    +0.000 A 
ATOM     11  C   UNL     1      -7.815   0.328 130.217  0.00  0.00    +0.000 A 
ATOM     12  C   UNL     1      -7.760   0.828 131.515  0.00  0.00    +0.000 A 
ATOM     13  C   UNL     1      -7.596  -0.008 132.616  0.00  0.00    +0.000 A 
ATOM     14  C   UNL     1      -7.507  -1.379 132.420  0.00  0.00    +0.000 A 
ATOM     15 CL   UNL     1      -7.318  -2.392 133.799  0.00  0.00    +0.000 Cl
ATOM     16  C   UNL     1      -7.581  -1.926 131.131  0.00  0.00    +0.000 A 
ENDROOT
BRANCH   9  17
ATOM     17  C   UNL     1      -7.812  -2.751 126.526  0.00  0.00    +0.000 A 
ATOM     18  C   UNL     1      -6.661  -2.568 125.741  0.00  0.00    +0.000 A 
ATOM     19  C   UNL     1      -6.774  -2.434 124.351  0.00  0.00    +0.000 A 
ATOM     20  C   UNL     1      -8.004  -2.647 123.737  0.00  0.00    +0.000 A 
ATOM     21 CL   UNL     1      -8.168  -2.398 122.042  0.00  0.00    +0.000 Cl
ATOM     22  C   UNL     1      -9.115  -3.011 124.496  0.00  0.00    +0.000 A 
ATOM     23  C   UNL     1      -9.030  -3.020 125.894  0.00  0.00    +0.000 A 
ENDBRANCH   9  17
BRANCH   1  24
ATOM     24  C   UNL     1      -7.970   3.522 129.481  0.00  0.00    +0.000 C 
BRANCH  24  25
ATOM     25  O   UNL     1      -9.232   4.175 129.390  0.00  0.00    +0.000 OA
ATOM     26  H   UNL     1      -9.946   3.548 129.568  0.00  0.00    +0.000 HD
ENDBRANCH  24  25
BRANCH  24  27
ATOM     27  C   UNL     1      -6.651   4.326 129.249  0.00  0.00    +0.000 C 
BRANCH  27  28
ATOM     28  N   UNL     1      -5.382   3.559 129.296  0.00  0.00    +0.000 NA
BRANCH  28  29
ATOM     29  C   UNL     1      -4.350   4.348 128.569  0.00  0.00    +0.000 C 
BRANCH  29  30
ATOM     30  C   UNL     1      -3.728   3.570 127.426  0.00  0.00    +0.000 C 
BRANCH  30  32
ATOM     31  C   UNL     1      -4.648   1.612 126.289  0.00  0.00    +0.000 C 
ATOM     32  C   UNL     1      -4.602   3.144 126.275  0.00  0.00    +0.000 C 
ENDBRANCH  30  32
ENDBRANCH  29  30
ENDBRANCH  28  29
BRANCH  28  33
ATOM     33  C   UNL     1      -5.023   3.249 130.698  0.00  0.00    +0.000 C 
BRANCH  33  34
ATOM     34  C   UNL     1      -4.228   1.991 130.950  0.00  0.00    +0.000 C 
BRANCH  34  35
ATOM     35  C   UNL     1      -4.356   0.933 129.879  0.00  0.00    +0.000 C 
ATOM     36  C   UNL     1      -4.142  -0.398 130.590  0.00  0.00    +0.000 C 
ENDBRANCH  34  35
ENDBRANCH  33  34
ENDBRANCH  28  33
ENDBRANCH  27  28
ENDBRANCH  24  27
ENDBRANCH   1  24
TORSDOF 11
ENDMDL
MODEL 6
REMARK VINA RESULT:      -7.5      3.675      6.824
REMARK  Name = Lumefantrine
REMARK  13 active torsions:
REMARK  status: ('A' for Active; 'I' for Inactive)
REMARK    1  A    between atoms: C_1  and  C_2
REMARK    2  A    between atoms: C_2  and  C_3
REMARK    3  A    between atoms: C_3  and  C_4
REMARK    4  A    between atoms: C_4  and  N_5
REMARK    5  A    between atoms: N_5  and  C_6
REMARK    6  A    between atoms: N_5  and  C_10
REMARK    7  A    between atoms: C_6  and  C_7
REMARK    8  A    between atoms: C_7  and  C_8
REMARK    9  A    between atoms: C_8  and  C_9
REMARK   10  A    between atoms: C_10  and  C_11
REMARK   11  A    between atoms: C_11  and  O_12
REMARK   12  A    between atoms: C_11  and  C_13
REMARK   13  A    between atoms: C_21  and  C_22
REMARK                            x       y       z     vdW  Elec       q    Type
REMARK                         _______ _______ _______ _____ _____    ______ ____
ROOT
ATOM      1  C   UNL     1      -5.195   0.987 127.591  0.00  0.00    +0.000 A 
ATOM      2  C   UNL     1      -5.930  -0.198 127.381  0.00  0.00    +0.000 A 
ATOM      3  C   UNL     1      -6.045  -1.110 128.447  0.00  0.00    +0.000 A 
ATOM      4  C   UNL     1      -5.386  -0.877 129.652  0.00  0.00    +0.000 A 
ATOM      5  C   UNL     1      -4.706   0.311 129.868  0.00  0.00    +0.000 A 
ATOM      6 CL   UNL     1      -3.993   0.627 131.400  0.00  0.00    +0.000 Cl
ATOM      7  C   UNL     1      -4.605   1.236 128.848  0.00  0.00    +0.000 A 
ATOM      8  C   UNL     1      -6.923  -2.233 127.977  0.00  0.00    +0.000 C 
ATOM      9  C   UNL     1      -7.356  -3.286 128.681  0.00  0.00    +0.000 C 
ATOM     10  C   UNL     1      -7.286  -1.965 126.549  0.00  0.00    +0.000 A 
ATOM     11  C   UNL     1      -6.670  -0.741 126.215  0.00  0.00    +0.000 A 
ATOM     12  C   UNL     1      -6.829  -0.259 124.919  0.00  0.00    +0.000 A 
ATOM     13  C   UNL     1      -7.600  -0.933 123.976  0.00  0.00    +0.000 A 
ATOM     14  C   UNL     1      -8.209  -2.130 124.327  0.00  0.00    +0.000 A 
ATOM     15 CL   UNL     1      -9.145  -2.951 123.139  0.00  0.00    +0.000 Cl
ATOM     16  C   UNL     1      -8.054  -2.663 125.615  0.00  0.00    +0.000 A 
ENDROOT
BRANCH   9  17
ATOM     17  C   UNL     1      -7.057  -3.534 130.108  0.00  0.00    +0.000 A 
ATOM     18  C   UNL     1      -7.741  -2.824 131.109  0.00  0.00    +0.000 A 
ATOM     19  C   UNL     1      -7.224  -2.774 132.410  0.00  0.00    +0.000 A 
ATOM     20  C   UNL     1      -6.128  -3.562 132.747  0.00  0.00    +0.000 A 
ATOM     21 CL   UNL     1      -5.436  -3.439 134.317  0.00  0.00    +0.000 Cl
ATOM     22  C   UNL     1      -5.557  -4.412 131.800  0.00  0.00    +0.000 A 
ATOM     23  C   UNL     1      -5.993  -4.366 130.470  0.00  0.00    +0.000 A 
ENDBRANCH   9  17
BRANCH   1  24
ATOM     24  C   UNL     1      -5.000   2.062 126.564  0.00  0.00    +0.000 C 
BRANCH  24  25
ATOM     25  O   UNL     1      -3.596   2.142 126.345  0.00  0.00    +0.000 OA
ATOM     26  H   UNL     1      -3.368   1.740 125.496  0.00  0.00    +0.000 HD
ENDBRANCH  24  25
BRANCH  24  27
ATOM     27  C   UNL     1      -5.805   3.337 126.972  0.00  0.00    +0.000 C 
BRANCH  27  28
ATOM     28  N   UNL     1      -7.284   3.250 126.890  0.00  0.00    +0.000 NA
BRANCH  28  29
ATOM     29  C   UNL     1      -7.842   3.895 128.110  0.00  0.00    +0.000 C 
BRANCH  29  30
ATOM     30  C   UNL     1      -7.863   2.956 129.301  0.00  0.00    +0.000 C 
BRANCH  30  32
ATOM     31  C   UNL     1      -8.426   0.910 130.514  0.00  0.00    +0.000 C 
ATOM     32  C   UNL     1      -8.505   1.602 129.148  0.00  0.00    +0.000 C 
ENDBRANCH  30  32
ENDBRANCH  29  30
ENDBRANCH  28  29
BRANCH  28  33
ATOM     33  C   UNL     1      -7.762   3.847 125.623  0.00  0.00    +0.000 C 
BRANCH  33  34
ATOM     34  C   UNL     1      -8.591   2.973 124.713  0.00  0.00    +0.000 C 
BRANCH  34  35
ATOM     35  C   UNL     1      -8.177   2.998 123.259  0.00  0.00    +0.000 C 
ATOM     36  C   UNL     1      -6.654   3.048 123.268  0.00  0.00    +0.000 C 
ENDBRANCH  34  35
ENDBRANCH  33  34
ENDBRANCH  28  33
ENDBRANCH  27  28
ENDBRANCH  24  27
ENDBRANCH   1  24
TORSDOF 11
ENDMDL
MODEL 7
REMARK VINA RESULT:      -7.5      4.356      9.135
REMARK  Name = Lumefantrine
REMARK  13 active torsions:
REMARK  status: ('A' for Active; 'I' for Inactive)
REMARK    1  A    between atoms: C_1  and  C_2
REMARK    2  A    between atoms: C_2  and  C_3
REMARK    3  A    between atoms: C_3  and  C_4
REMARK    4  A    between atoms: C_4  and  N_5
REMARK    5  A    between atoms: N_5  and  C_6
REMARK    6  A    between atoms: N_5  and  C_10
REMARK    7  A    between atoms: C_6  and  C_7
REMARK    8  A    between atoms: C_7  and  C_8
REMARK    9  A    between atoms: C_8  and  C_9
REMARK   10  A    between atoms: C_10  and  C_11
REMARK   11  A    between atoms: C_11  and  O_12
REMARK   12  A    between atoms: C_11  and  C_13
REMARK   13  A    between atoms: C_21  and  C_22
REMARK                            x       y       z     vdW  Elec       q    Type
REMARK                         _______ _______ _______ _____ _____    ______ ____
ROOT
ATOM      1  C   UNL     1      -8.095   1.764 129.392  0.00  0.00    +0.000 A 
ATOM      2  C   UNL     1      -7.969   0.369 129.555  0.00  0.00    +0.000 A 
ATOM      3  C   UNL     1      -8.003  -0.444 128.407  0.00  0.00    +0.000 A 
ATOM      4  C   UNL     1      -8.228   0.115 127.150  0.00  0.00    +0.000 A 
ATOM      5  C   UNL     1      -8.302   1.489 126.991  0.00  0.00    +0.000 A 
ATOM      6 CL   UNL     1      -8.471   2.163 125.419  0.00  0.00    +0.000 Cl
ATOM      7  C   UNL     1      -8.241   2.310 128.099  0.00  0.00    +0.000 A 
ATOM      8  C   UNL     1      -7.783  -1.858 128.858  0.00  0.00    +0.000 C 
ATOM      9  C   UNL     1      -7.671  -2.954 128.098  0.00  0.00    +0.000 C 
ATOM     10  C   UNL     1      -7.666  -1.851 130.351  0.00  0.00    +0.000 A 
ATOM     11  C   UNL     1      -7.789  -0.501 130.743  0.00  0.00    +0.000 A 
ATOM     12  C   UNL     1      -7.737  -0.206 132.103  0.00  0.00    +0.000 A 
ATOM     13  C   UNL     1      -7.534  -1.196 133.060  0.00  0.00    +0.000 A 
ATOM     14  C   UNL     1      -7.402  -2.517 132.654  0.00  0.00    +0.000 A 
ATOM     15 CL   UNL     1      -7.165  -3.723 133.859  0.00  0.00    +0.000 Cl
ATOM     16  C   UNL     1      -7.472  -2.860 131.296  0.00  0.00    +0.000 A 
ENDROOT
BRANCH   9  17
ATOM     17  C   UNL     1      -7.724  -2.972 126.620  0.00  0.00    +0.000 A 
ATOM     18  C   UNL     1      -6.600  -2.594 125.867  0.00  0.00    +0.000 A 
ATOM     19  C   UNL     1      -6.743  -2.254 124.516  0.00  0.00    +0.000 A 
ATOM     20  C   UNL     1      -7.966  -2.450 123.883  0.00  0.00    +0.000 A 
ATOM     21 CL   UNL     1      -8.173  -1.953 122.248  0.00  0.00    +0.000 Cl
ATOM     22  C   UNL     1      -9.040  -3.000 124.583  0.00  0.00    +0.000 A 
ATOM     23  C   UNL     1      -8.932  -3.220 125.961  0.00  0.00    +0.000 A 
ENDBRANCH   9  17
BRANCH   1  24
ATOM     24  C   UNL     1      -8.057   2.761 130.511  0.00  0.00    +0.000 C 
BRANCH  24  25
ATOM     25  O   UNL     1      -9.068   3.718 130.216  0.00  0.00    +0.000 OA
ATOM     26  H   UNL     1      -9.132   4.366 130.930  0.00  0.00    +0.000 HD
ENDBRANCH  24  25
BRANCH  24  27
ATOM     27  C   UNL     1      -6.586   3.224 130.759  0.00  0.00    +0.000 C 
BRANCH  27  28
ATOM     28  N   UNL     1      -5.853   2.562 131.867  0.00  0.00    +0.000 NA
BRANCH  28  29
ATOM     29  C   UNL     1      -4.483   2.248 131.377  0.00  0.00    +0.000 C 
BRANCH  29  30
ATOM     30  C   UNL     1      -4.223   0.756 131.307  0.00  0.00    +0.000 C 
BRANCH  30  32
ATOM     31  C   UNL     1      -4.047  -1.425 130.218  0.00  0.00    +0.000 C 
ATOM     32  C   UNL     1      -4.294   0.067 129.969  0.00  0.00    +0.000 C 
ENDBRANCH  30  32
ENDBRANCH  29  30
ENDBRANCH  28  29
BRANCH  28  33
ATOM     33  C   UNL     1      -5.878   3.414 133.077  0.00  0.00    +0.000 C 
BRANCH  33  34
ATOM     34  C   UNL     1      -6.873   3.060 134.156  0.00  0.00    +0.000 C 
BRANCH  34  35
ATOM     35  C   UNL     1      -7.872   4.146 134.480  0.00  0.00    +0.000 C 
ATOM     36  C   UNL     1      -9.177   3.712 133.823  0.00  0.00    +0.000 C 
ENDBRANCH  34  35
ENDBRANCH  33  34
ENDBRANCH  28  33
ENDBRANCH  27  28
ENDBRANCH  24  27
ENDBRANCH   1  24
TORSDOF 11
ENDMDL
MODEL 8
REMARK VINA RESULT:      -7.4      4.078      7.220
REMARK  Name = Lumefantrine
REMARK  13 active torsions:
REMARK  status: ('A' for Active; 'I' for Inactive)
REMARK    1  A    between atoms: C_1  and  C_2
REMARK    2  A    between atoms: C_2  and  C_3
REMARK    3  A    between atoms: C_3  and  C_4
REMARK    4  A    between atoms: C_4  and  N_5
REMARK    5  A    between atoms: N_5  and  C_6
REMARK    6  A    between atoms: N_5  and  C_10
REMARK    7  A    between atoms: C_6  and  C_7
REMARK    8  A    between atoms: C_7  and  C_8
REMARK    9  A    between atoms: C_8  and  C_9
REMARK   10  A    between atoms: C_10  and  C_11
REMARK   11  A    between atoms: C_11  and  O_12
REMARK   12  A    between atoms: C_11  and  C_13
REMARK   13  A    between atoms: C_21  and  C_22
REMARK                            x       y       z     vdW  Elec       q    Type
REMARK                         _______ _______ _______ _____ _____    ______ ____
ROOT
ATOM      1  C   UNL     1      -6.869   0.879 127.392  0.00  0.00    +0.000 A 
ATOM      2  C   UNL     1      -7.390   0.846 128.703  0.00  0.00    +0.000 A 
ATOM      3  C   UNL     1      -8.080   1.978 129.175  0.00  0.00    +0.000 A 
ATOM      4  C   UNL     1      -8.181   3.125 128.391  0.00  0.00    +0.000 A 
ATOM      5  C   UNL     1      -7.710   3.134 127.088  0.00  0.00    +0.000 A 
ATOM      6 CL   UNL     1      -7.940   4.522 126.100  0.00  0.00    +0.000 Cl
ATOM      7  C   UNL     1      -7.055   2.025 126.590  0.00  0.00    +0.000 A 
ATOM      8  C   UNL     1      -8.579   1.650 130.553  0.00  0.00    +0.000 C 
ATOM      9  C   UNL     1      -9.341   2.407 131.351  0.00  0.00    +0.000 C 
ATOM     10  C   UNL     1      -8.101   0.273 130.898  0.00  0.00    +0.000 A 
ATOM     11  C   UNL     1      -7.384  -0.182 129.772  0.00  0.00    +0.000 A 
ATOM     12  C   UNL     1      -6.805  -1.447 129.832  0.00  0.00    +0.000 A 
ATOM     13  C   UNL     1      -6.948  -2.267 130.947  0.00  0.00    +0.000 A 
ATOM     14  C   UNL     1      -7.668  -1.806 132.041  0.00  0.00    +0.000 A 
ATOM     15 CL   UNL     1      -7.819  -2.834 133.413  0.00  0.00    +0.000 Cl
ATOM     16  C   UNL     1      -8.248  -0.529 132.031  0.00  0.00    +0.000 A 
ENDROOT
BRANCH   9  17
ATOM     17  C   UNL     1      -9.871   3.743 131.003  0.00  0.00    +0.000 A 
ATOM     18  C   UNL     1      -9.282   4.901 131.537  0.00  0.00    +0.000 A 
ATOM     19  C   UNL     1      -9.980   6.115 131.520  0.00  0.00    +0.000 A 
ATOM     20  C   UNL     1     -11.183   6.207 130.827  0.00  0.00    +0.000 A 
ATOM     21 CL   UNL     1     -12.087   7.670 130.875  0.00  0.00    +0.000 Cl
ATOM     22  C   UNL     1     -11.683   5.104 130.137  0.00  0.00    +0.000 A 
ATOM     23  C   UNL     1     -11.051   3.861 130.261  0.00  0.00    +0.000 A 
ENDBRANCH   9  17
BRANCH   1  24
ATOM     24  C   UNL     1      -6.130  -0.251 126.741  0.00  0.00    +0.000 C 
BRANCH  24  25
ATOM     25  O   UNL     1      -4.790  -0.165 127.213  0.00  0.00    +0.000 OA
ATOM     26  H   UNL     1      -4.769   0.268 128.078  0.00  0.00    +0.000 HD
ENDBRANCH  24  25
BRANCH  24  27
ATOM     27  C   UNL     1      -6.422  -0.260 125.206  0.00  0.00    +0.000 C 
BRANCH  27  28
ATOM     28  N   UNL     1      -7.218  -1.397 124.683  0.00  0.00    +0.000 NA
BRANCH  28  29
ATOM     29  C   UNL     1      -6.337  -2.598 124.673  0.00  0.00    +0.000 C 
BRANCH  29  30
ATOM     30  C   UNL     1      -5.540  -2.718 123.389  0.00  0.00    +0.000 C 
BRANCH  30  32
ATOM     31  C   UNL     1      -4.423  -4.887 123.542  0.00  0.00    +0.000 C 
ATOM     32  C   UNL     1      -4.185  -3.376 123.433  0.00  0.00    +0.000 C 
ENDBRANCH  30  32
ENDBRANCH  29  30
ENDBRANCH  28  29
BRANCH  28  33
ATOM     33  C   UNL     1      -8.454  -1.566 125.479  0.00  0.00    +0.000 C 
BRANCH  33  34
ATOM     34  C   UNL     1      -8.741  -2.940 126.034  0.00  0.00    +0.000 C 
BRANCH  34  35
ATOM     35  C   UNL     1      -8.376  -3.127 127.488  0.00  0.00    +0.000 C 
ATOM     36  C   UNL     1      -9.317  -4.206 128.011  0.00  0.00    +0.000 C 
ENDBRANCH  34  35
ENDBRANCH  33  34
ENDBRANCH  28  33
ENDBRANCH  27  28
ENDBRANCH  24  27
ENDBRANCH   1  24
TORSDOF 11
ENDMDL
MODEL 9
REMARK VINA RESULT:      -7.4      3.787      7.194
REMARK  Name = Lumefantrine
REMARK  13 active torsions:
REMARK  status: ('A' for Active; 'I' for Inactive)
REMARK    1  A    between atoms: C_1  and  C_2
REMARK    2  A    between atoms: C_2  and  C_3
REMARK    3  A    between atoms: C_3  and  C_4
REMARK    4  A    between atoms: C_4  and  N_5
REMARK    5  A    between atoms: N_5  and  C_6
REMARK    6  A    between atoms: N_5  and  C_10
REMARK    7  A    between atoms: C_6  and  C_7
REMARK    8  A    between atoms: C_7  and  C_8
REMARK    9  A    between atoms: C_8  and  C_9
REMARK   10  A    between atoms: C_10  and  C_11
REMARK   11  A    between atoms: C_11  and  O_12
REMARK   12  A    between atoms: C_11  and  C_13
REMARK   13  A    between atoms: C_21  and  C_22
REMARK                            x       y       z     vdW  Elec       q    Type
REMARK                         _______ _______ _______ _____ _____    ______ ____
ROOT
ATOM      1  C   UNL     1      -4.674   1.354 128.379  0.00  0.00    +0.000 A 
ATOM      2  C   UNL     1      -5.427   0.249 127.928  0.00  0.00    +0.000 A 
ATOM      3  C   UNL     1      -5.653  -0.814 128.822  0.00  0.00    +0.000 A 
ATOM      4  C   UNL     1      -5.087  -0.803 130.094  0.00  0.00    +0.000 A 
ATOM      5  C   UNL     1      -4.390   0.305 130.548  0.00  0.00    +0.000 A 
ATOM      6 CL   UNL     1      -3.792   0.344 132.159  0.00  0.00    +0.000 Cl
ATOM      7  C   UNL     1      -4.179   1.375 129.700  0.00  0.00    +0.000 A 
ATOM      8  C   UNL     1      -6.525  -1.810 128.113  0.00  0.00    +0.000 C 
ATOM      9  C   UNL     1      -7.045  -2.941 128.604  0.00  0.00    +0.000 C 
ATOM     10  C   UNL     1      -6.764  -1.305 126.724  0.00  0.00    +0.000 A 
ATOM     11  C   UNL     1      -6.086  -0.071 126.638  0.00  0.00    +0.000 A 
ATOM     12  C   UNL     1      -6.127   0.617 125.428  0.00  0.00    +0.000 A 
ATOM     13  C   UNL     1      -6.840   0.134 124.334  0.00  0.00    +0.000 A 
ATOM     14  C   UNL     1      -7.511  -1.077 124.442  0.00  0.00    +0.000 A 
ATOM     15 CL   UNL     1      -8.374  -1.658 123.071  0.00  0.00    +0.000 Cl
ATOM     16  C   UNL     1      -7.477  -1.812 125.636  0.00  0.00    +0.000 A 
ENDROOT
BRANCH   9  17
ATOM     17  C   UNL     1      -6.869  -3.425 129.991  0.00  0.00    +0.000 A 
ATOM     18  C   UNL     1      -7.617  -2.862 131.038  0.00  0.00    +0.000 A 
ATOM     19  C   UNL     1      -7.207  -3.038 132.366  0.00  0.00    +0.000 A 
ATOM     20  C   UNL     1      -6.159  -3.905 132.654  0.00  0.00    +0.000 A 
ATOM     21 CL   UNL     1      -5.596  -4.059 134.272  0.00  0.00    +0.000 Cl
ATOM     22  C   UNL     1      -5.530  -4.611 131.629  0.00  0.00    +0.000 A 
ATOM     23  C   UNL     1      -5.855  -4.339 130.295  0.00  0.00    +0.000 A 
ENDBRANCH   9  17
BRANCH   1  24
ATOM     24  C   UNL     1      -4.365   2.568 127.556  0.00  0.00    +0.000 C 
BRANCH  24  25
ATOM     25  O   UNL     1      -2.950   2.587 127.404  0.00  0.00    +0.000 OA
ATOM     26  H   UNL     1      -2.635   1.722 127.106  0.00  0.00    +0.000 HD
ENDBRANCH  24  25
BRANCH  24  27
ATOM     27  C   UNL     1      -5.109   3.810 128.143  0.00  0.00    +0.000 C 
BRANCH  27  28
ATOM     28  N   UNL     1      -6.083   4.489 127.255  0.00  0.00    +0.000 NA
BRANCH  28  29
ATOM     29  C   UNL     1      -5.420   4.705 125.939  0.00  0.00    +0.000 C 
BRANCH  29  30
ATOM     30  C   UNL     1      -6.271   4.229 124.779  0.00  0.00    +0.000 C 
BRANCH  30  32
ATOM     31  C   UNL     1      -6.619   3.397 122.507  0.00  0.00    +0.000 C 
ATOM     32  C   UNL     1      -5.671   4.209 123.397  0.00  0.00    +0.000 C 
ENDBRANCH  30  32
ENDBRANCH  29  30
ENDBRANCH  28  29
BRANCH  28  33
ATOM     33  C   UNL     1      -7.336   3.705 127.174  0.00  0.00    +0.000 C 
BRANCH  33  34
ATOM     34  C   UNL     1      -7.961   3.259 128.474  0.00  0.00    +0.000 C 
BRANCH  34  35
ATOM     35  C   UNL     1      -8.605   1.893 128.433  0.00  0.00    +0.000 C 
ATOM     36  C   UNL     1      -8.374   1.290 129.814  0.00  0.00    +0.000 C 
ENDBRANCH  34  35
ENDBRANCH  33  34
ENDBRANCH  28  33
ENDBRANCH  27  28
ENDBRANCH  24  27
ENDBRANCH   1  24
TORSDOF 11
ENDMDL
