MODEL 1
REMARK VINA RESULT:      -7.8      0.000      0.000
REMARK  Name = Lumiracoxib
REMARK  6 active torsions:
REMARK  status: ('A' for Active; 'I' for Inactive)
REMARK    1  A    between atoms: C_1  and  C_2
REMARK    2  A    between atoms: C_5  and  N_6
REMARK    3  A    between atoms: N_6  and  C_7
REMARK    4  A    between atoms: C_15  and  C_16
REMARK    5  A    between atoms: C_16  and  C_17
REMARK    6  A    between atoms: C_17  and  O_18
REMARK                            x       y       z     vdW  Elec       q    Type
REMARK                         _______ _______ _______ _____ _____    ______ ____
ROOT
ATOM      1  C   UNL     1     -13.581  11.213 130.098  0.00  0.00    +0.000 C 
ATOM      2  C   UNL     1     -13.161   9.775 130.057  0.00  0.00    +0.000 A 
ATOM      3  C   UNL     1     -13.045   8.912 131.127  0.00  0.00    +0.000 A 
ATOM      4  C   UNL     1     -12.598   7.593 130.900  0.00  0.00    +0.000 A 
ATOM      5  C   UNL     1     -12.303   7.097 129.596  0.00  0.00    +0.000 A 
ATOM      6  C   UNL     1     -12.482   7.990 128.498  0.00  0.00    +0.000 A 
ATOM      7  C   UNL     1     -12.847   9.296 128.798  0.00  0.00    +0.000 A 
ENDROOT
BRANCH   5   8
ATOM      8  N   UNL     1     -11.739   5.783 129.512  0.00  0.00    +0.000 N 
ATOM      9  H   UNL     1     -12.010   5.260 128.682  0.00  0.00    +0.000 HD
BRANCH   8  10
ATOM     10  C   UNL     1     -10.576   5.263 130.141  0.00  0.00    +0.000 A 
ATOM     11  C   UNL     1      -9.457   6.058 130.455  0.00  0.00    +0.000 A 
ATOM     12 CL   UNL     1      -9.302   7.668 129.846  0.00  0.00    +0.000 Cl
ATOM     13  C   UNL     1      -8.465   5.592 131.337  0.00  0.00    +0.000 A 
ATOM     14  C   UNL     1      -8.587   4.341 131.940  0.00  0.00    +0.000 A 
ATOM     15  C   UNL     1      -9.652   3.519 131.594  0.00  0.00    +0.000 A 
ATOM     16  C   UNL     1     -10.585   3.953 130.652  0.00  0.00    +0.000 A 
ATOM     17  F   UNL     1     -11.629   3.150 130.384  0.00  0.00    +0.000 F 
ENDBRANCH   8  10
ENDBRANCH   5   8
BRANCH   6  18
ATOM     18  C   UNL     1     -12.249   7.611 127.053  0.00  0.00    +0.000 C 
BRANCH  18  19
ATOM     19  C   UNL     1     -10.985   7.433 126.248  0.00  0.00    +0.000 C 
ATOM     20  O   UNL     1     -10.128   6.666 126.666  0.00  0.00    +0.000 OA
BRANCH  19  21
ATOM     21  O   UNL     1     -10.709   8.116 125.133  0.00  0.00    +0.000 OA
ATOM     22  H   UNL     1     -11.156   7.960 124.301  0.00  0.00    +0.000 HD
ENDBRANCH  19  21
ENDBRANCH  18  19
ENDBRANCH   6  18
TORSDOF 5
ENDMDL
MODEL 2
REMARK VINA RESULT:      -7.3      9.186     11.770
REMARK  Name = Lumiracoxib
REMARK  6 active torsions:
REMARK  status: ('A' for Active; 'I' for Inactive)
REMARK    1  A    between atoms: C_1  and  C_2
REMARK    2  A    between atoms: C_5  and  N_6
REMARK    3  A    between atoms: N_6  and  C_7
REMARK    4  A    between atoms: C_15  and  C_16
REMARK    5  A    between atoms: C_16  and  C_17
REMARK    6  A    between atoms: C_17  and  O_18
REMARK                            x       y       z     vdW  Elec       q    Type
REMARK                         _______ _______ _______ _____ _____    ______ ____
ROOT
ATOM      1  C   UNL     1      -3.939  -4.306 123.489  0.00  0.00    +0.000 C 
ATOM      2  C   UNL     1      -5.106  -3.367 123.513  0.00  0.00    +0.000 A 
ATOM      3  C   UNL     1      -5.500  -2.503 122.511  0.00  0.00    +0.000 A 
ATOM      4  C   UNL     1      -6.612  -1.662 122.727  0.00  0.00    +0.000 A 
ATOM      5  C   UNL     1      -7.378  -1.698 123.929  0.00  0.00    +0.000 A 
ATOM      6  C   UNL     1      -6.987  -2.637 124.930  0.00  0.00    +0.000 A 
ATOM      7  C   UNL     1      -5.838  -3.378 124.687  0.00  0.00    +0.000 A 
ENDROOT
BRANCH   5   8
ATOM      8  N   UNL     1      -8.404  -0.709 124.077  0.00  0.00    +0.000 N 
ATOM      9  H   UNL     1      -9.157  -0.972 124.707  0.00  0.00    +0.000 HD
BRANCH   8  10
ATOM     10  C   UNL     1      -8.341   0.692 123.841  0.00  0.00    +0.000 A 
ATOM     11  C   UNL     1      -7.301   1.502 124.334  0.00  0.00    +0.000 A 
ATOM     12 CL   UNL     1      -6.171   0.904 125.498  0.00  0.00    +0.000 Cl
ATOM     13  C   UNL     1      -7.103   2.803 123.838  0.00  0.00    +0.000 A 
ATOM     14  C   UNL     1      -7.921   3.305 122.825  0.00  0.00    +0.000 A 
ATOM     15  C   UNL     1      -8.989   2.542 122.371  0.00  0.00    +0.000 A 
ATOM     16  C   UNL     1      -9.231   1.287 122.931  0.00  0.00    +0.000 A 
ATOM     17  F   UNL     1     -10.242   0.559 122.427  0.00  0.00    +0.000 F 
ENDBRANCH   8  10
ENDBRANCH   5   8
BRANCH   6  18
ATOM     18  C   UNL     1      -7.714  -2.827 126.242  0.00  0.00    +0.000 C 
BRANCH  18  19
ATOM     19  C   UNL     1      -9.135  -3.225 126.560  0.00  0.00    +0.000 C 
ATOM     20  O   UNL     1      -9.344  -3.901 127.558  0.00  0.00    +0.000 OA
BRANCH  19  21
ATOM     21  O   UNL     1     -10.180  -2.944 125.776  0.00  0.00    +0.000 OA
ATOM     22  H   UNL     1     -10.691  -3.617 125.325  0.00  0.00    +0.000 HD
ENDBRANCH  19  21
ENDBRANCH  18  19
ENDBRANCH   6  18
TORSDOF 5
ENDMDL
MODEL 3
REMARK VINA RESULT:      -7.3      7.929     10.487
REMARK  Name = Lumiracoxib
REMARK  6 active torsions:
REMARK  status: ('A' for Active; 'I' for Inactive)
REMARK    1  A    between atoms: C_1  and  C_2
REMARK    2  A    between atoms: C_5  and  N_6
REMARK    3  A    between atoms: N_6  and  C_7
REMARK    4  A    between atoms: C_15  and  C_16
REMARK    5  A    between atoms: C_16  and  C_17
REMARK    6  A    between atoms: C_17  and  O_18
REMARK                            x       y       z     vdW  Elec       q    Type
REMARK                         _______ _______ _______ _____ _____    ______ ____
ROOT
ATOM      1  C   UNL     1      -6.571  -1.360 125.495  0.00  0.00    +0.000 C 
ATOM      2  C   UNL     1      -6.860  -0.093 124.749  0.00  0.00    +0.000 A 
ATOM      3  C   UNL     1      -7.711   0.064 123.674  0.00  0.00    +0.000 A 
ATOM      4  C   UNL     1      -7.831   1.335 123.073  0.00  0.00    +0.000 A 
ATOM      5  C   UNL     1      -7.140   2.483 123.562  0.00  0.00    +0.000 A 
ATOM      6  C   UNL     1      -6.309   2.310 124.708  0.00  0.00    +0.000 A 
ATOM      7  C   UNL     1      -6.173   1.019 125.202  0.00  0.00    +0.000 A 
ENDROOT
BRANCH   5   8
ATOM      8  N   UNL     1      -7.248   3.684 122.790  0.00  0.00    +0.000 N 
ATOM      9  H   UNL     1      -7.453   4.519 123.335  0.00  0.00    +0.000 HD
BRANCH   8  10
ATOM     10  C   UNL     1      -6.718   3.977 121.504  0.00  0.00    +0.000 A 
ATOM     11  C   UNL     1      -7.518   4.060 120.349  0.00  0.00    +0.000 A 
ATOM     12 CL   UNL     1      -9.166   3.537 120.360  0.00  0.00    +0.000 Cl
ATOM     13  C   UNL     1      -7.023   4.641 119.168  0.00  0.00    +0.000 A 
ATOM     14  C   UNL     1      -5.734   5.173 119.129  0.00  0.00    +0.000 A 
ATOM     15  C   UNL     1      -4.910   5.045 120.240  0.00  0.00    +0.000 A 
ATOM     16  C   UNL     1      -5.379   4.388 121.378  0.00  0.00    +0.000 A 
ATOM     17  F   UNL     1      -4.570   4.331 122.449  0.00  0.00    +0.000 F 
ENDBRANCH   8  10
ENDBRANCH   5   8
BRANCH   6  18
ATOM     18  C   UNL     1      -5.539   3.430 125.371  0.00  0.00    +0.000 C 
BRANCH  18  19
ATOM     19  C   UNL     1      -5.935   4.833 125.762  0.00  0.00    +0.000 C 
ATOM     20  O   UNL     1      -5.966   5.123 126.950  0.00  0.00    +0.000 OA
BRANCH  19  21
ATOM     21  O   UNL     1      -6.324   5.767 124.890  0.00  0.00    +0.000 OA
ATOM     22  H   UNL     1      -6.619   5.562 124.002  0.00  0.00    +0.000 HD
ENDBRANCH  19  21
ENDBRANCH  18  19
ENDBRANCH   6  18
TORSDOF 5
ENDMDL
MODEL 4
REMARK VINA RESULT:      -7.0      3.476      4.744
REMARK  Name = Lumiracoxib
REMARK  6 active torsions:
REMARK  status: ('A' for Active; 'I' for Inactive)
REMARK    1  A    between atoms: C_1  and  C_2
REMARK    2  A    between atoms: C_5  and  N_6
REMARK    3  A    between atoms: N_6  and  C_7
REMARK    4  A    between atoms: C_15  and  C_16
REMARK    5  A    between atoms: C_16  and  C_17
REMARK    6  A    between atoms: C_17  and  O_18
REMARK                            x       y       z     vdW  Elec       q    Type
REMARK                         _______ _______ _______ _____ _____    ______ ____
ROOT
ATOM      1  C   UNL     1     -10.792   8.397 128.276  0.00  0.00    +0.000 C 
ATOM      2  C   UNL     1     -10.707   7.524 129.491  0.00  0.00    +0.000 A 
ATOM      3  C   UNL     1     -11.743   6.856 130.109  0.00  0.00    +0.000 A 
ATOM      4  C   UNL     1     -11.479   6.103 131.273  0.00  0.00    +0.000 A 
ATOM      5  C   UNL     1     -10.167   5.966 131.815  0.00  0.00    +0.000 A 
ATOM      6  C   UNL     1      -9.101   6.619 131.128  0.00  0.00    +0.000 A 
ATOM      7  C   UNL     1      -9.440   7.408 130.036  0.00  0.00    +0.000 A 
ENDROOT
BRANCH   5   8
ATOM      8  N   UNL     1     -10.049   5.280 133.067  0.00  0.00    +0.000 N 
ATOM      9  H   UNL     1     -10.874   5.339 133.660  0.00  0.00    +0.000 HD
BRANCH   8  10
ATOM     10  C   UNL     1      -9.178   4.217 133.431  0.00  0.00    +0.000 A 
ATOM     11  C   UNL     1      -9.118   3.003 132.720  0.00  0.00    +0.000 A 
ATOM     12 CL   UNL     1     -10.298   2.606 131.520  0.00  0.00    +0.000 Cl
ATOM     13  C   UNL     1      -8.051   2.107 132.912  0.00  0.00    +0.000 A 
ATOM     14  C   UNL     1      -7.015   2.420 133.793  0.00  0.00    +0.000 A 
ATOM     15  C   UNL     1      -7.090   3.584 134.547  0.00  0.00    +0.000 A 
ATOM     16  C   UNL     1      -8.196   4.424 134.415  0.00  0.00    +0.000 A 
ATOM     17  F   UNL     1      -8.206   5.567 135.123  0.00  0.00    +0.000 F 
ENDBRANCH   8  10
ENDBRANCH   5   8
BRANCH   6  18
ATOM     18  C   UNL     1      -7.650   6.543 131.550  0.00  0.00    +0.000 C 
BRANCH  18  19
ATOM     19  C   UNL     1      -6.456   5.855 130.935  0.00  0.00    +0.000 C 
ATOM     20  O   UNL     1      -5.734   6.496 130.183  0.00  0.00    +0.000 OA
BRANCH  19  21
ATOM     21  O   UNL     1      -6.172   4.561 131.105  0.00  0.00    +0.000 OA
ATOM     22  H   UNL     1      -6.608   3.862 130.617  0.00  0.00    +0.000 HD
ENDBRANCH  19  21
ENDBRANCH  18  19
ENDBRANCH   6  18
TORSDOF 5
ENDMDL
MODEL 5
REMARK VINA RESULT:      -6.9      9.354     11.916
REMARK  Name = Lumiracoxib
REMARK  6 active torsions:
REMARK  status: ('A' for Active; 'I' for Inactive)
REMARK    1  A    between atoms: C_1  and  C_2
REMARK    2  A    between atoms: C_5  and  N_6
REMARK    3  A    between atoms: N_6  and  C_7
REMARK    4  A    between atoms: C_15  and  C_16
REMARK    5  A    between atoms: C_16  and  C_17
REMARK    6  A    between atoms: C_17  and  O_18
REMARK                            x       y       z     vdW  Elec       q    Type
REMARK                         _______ _______ _______ _____ _____    ______ ____
ROOT
ATOM      1  C   UNL     1      -4.187  -4.932 123.498  0.00  0.00    +0.000 C 
ATOM      2  C   UNL     1      -5.217  -3.845 123.557  0.00  0.00    +0.000 A 
ATOM      3  C   UNL     1      -5.232  -2.673 122.829  0.00  0.00    +0.000 A 
ATOM      4  C   UNL     1      -6.271  -1.744 123.044  0.00  0.00    +0.000 A 
ATOM      5  C   UNL     1      -7.341  -1.988 123.956  0.00  0.00    +0.000 A 
ATOM      6  C   UNL     1      -7.336  -3.230 124.657  0.00  0.00    +0.000 A 
ATOM      7  C   UNL     1      -6.243  -4.064 124.459  0.00  0.00    +0.000 A 
ENDROOT
BRANCH   5   8
ATOM      8  N   UNL     1      -8.264  -0.915 124.176  0.00  0.00    +0.000 N 
ATOM      9  H   UNL     1      -9.007  -1.126 124.839  0.00  0.00    +0.000 HD
BRANCH   8  10
ATOM     10  C   UNL     1      -8.088   0.480 123.967  0.00  0.00    +0.000 A 
ATOM     11  C   UNL     1      -8.990   1.260 123.220  0.00  0.00    +0.000 A 
ATOM     12 CL   UNL     1     -10.233   0.528 122.266  0.00  0.00    +0.000 Cl
ATOM     13  C   UNL     1      -8.956   2.664 123.285  0.00  0.00    +0.000 A 
ATOM     14  C   UNL     1      -8.042   3.311 124.116  0.00  0.00    +0.000 A 
ATOM     15  C   UNL     1      -7.104   2.559 124.812  0.00  0.00    +0.000 A 
ATOM     16  C   UNL     1      -7.088   1.171 124.673  0.00  0.00    +0.000 A 
ATOM     17  F   UNL     1      -6.199   0.476 125.404  0.00  0.00    +0.000 F 
ENDBRANCH   8  10
ENDBRANCH   5   8
BRANCH   6  18
ATOM     18  C   UNL     1      -8.413  -3.657 125.628  0.00  0.00    +0.000 C 
BRANCH  18  19
ATOM     19  C   UNL     1      -8.635  -3.347 127.089  0.00  0.00    +0.000 C 
ATOM     20  O   UNL     1      -8.206  -2.292 127.535  0.00  0.00    +0.000 OA
BRANCH  19  21
ATOM     21  O   UNL     1      -9.216  -4.188 127.949  0.00  0.00    +0.000 OA
ATOM     22  H   UNL     1      -8.893  -4.330 128.839  0.00  0.00    +0.000 HD
ENDBRANCH  19  21
ENDBRANCH  18  19
ENDBRANCH   6  18
TORSDOF 5
ENDMDL
MODEL 6
REMARK VINA RESULT:      -6.8      7.888      9.764
REMARK  Name = Lumiracoxib
REMARK  6 active torsions:
REMARK  status: ('A' for Active; 'I' for Inactive)
REMARK    1  A    between atoms: C_1  and  C_2
REMARK    2  A    between atoms: C_5  and  N_6
REMARK    3  A    between atoms: N_6  and  C_7
REMARK    4  A    between atoms: C_15  and  C_16
REMARK    5  A    between atoms: C_16  and  C_17
REMARK    6  A    between atoms: C_17  and  O_18
REMARK                            x       y       z     vdW  Elec       q    Type
REMARK                         _______ _______ _______ _____ _____    ______ ____
ROOT
ATOM      1  C   UNL     1      -4.284   5.306 121.039  0.00  0.00    +0.000 C 
ATOM      2  C   UNL     1      -5.164   4.276 121.678  0.00  0.00    +0.000 A 
ATOM      3  C   UNL     1      -5.658   3.127 121.096  0.00  0.00    +0.000 A 
ATOM      4  C   UNL     1      -6.507   2.286 121.846  0.00  0.00    +0.000 A 
ATOM      5  C   UNL     1      -6.842   2.553 123.207  0.00  0.00    +0.000 A 
ATOM      6  C   UNL     1      -6.276   3.717 123.807  0.00  0.00    +0.000 A 
ATOM      7  C   UNL     1      -5.514   4.542 122.990  0.00  0.00    +0.000 A 
ENDROOT
BRANCH   5   8
ATOM      8  N   UNL     1      -7.811   1.693 123.818  0.00  0.00    +0.000 N 
ATOM      9  H   UNL     1      -8.711   2.132 123.998  0.00  0.00    +0.000 HD
BRANCH   8  10
ATOM     10  C   UNL     1      -7.874   0.273 123.825  0.00  0.00    +0.000 A 
ATOM     11  C   UNL     1      -8.846  -0.451 123.110  0.00  0.00    +0.000 A 
ATOM     12 CL   UNL     1     -10.206   0.339 122.393  0.00  0.00    +0.000 Cl
ATOM     13  C   UNL     1      -8.700  -1.833 122.891  0.00  0.00    +0.000 A 
ATOM     14  C   UNL     1      -7.571  -2.507 123.358  0.00  0.00    +0.000 A 
ATOM     15  C   UNL     1      -6.634  -1.821 124.119  0.00  0.00    +0.000 A 
ATOM     16  C   UNL     1      -6.831  -0.469 124.406  0.00  0.00    +0.000 A 
ATOM     17  F   UNL     1      -5.874   0.171 125.100  0.00  0.00    +0.000 F 
ENDBRANCH   8  10
ENDBRANCH   5   8
BRANCH   6  18
ATOM     18  C   UNL     1      -6.501   4.121 125.247  0.00  0.00    +0.000 C 
BRANCH  18  19
ATOM     19  C   UNL     1      -7.754   4.464 126.014  0.00  0.00    +0.000 C 
ATOM     20  O   UNL     1      -7.646   4.846 127.171  0.00  0.00    +0.000 OA
BRANCH  19  21
ATOM     21  O   UNL     1      -8.990   4.312 125.529  0.00  0.00    +0.000 OA
ATOM     22  H   UNL     1      -9.441   3.467 125.506  0.00  0.00    +0.000 HD
ENDBRANCH  19  21
ENDBRANCH  18  19
ENDBRANCH   6  18
TORSDOF 5
ENDMDL
MODEL 7
REMARK VINA RESULT:      -6.7      2.879      3.821
REMARK  Name = Lumiracoxib
REMARK  6 active torsions:
REMARK  status: ('A' for Active; 'I' for Inactive)
REMARK    1  A    between atoms: C_1  and  C_2
REMARK    2  A    between atoms: C_5  and  N_6
REMARK    3  A    between atoms: N_6  and  C_7
REMARK    4  A    between atoms: C_15  and  C_16
REMARK    5  A    between atoms: C_16  and  C_17
REMARK    6  A    between atoms: C_17  and  O_18
REMARK                            x       y       z     vdW  Elec       q    Type
REMARK                         _______ _______ _______ _____ _____    ______ ____
ROOT
ATOM      1  C   UNL     1     -12.424   9.099 128.863  0.00  0.00    +0.000 C 
ATOM      2  C   UNL     1     -11.975   8.065 129.849  0.00  0.00    +0.000 A 
ATOM      3  C   UNL     1     -12.744   7.444 130.812  0.00  0.00    +0.000 A 
ATOM      4  C   UNL     1     -12.138   6.514 131.682  0.00  0.00    +0.000 A 
ATOM      5  C   UNL     1     -10.762   6.151 131.577  0.00  0.00    +0.000 A 
ATOM      6  C   UNL     1      -9.998   6.763 130.540  0.00  0.00    +0.000 A 
ATOM      7  C   UNL     1     -10.635   7.728 129.770  0.00  0.00    +0.000 A 
ENDROOT
BRANCH   5   8
ATOM      8  N   UNL     1     -10.237   5.292 132.596  0.00  0.00    +0.000 N 
ATOM      9  H   UNL     1     -10.697   5.378 133.500  0.00  0.00    +0.000 HD
BRANCH   8  10
ATOM     10  C   UNL     1      -9.503   4.082 132.461  0.00  0.00    +0.000 A 
ATOM     11  C   UNL     1      -8.582   3.637 133.427  0.00  0.00    +0.000 A 
ATOM     12 CL   UNL     1      -8.068   4.665 134.719  0.00  0.00    +0.000 Cl
ATOM     13  C   UNL     1      -8.107   2.312 133.416  0.00  0.00    +0.000 A 
ATOM     14  C   UNL     1      -8.564   1.407 132.458  0.00  0.00    +0.000 A 
ATOM     15  C   UNL     1      -9.425   1.846 131.461  0.00  0.00    +0.000 A 
ATOM     16  C   UNL     1      -9.822   3.184 131.428  0.00  0.00    +0.000 A 
ATOM     17  F   UNL     1     -10.697   3.557 130.478  0.00  0.00    +0.000 F 
ENDBRANCH   8  10
ENDBRANCH   5   8
BRANCH   6  18
ATOM     18  C   UNL     1      -8.541   6.461 130.271  0.00  0.00    +0.000 C 
BRANCH  18  19
ATOM     19  C   UNL     1      -7.278   6.856 130.997  0.00  0.00    +0.000 C 
ATOM     20  O   UNL     1      -7.150   6.530 132.170  0.00  0.00    +0.000 OA
BRANCH  19  21
ATOM     21  O   UNL     1      -6.313   7.605 130.458  0.00  0.00    +0.000 OA
ATOM     22  H   UNL     1      -5.751   7.299 129.745  0.00  0.00    +0.000 HD
ENDBRANCH  19  21
ENDBRANCH  18  19
ENDBRANCH   6  18
TORSDOF 5
ENDMDL
MODEL 8
REMARK VINA RESULT:      -6.6      9.090     11.517
REMARK  Name = Lumiracoxib
REMARK  6 active torsions:
REMARK  status: ('A' for Active; 'I' for Inactive)
REMARK    1  A    between atoms: C_1  and  C_2
REMARK    2  A    between atoms: C_5  and  N_6
REMARK    3  A    between atoms: N_6  and  C_7
REMARK    4  A    between atoms: C_15  and  C_16
REMARK    5  A    between atoms: C_16  and  C_17
REMARK    6  A    between atoms: C_17  and  O_18
REMARK                            x       y       z     vdW  Elec       q    Type
REMARK                         _______ _______ _______ _____ _____    ______ ____
ROOT
ATOM      1  C   UNL     1      -4.194  -4.422 123.551  0.00  0.00    +0.000 C 
ATOM      2  C   UNL     1      -5.154  -3.282 123.701  0.00  0.00    +0.000 A 
ATOM      3  C   UNL     1      -5.653  -2.477 122.697  0.00  0.00    +0.000 A 
ATOM      4  C   UNL     1      -6.527  -1.421 123.033  0.00  0.00    +0.000 A 
ATOM      5  C   UNL     1      -6.955  -1.178 124.371  0.00  0.00    +0.000 A 
ATOM      6  C   UNL     1      -6.472  -2.056 125.386  0.00  0.00    +0.000 A 
ATOM      7  C   UNL     1      -5.554  -3.024 125.000  0.00  0.00    +0.000 A 
ENDROOT
BRANCH   5   8
ATOM      8  N   UNL     1      -7.742  -0.002 124.599  0.00  0.00    +0.000 N 
ATOM      9  H   UNL     1      -8.404  -0.079 125.367  0.00  0.00    +0.000 HD
BRANCH   8  10
ATOM     10  C   UNL     1      -7.471   1.344 124.231  0.00  0.00    +0.000 A 
ATOM     11  C   UNL     1      -6.386   2.073 124.752  0.00  0.00    +0.000 A 
ATOM     12 CL   UNL     1      -5.464   1.480 126.089  0.00  0.00    +0.000 Cl
ATOM     13  C   UNL     1      -5.970   3.276 124.152  0.00  0.00    +0.000 A 
ATOM     14  C   UNL     1      -6.611   3.753 123.009  0.00  0.00    +0.000 A 
ATOM     15  C   UNL     1      -7.721   3.078 122.518  0.00  0.00    +0.000 A 
ATOM     16  C   UNL     1      -8.181   1.935 123.172  0.00  0.00    +0.000 A 
ATOM     17  F   UNL     1      -9.226   1.282 122.635  0.00  0.00    +0.000 F 
ENDBRANCH   8  10
ENDBRANCH   5   8
BRANCH   6  18
ATOM     18  C   UNL     1      -6.858  -1.958 126.845  0.00  0.00    +0.000 C 
BRANCH  18  19
ATOM     19  C   UNL     1      -6.060  -1.618 128.080  0.00  0.00    +0.000 C 
ATOM     20  O   UNL     1      -6.655  -1.463 129.137  0.00  0.00    +0.000 OA
BRANCH  19  21
ATOM     21  O   UNL     1      -4.741  -1.405 128.079  0.00  0.00    +0.000 OA
ATOM     22  H   UNL     1      -4.341  -0.605 127.736  0.00  0.00    +0.000 HD
ENDBRANCH  19  21
ENDBRANCH  18  19
ENDBRANCH   6  18
TORSDOF 5
ENDMDL
MODEL 9
REMARK VINA RESULT:      -6.6      7.504      9.547
REMARK  Name = Lumiracoxib
REMARK  6 active torsions:
REMARK  status: ('A' for Active; 'I' for Inactive)
REMARK    1  A    between atoms: C_1  and  C_2
REMARK    2  A    between atoms: C_5  and  N_6
REMARK    3  A    between atoms: N_6  and  C_7
REMARK    4  A    between atoms: C_15  and  C_16
REMARK    5  A    between atoms: C_16  and  C_17
REMARK    6  A    between atoms: C_17  and  O_18
REMARK                            x       y       z     vdW  Elec       q    Type
REMARK                         _______ _______ _______ _____ _____    ______ ____
ROOT
ATOM      1  C   UNL     1      -8.690   1.639 131.109  0.00  0.00    +0.000 C 
ATOM      2  C   UNL     1      -8.237   0.700 130.033  0.00  0.00    +0.000 A 
ATOM      3  C   UNL     1      -7.750  -0.580 130.196  0.00  0.00    +0.000 A 
ATOM      4  C   UNL     1      -7.336  -1.308 129.061  0.00  0.00    +0.000 A 
ATOM      5  C   UNL     1      -7.443  -0.789 127.737  0.00  0.00    +0.000 A 
ATOM      6  C   UNL     1      -8.001   0.515 127.586  0.00  0.00    +0.000 A 
ATOM      7  C   UNL     1      -8.315   1.208 128.748  0.00  0.00    +0.000 A 
ENDROOT
BRANCH   5   8
ATOM      8  N   UNL     1      -6.874  -1.574 126.683  0.00  0.00    +0.000 N 
ATOM      9  H   UNL     1      -5.996  -2.029 126.922  0.00  0.00    +0.000 HD
BRANCH   8  10
ATOM     10  C   UNL     1      -7.509  -2.154 125.551  0.00  0.00    +0.000 A 
ATOM     11  C   UNL     1      -8.564  -3.079 125.659  0.00  0.00    +0.000 A 
ATOM     12 CL   UNL     1      -8.980  -3.793 127.177  0.00  0.00    +0.000 Cl
ATOM     13  C   UNL     1      -9.362  -3.396 124.545  0.00  0.00    +0.000 A 
ATOM     14  C   UNL     1      -9.139  -2.776 123.316  0.00  0.00    +0.000 A 
ATOM     15  C   UNL     1      -8.065  -1.907 123.177  0.00  0.00    +0.000 A 
ATOM     16  C   UNL     1      -7.224  -1.666 124.264  0.00  0.00    +0.000 A 
ATOM     17  F   UNL     1      -6.227  -0.778 124.103  0.00  0.00    +0.000 F 
ENDBRANCH   8  10
ENDBRANCH   5   8
BRANCH   6  18
ATOM     18  C   UNL     1      -8.218   1.193 126.251  0.00  0.00    +0.000 C 
BRANCH  18  19
ATOM     19  C   UNL     1      -9.413   1.251 125.331  0.00  0.00    +0.000 C 
ATOM     20  O   UNL     1     -10.104   0.249 125.205  0.00  0.00    +0.000 OA
BRANCH  19  21
ATOM     21  O   UNL     1      -9.727   2.313 124.585  0.00  0.00    +0.000 OA
ATOM     22  H   UNL     1     -10.631   2.578 124.407  0.00  0.00    +0.000 HD
ENDBRANCH  19  21
ENDBRANCH  18  19
ENDBRANCH   6  18
TORSDOF 5
ENDMDL
