MODEL 1
REMARK VINA RESULT:      -9.9      0.000      0.000
REMARK  Name = Lurasidone
REMARK  4 active torsions:
REMARK  status: ('A' for Active; 'I' for Inactive)
REMARK    1  A    between atoms: N_12  and  C_13
REMARK    2  A    between atoms: C_13  and  C_14
REMARK    3  A    between atoms: C_19  and  C_20
REMARK    4  A    between atoms: C_20  and  N_21
REMARK                            x       y       z     vdW  Elec       q    Type
REMARK                         _______ _______ _______ _____ _____    ______ ____
ROOT
ATOM      1  C   UNL     1      -5.627   0.027 127.451  0.00  0.00    +0.000 C 
ATOM      2  C   UNL     1      -5.187   0.651 128.801  0.00  0.00    +0.000 C 
ATOM      3  C   UNL     1      -6.228   1.106 129.872  0.00  0.00    +0.000 C 
ATOM      4  C   UNL     1      -7.796   1.606 129.170  0.00  0.00    +0.000 C 
ATOM      5  C   UNL     1      -8.237   0.878 127.621  0.00  0.00    +0.000 C 
ATOM      6  C   UNL     1      -6.917   0.722 126.849  0.00  0.00    +0.000 C 
ENDROOT
BRANCH   1   7
ATOM      7  C   UNL     1      -5.651  -1.553 127.572  0.00  0.00    +0.000 C 
BRANCH   7  17
ATOM      8  C   UNL     1      -7.124  -3.134 124.433  0.00  0.00    +0.000 C 
ATOM      9  C   UNL     1      -7.578  -2.077 123.372  0.00  0.00    +0.000 C 
ATOM     10  C   UNL     1      -8.509  -2.852 122.456  0.00  0.00    +0.000 C 
ATOM     11  C   UNL     1      -9.655  -3.177 123.430  0.00  0.00    +0.000 C 
ATOM     12  C   UNL     1      -9.266  -2.475 124.745  0.00  0.00    +0.000 C 
ATOM     13  C   UNL     1      -8.517  -1.231 124.219  0.00  0.00    +0.000 C 
ATOM     14  C   UNL     1      -8.231  -3.383 125.400  0.00  0.00    +0.000 C 
ATOM     15  C   UNL     1      -7.822  -2.854 126.825  0.00  0.00    +0.000 C 
ATOM     16  O   UNL     1      -8.484  -2.894 127.842  0.00  0.00    +0.000 OA
ATOM     17  N   UNL     1      -6.631  -2.318 126.737  0.00  0.00    +0.000 N 
ATOM     18  C   UNL     1      -6.391  -2.565 125.508  0.00  0.00    +0.000 C 
ATOM     19  O   UNL     1      -5.414  -2.118 125.141  0.00  0.00    +0.000 OA
ENDBRANCH   7  17
ENDBRANCH   1   7
BRANCH   6  20
ATOM     20  C   UNL     1      -6.716   2.163 126.568  0.00  0.00    +0.000 C 
BRANCH  20  21
ATOM     21  N   UNL     1      -7.568   3.207 125.943  0.00  0.00    +0.000 NA
ATOM     22  C   UNL     1      -7.209   4.613 125.478  0.00  0.00    +0.000 C 
ATOM     23  C   UNL     1      -5.931   4.689 124.583  0.00  0.00    +0.000 C 
ATOM     24  N   UNL     1      -6.186   3.777 123.513  0.00  0.00    +0.000 N 
ATOM     25  C   UNL     1      -6.517   2.425 123.873  0.00  0.00    +0.000 C 
ATOM     26  C   UNL     1      -7.830   2.457 124.719  0.00  0.00    +0.000 C 
ATOM     27  C   UNL     1      -5.939   4.131 122.263  0.00  0.00    +0.000 A 
ATOM     28  N   UNL     1      -4.793   4.670 121.878  0.00  0.00    +0.000 NA
ATOM     29  S   UNL     1      -4.909   4.992 120.273  0.00  0.00    +0.000 S 
ATOM     30  C   UNL     1      -6.537   4.480 120.096  0.00  0.00    +0.000 A 
ATOM     31  C   UNL     1      -7.347   4.491 118.964  0.00  0.00    +0.000 A 
ATOM     32  C   UNL     1      -8.661   4.032 119.083  0.00  0.00    +0.000 A 
ATOM     33  C   UNL     1      -9.163   3.584 120.295  0.00  0.00    +0.000 A 
ATOM     34  C   UNL     1      -8.346   3.576 121.416  0.00  0.00    +0.000 A 
ATOM     35  C   UNL     1      -7.001   4.015 121.316  0.00  0.00    +0.000 A 
ENDBRANCH  20  21
ENDBRANCH   6  20
TORSDOF 4
ENDMDL
MODEL 2
REMARK VINA RESULT:      -9.5      7.232     10.722
REMARK  Name = Lurasidone
REMARK  4 active torsions:
REMARK  status: ('A' for Active; 'I' for Inactive)
REMARK    1  A    between atoms: N_12  and  C_13
REMARK    2  A    between atoms: C_13  and  C_14
REMARK    3  A    between atoms: C_19  and  C_20
REMARK    4  A    between atoms: C_20  and  N_21
REMARK                            x       y       z     vdW  Elec       q    Type
REMARK                         _______ _______ _______ _____ _____    ______ ____
ROOT
ATOM      1  C   UNL     1      -9.086   2.908 131.305  0.00  0.00    +0.000 C 
ATOM      2  C   UNL     1      -9.387   2.750 132.818  0.00  0.00    +0.000 C 
ATOM      3  C   UNL     1      -9.012   3.861 133.849  0.00  0.00    +0.000 C 
ATOM      4  C   UNL     1      -7.597   4.837 133.357  0.00  0.00    +0.000 C 
ATOM      5  C   UNL     1      -7.290   4.967 131.622  0.00  0.00    +0.000 C 
ATOM      6  C   UNL     1      -7.691   3.606 131.030  0.00  0.00    +0.000 C 
ENDROOT
BRANCH   1   7
ATOM      7  C   UNL     1     -10.351   3.513 130.566  0.00  0.00    +0.000 C 
BRANCH   7  17
ATOM      8  C   UNL     1     -11.270   7.210 130.618  0.00  0.00    +0.000 C 
ATOM      9  C   UNL     1     -12.746   7.480 130.172  0.00  0.00    +0.000 C 
ATOM     10  C   UNL     1     -12.763   8.960 129.833  0.00  0.00    +0.000 C 
ATOM     11  C   UNL     1     -11.813   8.982 128.624  0.00  0.00    +0.000 C 
ATOM     12  C   UNL     1     -11.446   7.506 128.382  0.00  0.00    +0.000 C 
ATOM     13  C   UNL     1     -12.746   6.792 128.815  0.00  0.00    +0.000 C 
ATOM     14  C   UNL     1     -10.381   7.175 129.422  0.00  0.00    +0.000 C 
ATOM     15  C   UNL     1      -9.815   5.720 129.223  0.00  0.00    +0.000 C 
ATOM     16  O   UNL     1      -9.064   5.337 128.349  0.00  0.00    +0.000 OA
ATOM     17  N   UNL     1     -10.318   4.953 130.156  0.00  0.00    +0.000 N 
ATOM     18  C   UNL     1     -10.985   5.831 130.799  0.00  0.00    +0.000 C 
ATOM     19  O   UNL     1     -11.604   5.396 131.645  0.00  0.00    +0.000 OA
ENDBRANCH   7  17
ENDBRANCH   1   7
BRANCH   6  20
ATOM     20  C   UNL     1      -6.547   2.842 131.580  0.00  0.00    +0.000 C 
BRANCH  20  21
ATOM     21  N   UNL     1      -5.511   1.975 130.963  0.00  0.00    +0.000 NA
ATOM     22  C   UNL     1      -4.255   1.364 131.573  0.00  0.00    +0.000 C 
ATOM     23  C   UNL     1      -4.490   0.634 132.935  0.00  0.00    +0.000 C 
ATOM     24  N   UNL     1      -5.517  -0.320 132.659  0.00  0.00    +0.000 N 
ATOM     25  C   UNL     1      -6.741   0.182 132.094  0.00  0.00    +0.000 C 
ATOM     26  C   UNL     1      -6.403   0.845 130.720  0.00  0.00    +0.000 C 
ATOM     27  C   UNL     1      -5.400  -1.566 133.084  0.00  0.00    +0.000 A 
ATOM     28  N   UNL     1      -5.084  -1.878 134.331  0.00  0.00    +0.000 NA
ATOM     29  S   UNL     1      -5.006  -3.514 134.432  0.00  0.00    +0.000 S 
ATOM     30  C   UNL     1      -5.320  -3.819 132.773  0.00  0.00    +0.000 A 
ATOM     31  C   UNL     1      -5.380  -5.033 132.095  0.00  0.00    +0.000 A 
ATOM     32  C   UNL     1      -5.637  -5.016 130.723  0.00  0.00    +0.000 A 
ATOM     33  C   UNL     1      -5.819  -3.826 130.036  0.00  0.00    +0.000 A 
ATOM     34  C   UNL     1      -5.759  -2.621 130.722  0.00  0.00    +0.000 A 
ATOM     35  C   UNL     1      -5.522  -2.613 132.120  0.00  0.00    +0.000 A 
ENDBRANCH  20  21
ENDBRANCH   6  20
TORSDOF 4
ENDMDL
MODEL 3
REMARK VINA RESULT:      -9.5      6.610     10.191
REMARK  Name = Lurasidone
REMARK  4 active torsions:
REMARK  status: ('A' for Active; 'I' for Inactive)
REMARK    1  A    between atoms: N_12  and  C_13
REMARK    2  A    between atoms: C_13  and  C_14
REMARK    3  A    between atoms: C_19  and  C_20
REMARK    4  A    between atoms: C_20  and  N_21
REMARK                            x       y       z     vdW  Elec       q    Type
REMARK                         _______ _______ _______ _____ _____    ______ ____
ROOT
ATOM      1  C   UNL     1      -8.696   5.091 132.679  0.00  0.00    +0.000 C 
ATOM      2  C   UNL     1      -8.271   5.499 134.114  0.00  0.00    +0.000 C 
ATOM      3  C   UNL     1      -6.777   5.756 134.484  0.00  0.00    +0.000 C 
ATOM      4  C   UNL     1      -5.626   4.819 133.486  0.00  0.00    +0.000 C 
ATOM      5  C   UNL     1      -6.170   4.365 131.867  0.00  0.00    +0.000 C 
ATOM      6  C   UNL     1      -7.676   4.086 132.003  0.00  0.00    +0.000 C 
ENDROOT
BRANCH   1   7
ATOM      7  C   UNL     1      -9.090   6.382 131.848  0.00  0.00    +0.000 C 
BRANCH   7  17
ATOM      8  C   UNL     1     -10.898   6.206 128.498  0.00  0.00    +0.000 C 
ATOM      9  C   UNL     1     -10.763   7.521 127.661  0.00  0.00    +0.000 C 
ATOM     10  C   UNL     1     -11.878   7.419 126.635  0.00  0.00    +0.000 C 
ATOM     11  C   UNL     1     -13.111   7.479 127.552  0.00  0.00    +0.000 C 
ATOM     12  C   UNL     1     -12.541   7.690 128.967  0.00  0.00    +0.000 C 
ATOM     13  C   UNL     1     -11.283   8.536 128.668  0.00  0.00    +0.000 C 
ATOM     14  C   UNL     1     -12.062   6.315 129.422  0.00  0.00    +0.000 C 
ATOM     15  C   UNL     1     -11.557   6.346 130.913  0.00  0.00    +0.000 C 
ATOM     16  O   UNL     1     -12.235   6.431 131.917  0.00  0.00    +0.000 OA
ATOM     17  N   UNL     1     -10.250   6.297 130.904  0.00  0.00    +0.000 N 
ATOM     18  C   UNL     1     -10.062   6.188 129.646  0.00  0.00    +0.000 C 
ATOM     19  O   UNL     1      -8.967   6.205 129.351  0.00  0.00    +0.000 OA
ENDBRANCH   7  17
ENDBRANCH   1   7
BRANCH   6  20
ATOM     20  C   UNL     1      -7.543   2.812 132.748  0.00  0.00    +0.000 C 
BRANCH  20  21
ATOM     21  N   UNL     1      -8.302   1.536 132.727  0.00  0.00    +0.000 NA
ATOM     22  C   UNL     1      -8.966   0.811 131.563  0.00  0.00    +0.000 C 
ATOM     23  C   UNL     1      -8.055   0.643 130.304  0.00  0.00    +0.000 C 
ATOM     24  N   UNL     1      -6.882  -0.010 130.794  0.00  0.00    +0.000 N 
ATOM     25  C   UNL     1      -6.190   0.622 131.884  0.00  0.00    +0.000 C 
ATOM     26  C   UNL     1      -7.168   0.695 133.101  0.00  0.00    +0.000 C 
ATOM     27  C   UNL     1      -6.371  -1.039 130.140  0.00  0.00    +0.000 A 
ATOM     28  N   UNL     1      -6.135  -1.022 128.837  0.00  0.00    +0.000 NA
ATOM     29  S   UNL     1      -5.541  -2.495 128.420  0.00  0.00    +0.000 S 
ATOM     30  C   UNL     1      -5.670  -3.198 129.980  0.00  0.00    +0.000 A 
ATOM     31  C   UNL     1      -5.362  -4.491 130.393  0.00  0.00    +0.000 A 
ATOM     32  C   UNL     1      -5.575  -4.830 131.731  0.00  0.00    +0.000 A 
ATOM     33  C   UNL     1      -6.090  -3.914 132.635  0.00  0.00    +0.000 A 
ATOM     34  C   UNL     1      -6.392  -2.627 132.214  0.00  0.00    +0.000 A 
ATOM     35  C   UNL     1      -6.163  -2.252 130.865  0.00  0.00    +0.000 A 
ENDBRANCH  20  21
ENDBRANCH   6  20
TORSDOF 4
ENDMDL
MODEL 4
REMARK VINA RESULT:      -9.4      5.313      8.998
REMARK  Name = Lurasidone
REMARK  4 active torsions:
REMARK  status: ('A' for Active; 'I' for Inactive)
REMARK    1  A    between atoms: N_12  and  C_13
REMARK    2  A    between atoms: C_13  and  C_14
REMARK    3  A    between atoms: C_19  and  C_20
REMARK    4  A    between atoms: C_20  and  N_21
REMARK                            x       y       z     vdW  Elec       q    Type
REMARK                         _______ _______ _______ _____ _____    ______ ____
ROOT
ATOM      1  C   UNL     1      -8.531   5.177 132.232  0.00  0.00    +0.000 C 
ATOM      2  C   UNL     1      -8.667   5.076 133.774  0.00  0.00    +0.000 C 
ATOM      3  C   UNL     1      -7.542   5.585 134.729  0.00  0.00    +0.000 C 
ATOM      4  C   UNL     1      -5.908   5.508 134.008  0.00  0.00    +0.000 C 
ATOM      5  C   UNL     1      -5.815   5.607 132.246  0.00  0.00    +0.000 C 
ATOM      6  C   UNL     1      -7.062   4.872 131.727  0.00  0.00    +0.000 C 
ENDROOT
BRANCH   1   7
ATOM      7  C   UNL     1      -9.205   6.516 131.720  0.00  0.00    +0.000 C 
BRANCH   7  17
ATOM      8  C   UNL     1     -11.207   6.325 128.483  0.00  0.00    +0.000 C 
ATOM      9  C   UNL     1     -11.142   7.645 127.645  0.00  0.00    +0.000 C 
ATOM     10  C   UNL     1     -12.314   7.530 126.687  0.00  0.00    +0.000 C 
ATOM     11  C   UNL     1     -13.491   7.568 127.676  0.00  0.00    +0.000 C 
ATOM     12  C   UNL     1     -12.840   7.782 129.056  0.00  0.00    +0.000 C 
ATOM     13  C   UNL     1     -11.615   8.649 128.686  0.00  0.00    +0.000 C 
ATOM     14  C   UNL     1     -12.316   6.413 129.475  0.00  0.00    +0.000 C 
ATOM     15  C   UNL     1     -11.723   6.447 130.933  0.00  0.00    +0.000 C 
ATOM     16  O   UNL     1     -12.341   6.518 131.977  0.00  0.00    +0.000 OA
ATOM     17  N   UNL     1     -10.418   6.417 130.846  0.00  0.00    +0.000 N 
ATOM     18  C   UNL     1     -10.304   6.315 129.579  0.00  0.00    +0.000 C 
ATOM     19  O   UNL     1      -9.229   6.350 129.218  0.00  0.00    +0.000 OA
ENDBRANCH   7  17
ENDBRANCH   1   7
BRANCH   6  20
ATOM     20  C   UNL     1      -6.606   3.506 132.071  0.00  0.00    +0.000 C 
BRANCH  20  21
ATOM     21  N   UNL     1      -7.270   2.177 132.063  0.00  0.00    +0.000 NA
ATOM     22  C   UNL     1      -8.657   1.780 131.573  0.00  0.00    +0.000 C 
ATOM     23  C   UNL     1      -9.011   2.305 130.145  0.00  0.00    +0.000 C 
ATOM     24  N   UNL     1      -7.950   1.830 129.313  0.00  0.00    +0.000 N 
ATOM     25  C   UNL     1      -6.610   2.177 129.703  0.00  0.00    +0.000 C 
ATOM     26  C   UNL     1      -6.343   1.565 131.115  0.00  0.00    +0.000 C 
ATOM     27  C   UNL     1      -8.218   1.264 128.149  0.00  0.00    +0.000 A 
ATOM     28  N   UNL     1      -9.029   1.805 127.253  0.00  0.00    +0.000 NA
ATOM     29  S   UNL     1      -9.119   0.776 125.978  0.00  0.00    +0.000 S 
ATOM     30  C   UNL     1      -8.126  -0.449 126.655  0.00  0.00    +0.000 A 
ATOM     31  C   UNL     1      -7.767  -1.686 126.127  0.00  0.00    +0.000 A 
ATOM     32  C   UNL     1      -6.953  -2.524 126.891  0.00  0.00    +0.000 A 
ATOM     33  C   UNL     1      -6.514  -2.152 128.153  0.00  0.00    +0.000 A 
ATOM     34  C   UNL     1      -6.877  -0.916 128.669  0.00  0.00    +0.000 A 
ATOM     35  C   UNL     1      -7.684  -0.037 127.902  0.00  0.00    +0.000 A 
ENDBRANCH  20  21
ENDBRANCH   6  20
TORSDOF 4
ENDMDL
MODEL 5
REMARK VINA RESULT:      -9.4      6.404      9.896
REMARK  Name = Lurasidone
REMARK  4 active torsions:
REMARK  status: ('A' for Active; 'I' for Inactive)
REMARK    1  A    between atoms: N_12  and  C_13
REMARK    2  A    between atoms: C_13  and  C_14
REMARK    3  A    between atoms: C_19  and  C_20
REMARK    4  A    between atoms: C_20  and  N_21
REMARK                            x       y       z     vdW  Elec       q    Type
REMARK                         _______ _______ _______ _____ _____    ______ ____
ROOT
ATOM      1  C   UNL     1      -8.427   5.222 132.028  0.00  0.00    +0.000 C 
ATOM      2  C   UNL     1      -8.772   4.711 133.452  0.00  0.00    +0.000 C 
ATOM      3  C   UNL     1      -7.922   5.118 134.697  0.00  0.00    +0.000 C 
ATOM      4  C   UNL     1      -6.213   5.469 134.306  0.00  0.00    +0.000 C 
ATOM      5  C   UNL     1      -5.875   6.029 132.664  0.00  0.00    +0.000 C 
ATOM      6  C   UNL     1      -6.866   5.277 131.762  0.00  0.00    +0.000 C 
ENDROOT
BRANCH   1   7
ATOM      7  C   UNL     1      -9.257   6.534 131.712  0.00  0.00    +0.000 C 
BRANCH   7  17
ATOM      8  C   UNL     1     -11.265   6.323 128.480  0.00  0.00    +0.000 C 
ATOM      9  C   UNL     1     -11.223   7.647 127.647  0.00  0.00    +0.000 C 
ATOM     10  C   UNL     1     -12.397   7.517 126.692  0.00  0.00    +0.000 C 
ATOM     11  C   UNL     1     -13.571   7.532 127.685  0.00  0.00    +0.000 C 
ATOM     12  C   UNL     1     -12.920   7.752 129.064  0.00  0.00    +0.000 C 
ATOM     13  C   UNL     1     -11.710   8.639 128.694  0.00  0.00    +0.000 C 
ATOM     14  C   UNL     1     -12.372   6.390 129.476  0.00  0.00    +0.000 C 
ATOM     15  C   UNL     1     -11.776   6.427 130.933  0.00  0.00    +0.000 C 
ATOM     16  O   UNL     1     -12.392   6.484 131.978  0.00  0.00    +0.000 OA
ATOM     17  N   UNL     1     -10.470   6.419 130.842  0.00  0.00    +0.000 N 
ATOM     18  C   UNL     1     -10.359   6.323 129.574  0.00  0.00    +0.000 C 
ATOM     19  O   UNL     1      -9.285   6.377 129.210  0.00  0.00    +0.000 OA
ENDBRANCH   7  17
ENDBRANCH   1   7
BRANCH   6  20
ATOM     20  C   UNL     1      -6.217   3.950 131.870  0.00  0.00    +0.000 C 
BRANCH  20  21
ATOM     21  N   UNL     1      -5.510   3.079 130.896  0.00  0.00    +0.000 NA
ATOM     22  C   UNL     1      -4.590   1.888 131.135  0.00  0.00    +0.000 C 
ATOM     23  C   UNL     1      -5.155   0.829 132.135  0.00  0.00    +0.000 C 
ATOM     24  N   UNL     1      -6.430   0.471 131.598  0.00  0.00    +0.000 N 
ATOM     25  C   UNL     1      -7.361   1.541 131.357  0.00  0.00    +0.000 C 
ATOM     26  C   UNL     1      -6.723   2.511 130.313  0.00  0.00    +0.000 C 
ATOM     27  C   UNL     1      -6.784  -0.800 131.512  0.00  0.00    +0.000 A 
ATOM     28  N   UNL     1      -6.680  -1.649 132.523  0.00  0.00    +0.000 NA
ATOM     29  S   UNL     1      -7.185  -3.118 131.993  0.00  0.00    +0.000 S 
ATOM     30  C   UNL     1      -7.476  -2.642 130.370  0.00  0.00    +0.000 A 
ATOM     31  C   UNL     1      -7.910  -3.407 129.291  0.00  0.00    +0.000 A 
ATOM     32  C   UNL     1      -8.053  -2.784 128.050  0.00  0.00    +0.000 A 
ATOM     33  C   UNL     1      -7.762  -1.440 127.878  0.00  0.00    +0.000 A 
ATOM     34  C   UNL     1      -7.331  -0.686 128.961  0.00  0.00    +0.000 A 
ATOM     35  C   UNL     1      -7.200  -1.291 130.237  0.00  0.00    +0.000 A 
ENDBRANCH  20  21
ENDBRANCH   6  20
TORSDOF 4
ENDMDL
MODEL 6
REMARK VINA RESULT:      -9.4      7.154     10.950
REMARK  Name = Lurasidone
REMARK  4 active torsions:
REMARK  status: ('A' for Active; 'I' for Inactive)
REMARK    1  A    between atoms: N_12  and  C_13
REMARK    2  A    between atoms: C_13  and  C_14
REMARK    3  A    between atoms: C_19  and  C_20
REMARK    4  A    between atoms: C_20  and  N_21
REMARK                            x       y       z     vdW  Elec       q    Type
REMARK                         _______ _______ _______ _____ _____    ______ ____
ROOT
ATOM      1  C   UNL     1      -8.702   3.910 131.130  0.00  0.00    +0.000 C 
ATOM      2  C   UNL     1      -9.210   4.740 132.339  0.00  0.00    +0.000 C 
ATOM      3  C   UNL     1      -8.276   5.733 133.100  0.00  0.00    +0.000 C 
ATOM      4  C   UNL     1      -6.550   5.269 133.046  0.00  0.00    +0.000 C 
ATOM      5  C   UNL     1      -6.032   4.308 131.657  0.00  0.00    +0.000 C 
ATOM      6  C   UNL     1      -7.220   3.389 131.327  0.00  0.00    +0.000 C 
ENDROOT
BRANCH   1   7
ATOM      7  C   UNL     1      -9.022   4.676 129.781  0.00  0.00    +0.000 C 
BRANCH   7  17
ATOM      8  C   UNL     1     -12.211   6.760 129.658  0.00  0.00    +0.000 C 
ATOM      9  C   UNL     1     -12.854   6.810 128.232  0.00  0.00    +0.000 C 
ATOM     10  C   UNL     1     -13.794   8.001 128.295  0.00  0.00    +0.000 C 
ATOM     11  C   UNL     1     -12.784   9.146 128.480  0.00  0.00    +0.000 C 
ATOM     12  C   UNL     1     -11.402   8.469 128.416  0.00  0.00    +0.000 C 
ATOM     13  C   UNL     1     -11.671   7.317 127.421  0.00  0.00    +0.000 C 
ATOM     14  C   UNL     1     -11.193   7.840 129.789  0.00  0.00    +0.000 C 
ATOM     15  C   UNL     1      -9.758   7.207 129.918  0.00  0.00    +0.000 C 
ATOM     16  O   UNL     1      -8.702   7.796 130.039  0.00  0.00    +0.000 OA
ATOM     17  N   UNL     1      -9.876   5.906 129.842  0.00  0.00    +0.000 N 
ATOM     18  C   UNL     1     -11.147   5.825 129.757  0.00  0.00    +0.000 C 
ATOM     19  O   UNL     1     -11.521   4.765 129.595  0.00  0.00    +0.000 OA
ENDBRANCH   7  17
ENDBRANCH   1   7
BRANCH   6  20
ATOM     20  C   UNL     1      -7.074   2.499 132.502  0.00  0.00    +0.000 C 
BRANCH  20  21
ATOM     21  N   UNL     1      -7.857   1.343 133.008  0.00  0.00    +0.000 NA
ATOM     22  C   UNL     1      -8.667   0.300 132.247  0.00  0.00    +0.000 C 
ATOM     23  C   UNL     1      -7.912  -0.349 131.044  0.00  0.00    +0.000 C 
ATOM     24  N   UNL     1      -6.704  -0.861 131.611  0.00  0.00    +0.000 N 
ATOM     25  C   UNL     1      -5.877   0.067 132.333  0.00  0.00    +0.000 C 
ATOM     26  C   UNL     1      -6.706   0.617 133.538  0.00  0.00    +0.000 C 
ATOM     27  C   UNL     1      -6.294  -2.083 131.313  0.00  0.00    +0.000 A 
ATOM     28  N   UNL     1      -6.211  -2.534 130.071  0.00  0.00    +0.000 NA
ATOM     29  S   UNL     1      -5.701  -4.093 130.142  0.00  0.00    +0.000 S 
ATOM     30  C   UNL     1      -5.663  -4.201 131.854  0.00  0.00    +0.000 A 
ATOM     31  C   UNL     1      -5.338  -5.286 132.662  0.00  0.00    +0.000 A 
ATOM     32  C   UNL     1      -5.402  -5.125 134.048  0.00  0.00    +0.000 A 
ATOM     33  C   UNL     1      -5.789  -3.923 134.619  0.00  0.00    +0.000 A 
ATOM     34  C   UNL     1      -6.110  -2.847 133.804  0.00  0.00    +0.000 A 
ATOM     35  C   UNL     1      -6.030  -2.978 132.394  0.00  0.00    +0.000 A 
ENDBRANCH  20  21
ENDBRANCH   6  20
TORSDOF 4
ENDMDL
MODEL 7
REMARK VINA RESULT:      -9.3      4.806      8.043
REMARK  Name = Lurasidone
REMARK  4 active torsions:
REMARK  status: ('A' for Active; 'I' for Inactive)
REMARK    1  A    between atoms: N_12  and  C_13
REMARK    2  A    between atoms: C_13  and  C_14
REMARK    3  A    between atoms: C_19  and  C_20
REMARK    4  A    between atoms: C_20  and  N_21
REMARK                            x       y       z     vdW  Elec       q    Type
REMARK                         _______ _______ _______ _____ _____    ______ ____
ROOT
ATOM      1  C   UNL     1      -7.783   4.281 131.276  0.00  0.00    +0.000 C 
ATOM      2  C   UNL     1      -6.905   4.125 132.545  0.00  0.00    +0.000 C 
ATOM      3  C   UNL     1      -5.506   4.808 132.663  0.00  0.00    +0.000 C 
ATOM      4  C   UNL     1      -4.695   5.042 131.086  0.00  0.00    +0.000 C 
ATOM      5  C   UNL     1      -5.743   5.194 129.672  0.00  0.00    +0.000 C 
ATOM      6  C   UNL     1      -6.933   4.258 129.939  0.00  0.00    +0.000 C 
ENDROOT
BRANCH   1   7
ATOM      7  C   UNL     1      -8.792   5.489 131.465  0.00  0.00    +0.000 C 
BRANCH   7  17
ATOM      8  C   UNL     1     -10.844   7.334 128.837  0.00  0.00    +0.000 C 
ATOM      9  C   UNL     1     -11.678   8.517 129.433  0.00  0.00    +0.000 C 
ATOM     10  C   UNL     1     -12.721   8.804 128.367  0.00  0.00    +0.000 C 
ATOM     11  C   UNL     1     -13.526   7.494 128.403  0.00  0.00    +0.000 C 
ATOM     12  C   UNL     1     -12.890   6.669 129.537  0.00  0.00    +0.000 C 
ATOM     13  C   UNL     1     -12.452   7.782 130.516  0.00  0.00    +0.000 C 
ATOM     14  C   UNL     1     -11.623   6.067 128.941  0.00  0.00    +0.000 C 
ATOM     15  C   UNL     1     -10.918   5.091 129.955  0.00  0.00    +0.000 C 
ATOM     16  O   UNL     1     -11.283   3.977 130.277  0.00  0.00    +0.000 OA
ATOM     17  N   UNL     1      -9.862   5.693 130.438  0.00  0.00    +0.000 N 
ATOM     18  C   UNL     1      -9.925   6.777 129.766  0.00  0.00    +0.000 C 
ATOM     19  O   UNL     1      -9.136   7.537 130.062  0.00  0.00    +0.000 OA
ENDBRANCH   7  17
ENDBRANCH   1   7
BRANCH   6  20
ATOM     20  C   UNL     1      -6.193   2.988 129.750  0.00  0.00    +0.000 C 
BRANCH  20  21
ATOM     21  N   UNL     1      -6.620   1.579 129.557  0.00  0.00    +0.000 NA
ATOM     22  C   UNL     1      -7.948   1.017 129.067  0.00  0.00    +0.000 C 
ATOM     23  C   UNL     1      -8.482   1.678 127.756  0.00  0.00    +0.000 C 
ATOM     24  N   UNL     1      -7.415   1.530 126.817  0.00  0.00    +0.000 N 
ATOM     25  C   UNL     1      -6.130   2.050 127.203  0.00  0.00    +0.000 C 
ATOM     26  C   UNL     1      -5.668   1.292 128.488  0.00  0.00    +0.000 C 
ATOM     27  C   UNL     1      -7.660   1.105 125.590  0.00  0.00    +0.000 A 
ATOM     28  N   UNL     1      -8.610   1.620 124.824  0.00  0.00    +0.000 NA
ATOM     29  S   UNL     1      -8.609   0.794 123.406  0.00  0.00    +0.000 S 
ATOM     30  C   UNL     1      -7.378  -0.321 123.840  0.00  0.00    +0.000 A 
ATOM     31  C   UNL     1      -6.850  -1.381 123.108  0.00  0.00    +0.000 A 
ATOM     32  C   UNL     1      -5.855  -2.164 123.696  0.00  0.00    +0.000 A 
ATOM     33  C   UNL     1      -5.402  -1.911 124.982  0.00  0.00    +0.000 A 
ATOM     34  C   UNL     1      -5.934  -0.851 125.702  0.00  0.00    +0.000 A 
ATOM     35  C   UNL     1      -6.930  -0.027 125.117  0.00  0.00    +0.000 A 
ENDBRANCH  20  21
ENDBRANCH   6  20
TORSDOF 4
ENDMDL
MODEL 8
REMARK VINA RESULT:      -9.2      4.372      7.007
REMARK  Name = Lurasidone
REMARK  4 active torsions:
REMARK  status: ('A' for Active; 'I' for Inactive)
REMARK    1  A    between atoms: N_12  and  C_13
REMARK    2  A    between atoms: C_13  and  C_14
REMARK    3  A    between atoms: C_19  and  C_20
REMARK    4  A    between atoms: C_20  and  N_21
REMARK                            x       y       z     vdW  Elec       q    Type
REMARK                         _______ _______ _______ _____ _____    ______ ____
ROOT
ATOM      1  C   UNL     1      -6.740  -2.175 129.970  0.00  0.00    +0.000 C 
ATOM      2  C   UNL     1      -6.053  -3.133 130.979  0.00  0.00    +0.000 C 
ATOM      3  C   UNL     1      -6.665  -3.416 132.387  0.00  0.00    +0.000 C 
ATOM      4  C   UNL     1      -7.636  -2.057 133.025  0.00  0.00    +0.000 C 
ATOM      5  C   UNL     1      -8.379  -0.986 131.832  0.00  0.00    +0.000 C 
ATOM      6  C   UNL     1      -7.375  -0.905 130.671  0.00  0.00    +0.000 C 
ENDROOT
BRANCH   1   7
ATOM      7  C   UNL     1      -7.677  -3.003 128.996  0.00  0.00    +0.000 C 
BRANCH   7  17
ATOM      8  C   UNL     1      -9.415  -2.724 125.616  0.00  0.00    +0.000 C 
ATOM      9  C   UNL     1      -8.860  -3.735 124.559  0.00  0.00    +0.000 C 
ATOM     10  C   UNL     1      -9.333  -3.173 123.230  0.00  0.00    +0.000 C 
ATOM     11  C   UNL     1      -8.547  -1.851 123.188  0.00  0.00    +0.000 C 
ATOM     12  C   UNL     1      -7.670  -1.872 124.454  0.00  0.00    +0.000 C 
ATOM     13  C   UNL     1      -7.380  -3.383 124.600  0.00  0.00    +0.000 C 
ATOM     14  C   UNL     1      -8.598  -1.477 125.598  0.00  0.00    +0.000 C 
ATOM     15  C   UNL     1      -7.810  -1.338 126.954  0.00  0.00    +0.000 C 
ATOM     16  O   UNL     1      -7.052  -0.445 127.275  0.00  0.00    +0.000 OA
ATOM     17  N   UNL     1      -8.082  -2.381 127.695  0.00  0.00    +0.000 N 
ATOM     18  C   UNL     1      -8.920  -2.960 126.926  0.00  0.00    +0.000 C 
ATOM     19  O   UNL     1      -9.265  -3.969 127.314  0.00  0.00    +0.000 OA
ENDBRANCH   7  17
ENDBRANCH   1   7
BRANCH   6  20
ATOM     20  C   UNL     1      -6.371  -0.075 131.377  0.00  0.00    +0.000 C 
BRANCH  20  21
ATOM     21  N   UNL     1      -4.897   0.066 131.255  0.00  0.00    +0.000 NA
ATOM     22  C   UNL     1      -4.044   0.406 130.039  0.00  0.00    +0.000 C 
ATOM     23  C   UNL     1      -4.536   1.653 129.236  0.00  0.00    +0.000 C 
ATOM     24  N   UNL     1      -4.601   2.702 130.204  0.00  0.00    +0.000 N 
ATOM     25  C   UNL     1      -5.400   2.461 131.375  0.00  0.00    +0.000 C 
ATOM     26  C   UNL     1      -4.797   1.232 132.128  0.00  0.00    +0.000 C 
ATOM     27  C   UNL     1      -4.100   3.894 129.930  0.00  0.00    +0.000 A 
ATOM     28  N   UNL     1      -4.372   4.553 128.814  0.00  0.00    +0.000 NA
ATOM     29  S   UNL     1      -3.528   5.960 128.847  0.00  0.00    +0.000 S 
ATOM     30  C   UNL     1      -2.723   5.660 130.333  0.00  0.00    +0.000 A 
ATOM     31  C   UNL     1      -1.786   6.443 131.002  0.00  0.00    +0.000 A 
ATOM     32  C   UNL     1      -1.257   5.965 132.202  0.00  0.00    +0.000 A 
ATOM     33  C   UNL     1      -1.637   4.737 132.722  0.00  0.00    +0.000 A 
ATOM     34  C   UNL     1      -2.573   3.966 132.048  0.00  0.00    +0.000 A 
ATOM     35  C   UNL     1      -3.143   4.440 130.838  0.00  0.00    +0.000 A 
ENDBRANCH  20  21
ENDBRANCH   6  20
TORSDOF 4
ENDMDL
MODEL 9
REMARK VINA RESULT:      -9.2      3.572      7.169
REMARK  Name = Lurasidone
REMARK  4 active torsions:
REMARK  status: ('A' for Active; 'I' for Inactive)
REMARK    1  A    between atoms: N_12  and  C_13
REMARK    2  A    between atoms: C_13  and  C_14
REMARK    3  A    between atoms: C_19  and  C_20
REMARK    4  A    between atoms: C_20  and  N_21
REMARK                            x       y       z     vdW  Elec       q    Type
REMARK                         _______ _______ _______ _____ _____    ______ ____
ROOT
ATOM      1  C   UNL     1      -6.331  -1.886 127.825  0.00  0.00    +0.000 C 
ATOM      2  C   UNL     1      -4.981  -2.402 128.388  0.00  0.00    +0.000 C 
ATOM      3  C   UNL     1      -4.910  -3.637 129.341  0.00  0.00    +0.000 C 
ATOM      4  C   UNL     1      -6.389  -3.864 130.321  0.00  0.00    +0.000 C 
ATOM      5  C   UNL     1      -7.894  -3.239 129.639  0.00  0.00    +0.000 C 
ATOM      6  C   UNL     1      -7.503  -1.956 128.887  0.00  0.00    +0.000 C 
ENDROOT
BRANCH   1   7
ATOM      7  C   UNL     1      -6.605  -2.537 126.407  0.00  0.00    +0.000 C 
BRANCH   7  17
ATOM      8  C   UNL     1      -7.681  -0.153 123.635  0.00  0.00    +0.000 C 
ATOM      9  C   UNL     1      -7.499   1.353 124.020  0.00  0.00    +0.000 C 
ATOM     10  C   UNL     1      -8.372   2.094 123.023  0.00  0.00    +0.000 C 
ATOM     11  C   UNL     1      -9.764   1.588 123.437  0.00  0.00    +0.000 C 
ATOM     12  C   UNL     1      -9.511   0.693 124.664  0.00  0.00    +0.000 C 
ATOM     13  C   UNL     1      -8.299   1.399 125.313  0.00  0.00    +0.000 C 
ATOM     14  C   UNL     1      -9.012  -0.635 124.103  0.00  0.00    +0.000 C 
ATOM     15  C   UNL     1      -8.821  -1.705 125.241  0.00  0.00    +0.000 C 
ATOM     16  O   UNL     1      -9.692  -2.299 125.845  0.00  0.00    +0.000 OA
ATOM     17  N   UNL     1      -7.540  -1.838 125.468  0.00  0.00    +0.000 N 
ATOM     18  C   UNL     1      -7.095  -1.043 124.574  0.00  0.00    +0.000 C 
ATOM     19  O   UNL     1      -5.968  -0.910 124.609  0.00  0.00    +0.000 OA
ENDBRANCH   7  17
ENDBRANCH   1   7
BRANCH   6  20
ATOM     20  C   UNL     1      -7.240  -1.132 130.090  0.00  0.00    +0.000 C 
BRANCH  20  21
ATOM     21  N   UNL     1      -6.457   0.109 130.324  0.00  0.00    +0.000 NA
ATOM     22  C   UNL     1      -6.368   1.382 129.492  0.00  0.00    +0.000 C 
ATOM     23  C   UNL     1      -7.751   1.972 129.067  0.00  0.00    +0.000 C 
ATOM     24  N   UNL     1      -8.464   2.136 130.295  0.00  0.00    +0.000 N 
ATOM     25  C   UNL     1      -8.603   0.974 131.130  0.00  0.00    +0.000 C 
ATOM     26  C   UNL     1      -7.172   0.497 131.537  0.00  0.00    +0.000 C 
ATOM     27  C   UNL     1      -9.116   3.260 130.541  0.00  0.00    +0.000 A 
ATOM     28  N   UNL     1      -9.954   3.813 129.677  0.00  0.00    +0.000 NA
ATOM     29  S   UNL     1     -10.517   5.201 130.348  0.00  0.00    +0.000 S 
ATOM     30  C   UNL     1      -9.576   5.112 131.781  0.00  0.00    +0.000 A 
ATOM     31  C   UNL     1      -9.506   6.003 132.847  0.00  0.00    +0.000 A 
ATOM     32  C   UNL     1      -8.638   5.712 133.901  0.00  0.00    +0.000 A 
ATOM     33  C   UNL     1      -7.848   4.572 133.894  0.00  0.00    +0.000 A 
ATOM     34  C   UNL     1      -7.926   3.689 132.825  0.00  0.00    +0.000 A 
ATOM     35  C   UNL     1      -8.818   3.952 131.754  0.00  0.00    +0.000 A 
ENDBRANCH  20  21
ENDBRANCH   6  20
TORSDOF 4
ENDMDL
