MODEL 1
REMARK VINA RESULT:      -7.9      0.000      0.000
REMARK  Name = Lusutrombopag
REMARK  17 active torsions:
REMARK  status: ('A' for Active; 'I' for Inactive)
REMARK    1  A    between atoms: C_1  and  C_2
REMARK    2  A    between atoms: C_2  and  C_3
REMARK    3  A    between atoms: C_3  and  C_4
REMARK    4  A    between atoms: C_4  and  C_5
REMARK    5  A    between atoms: C_5  and  C_6
REMARK    6  A    between atoms: C_6  and  O_7
REMARK    7  A    between atoms: O_7  and  C_8
REMARK    8  A    between atoms: C_8  and  C_9
REMARK    9  A    between atoms: C_8  and  C_10
REMARK   10  A    between atoms: C_11  and  O_12
REMARK   11  A    between atoms: O_12  and  C_13
REMARK   12  A    between atoms: C_14  and  C_18
REMARK   13  A    between atoms: C_23  and  C_25
REMARK   14  A    between atoms: C_29  and  C_30
REMARK   15  A    between atoms: C_31  and  C_32
REMARK   16  A    between atoms: C_31  and  C_33
REMARK   17  A    between atoms: C_33  and  O_34
REMARK                            x       y       z     vdW  Elec       q    Type
REMARK                         _______ _______ _______ _____ _____    ______ ____
ROOT
ATOM      1  C   UNL     1      -7.863   2.476 124.565  0.00  0.00    +0.000 A 
ATOM      2  C   UNL     1      -6.984   3.383 124.010  0.00  0.00    +0.000 A 
ATOM      3  S   UNL     1      -6.584   4.581 125.191  0.00  0.00    +0.000 S 
ATOM      4  C   UNL     1      -7.603   3.795 126.316  0.00  0.00    +0.000 A 
ATOM      5  N   UNL     1      -7.671   4.323 127.585  0.00  0.00    +0.000 N 
ATOM      6  C   UNL     1      -8.425   3.677 128.550  0.00  0.00    +0.000 C 
ATOM      7  O   UNL     1      -9.099   2.657 128.415  0.00  0.00    +0.000 OA
ATOM      8  N   UNL     1      -8.233   2.746 125.866  0.00  0.00    +0.000 NA
ATOM      9  H   UNL     1      -7.134   5.159 127.772  0.00  0.00    +0.000 HD
ENDROOT
BRANCH   6  10
ATOM     10  C   UNL     1      -8.523   4.304 129.885  0.00  0.00    +0.000 A 
ATOM     11  C   UNL     1      -7.640   5.313 130.274  0.00  0.00    +0.000 A 
ATOM     12  C   UNL     1      -7.484   5.660 131.631  0.00  0.00    +0.000 A 
ATOM     13 CL   UNL     1      -6.201   6.799 131.950  0.00  0.00    +0.000 Cl
ATOM     14  C   UNL     1      -8.227   5.024 132.665  0.00  0.00    +0.000 A 
ATOM     15  C   UNL     1      -9.004   3.902 132.207  0.00  0.00    +0.000 A 
ATOM     16 CL   UNL     1      -9.583   2.505 133.098  0.00  0.00    +0.000 Cl
ATOM     17  C   UNL     1      -9.238   3.637 130.851  0.00  0.00    +0.000 A 
BRANCH  14  18
ATOM     18  C   UNL     1      -8.144   5.648 134.069  0.00  0.00    +0.000 C 
ATOM     19  C   UNL     1      -7.408   5.272 135.144  0.00  0.00    +0.000 C 
ATOM     20  C   UNL     1      -6.533   4.081 135.065  0.00  0.00    +0.000 C 
BRANCH  19  21
ATOM     21  C   UNL     1      -7.333   5.865 136.513  0.00  0.00    +0.000 C 
ATOM     22  O   UNL     1      -6.393   5.598 137.275  0.00  0.00    +0.000 OA
BRANCH  21  23
ATOM     23  O   UNL     1      -8.320   6.677 136.900  0.00  0.00    +0.000 OA
ATOM     24  H   UNL     1      -8.779   6.444 137.721  0.00  0.00    +0.000 HD
ENDBRANCH  21  23
ENDBRANCH  19  21
ENDBRANCH  14  18
ENDBRANCH   6  10
BRANCH   1  27
ATOM     25  C   UNL     1      -8.973  -1.050 123.860  0.00  0.00    +0.000 A 
ATOM     26  C   UNL     1      -8.147  -0.015 124.352  0.00  0.00    +0.000 A 
ATOM     27  C   UNL     1      -8.405   1.303 123.895  0.00  0.00    +0.000 A 
ATOM     28  C   UNL     1      -9.339   1.546 122.868  0.00  0.00    +0.000 A 
ATOM     29  C   UNL     1     -10.096   0.512 122.343  0.00  0.00    +0.000 A 
ATOM     30  C   UNL     1      -9.927  -0.768 122.850  0.00  0.00    +0.000 A 
BRANCH  25  31
ATOM     31  C   UNL     1      -8.931  -2.463 124.379  0.00  0.00    +0.000 C 
ATOM     32  C   UNL     1      -9.623  -3.403 123.390  0.00  0.00    +0.000 C 
BRANCH  31  33
ATOM     33  O   UNL     1      -9.566  -2.605 125.659  0.00  0.00    +0.000 OA
BRANCH  33  34
ATOM     34  C   UNL     1      -8.815  -3.500 126.468  0.00  0.00    +0.000 C 
BRANCH  34  35
ATOM     35  C   UNL     1      -8.086  -2.713 127.517  0.00  0.00    +0.000 C 
BRANCH  35  36
ATOM     36  C   UNL     1      -8.420  -3.309 128.871  0.00  0.00    +0.000 C 
BRANCH  36  37
ATOM     37  C   UNL     1      -7.673  -2.558 129.950  0.00  0.00    +0.000 C 
BRANCH  37  39
ATOM     38  C   UNL     1      -8.400  -0.412 130.964  0.00  0.00    +0.000 C 
ATOM     39  C   UNL     1      -7.799  -1.061 129.734  0.00  0.00    +0.000 C 
ENDBRANCH  37  39
ENDBRANCH  36  37
ENDBRANCH  35  36
ENDBRANCH  34  35
ENDBRANCH  33  34
ENDBRANCH  31  33
ENDBRANCH  25  31
BRANCH  26  40
ATOM     40  O   UNL     1      -7.122  -0.111 125.268  0.00  0.00    +0.000 OA
ATOM     41  C   UNL     1      -5.894  -0.774 125.014  0.00  0.00    +0.000 C 
ENDBRANCH  26  40
ENDBRANCH   1  27
TORSDOF 13
ENDMDL
MODEL 2
REMARK VINA RESULT:      -7.8      3.778      5.444
REMARK  Name = Lusutrombopag
REMARK  17 active torsions:
REMARK  status: ('A' for Active; 'I' for Inactive)
REMARK    1  A    between atoms: C_1  and  C_2
REMARK    2  A    between atoms: C_2  and  C_3
REMARK    3  A    between atoms: C_3  and  C_4
REMARK    4  A    between atoms: C_4  and  C_5
REMARK    5  A    between atoms: C_5  and  C_6
REMARK    6  A    between atoms: C_6  and  O_7
REMARK    7  A    between atoms: O_7  and  C_8
REMARK    8  A    between atoms: C_8  and  C_9
REMARK    9  A    between atoms: C_8  and  C_10
REMARK   10  A    between atoms: C_11  and  O_12
REMARK   11  A    between atoms: O_12  and  C_13
REMARK   12  A    between atoms: C_14  and  C_18
REMARK   13  A    between atoms: C_23  and  C_25
REMARK   14  A    between atoms: C_29  and  C_30
REMARK   15  A    between atoms: C_31  and  C_32
REMARK   16  A    between atoms: C_31  and  C_33
REMARK   17  A    between atoms: C_33  and  O_34
REMARK                            x       y       z     vdW  Elec       q    Type
REMARK                         _______ _______ _______ _____ _____    ______ ____
ROOT
ATOM      1  C   UNL     1      -6.285  -1.191 128.967  0.00  0.00    +0.000 A 
ATOM      2  C   UNL     1      -5.239  -1.832 129.598  0.00  0.00    +0.000 A 
ATOM      3  S   UNL     1      -4.193  -0.650 130.304  0.00  0.00    +0.000 S 
ATOM      4  C   UNL     1      -5.213   0.588 129.713  0.00  0.00    +0.000 A 
ATOM      5  N   UNL     1      -4.878   1.886 130.026  0.00  0.00    +0.000 N 
ATOM      6  C   UNL     1      -5.715   2.916 129.632  0.00  0.00    +0.000 C 
ATOM      7  O   UNL     1      -6.758   2.829 128.986  0.00  0.00    +0.000 OA
ATOM      8  N   UNL     1      -6.236   0.187 129.011  0.00  0.00    +0.000 NA
ATOM      9  H   UNL     1      -4.036   2.034 130.564  0.00  0.00    +0.000 HD
ENDROOT
BRANCH   6  10
ATOM     10  C   UNL     1      -5.296   4.302 129.934  0.00  0.00    +0.000 A 
ATOM     11  C   UNL     1      -4.140   4.844 129.367  0.00  0.00    +0.000 A 
ATOM     12  C   UNL     1      -3.539   5.999 129.908  0.00  0.00    +0.000 A 
ATOM     13 CL   UNL     1      -2.001   6.420 129.198  0.00  0.00    +0.000 Cl
ATOM     14  C   UNL     1      -4.084   6.680 131.031  0.00  0.00    +0.000 A 
ATOM     15  C   UNL     1      -5.184   5.985 131.646  0.00  0.00    +0.000 A 
ATOM     16 CL   UNL     1      -5.783   6.076 133.294  0.00  0.00    +0.000 Cl
ATOM     17  C   UNL     1      -5.840   4.906 131.041  0.00  0.00    +0.000 A 
BRANCH  14  18
ATOM     18  C   UNL     1      -3.476   8.052 131.377  0.00  0.00    +0.000 C 
ATOM     19  C   UNL     1      -2.631   8.399 132.378  0.00  0.00    +0.000 C 
ATOM     20  C   UNL     1      -2.178   7.382 133.354  0.00  0.00    +0.000 C 
BRANCH  19  21
ATOM     21  C   UNL     1      -2.049   9.730 132.727  0.00  0.00    +0.000 C 
ATOM     22  O   UNL     1      -1.152   9.833 133.577  0.00  0.00    +0.000 OA
BRANCH  21  23
ATOM     23  O   UNL     1      -2.537  10.809 132.112  0.00  0.00    +0.000 OA
ATOM     24  H   UNL     1      -2.869  11.522 132.679  0.00  0.00    +0.000 HD
ENDBRANCH  21  23
ENDBRANCH  19  21
ENDBRANCH  14  18
ENDBRANCH   6  10
BRANCH   1  27
ATOM     25  C   UNL     1      -8.706  -2.277 126.297  0.00  0.00    +0.000 A 
ATOM     26  C   UNL     1      -7.877  -1.396 127.030  0.00  0.00    +0.000 A 
ATOM     27  C   UNL     1      -7.392  -1.846 128.285  0.00  0.00    +0.000 A 
ATOM     28  C   UNL     1      -7.849  -3.053 128.850  0.00  0.00    +0.000 A 
ATOM     29  C   UNL     1      -8.716  -3.877 128.152  0.00  0.00    +0.000 A 
ATOM     30  C   UNL     1      -9.121  -3.499 126.880  0.00  0.00    +0.000 A 
BRANCH  25  31
ATOM     31  C   UNL     1      -9.155  -2.009 124.885  0.00  0.00    +0.000 C 
ATOM     32  C   UNL     1      -9.462  -3.330 124.176  0.00  0.00    +0.000 C 
BRANCH  31  33
ATOM     33  O   UNL     1      -8.174  -1.299 124.114  0.00  0.00    +0.000 OA
BRANCH  33  34
ATOM     34  C   UNL     1      -7.853  -2.044 122.947  0.00  0.00    +0.000 C 
BRANCH  34  35
ATOM     35  C   UNL     1      -6.374  -1.961 122.709  0.00  0.00    +0.000 C 
BRANCH  35  36
ATOM     36  C   UNL     1      -5.692  -1.740 124.045  0.00  0.00    +0.000 C 
BRANCH  36  37
ATOM     37  C   UNL     1      -5.145  -3.054 124.556  0.00  0.00    +0.000 C 
BRANCH  37  39
ATOM     38  C   UNL     1      -4.405  -5.144 123.440  0.00  0.00    +0.000 C 
ATOM     39  C   UNL     1      -4.179  -3.650 123.548  0.00  0.00    +0.000 C 
ENDBRANCH  37  39
ENDBRANCH  36  37
ENDBRANCH  35  36
ENDBRANCH  34  35
ENDBRANCH  33  34
ENDBRANCH  31  33
ENDBRANCH  25  31
BRANCH  26  40
ATOM     40  O   UNL     1      -7.439  -0.143 126.663  0.00  0.00    +0.000 OA
ATOM     41  C   UNL     1      -8.286   0.988 126.538  0.00  0.00    +0.000 C 
ENDBRANCH  26  40
ENDBRANCH   1  27
TORSDOF 13
ENDMDL
MODEL 3
REMARK VINA RESULT:      -7.7      3.648      4.235
REMARK  Name = Lusutrombopag
REMARK  17 active torsions:
REMARK  status: ('A' for Active; 'I' for Inactive)
REMARK    1  A    between atoms: C_1  and  C_2
REMARK    2  A    between atoms: C_2  and  C_3
REMARK    3  A    between atoms: C_3  and  C_4
REMARK    4  A    between atoms: C_4  and  C_5
REMARK    5  A    between atoms: C_5  and  C_6
REMARK    6  A    between atoms: C_6  and  O_7
REMARK    7  A    between atoms: O_7  and  C_8
REMARK    8  A    between atoms: C_8  and  C_9
REMARK    9  A    between atoms: C_8  and  C_10
REMARK   10  A    between atoms: C_11  and  O_12
REMARK   11  A    between atoms: O_12  and  C_13
REMARK   12  A    between atoms: C_14  and  C_18
REMARK   13  A    between atoms: C_23  and  C_25
REMARK   14  A    between atoms: C_29  and  C_30
REMARK   15  A    between atoms: C_31  and  C_32
REMARK   16  A    between atoms: C_31  and  C_33
REMARK   17  A    between atoms: C_33  and  O_34
REMARK                            x       y       z     vdW  Elec       q    Type
REMARK                         _______ _______ _______ _____ _____    ______ ____
ROOT
ATOM      1  C   UNL     1      -6.928   2.479 123.379  0.00  0.00    +0.000 A 
ATOM      2  C   UNL     1      -6.476   3.345 122.406  0.00  0.00    +0.000 A 
ATOM      3  S   UNL     1      -5.256   4.368 123.078  0.00  0.00    +0.000 S 
ATOM      4  C   UNL     1      -5.439   3.577 124.583  0.00  0.00    +0.000 A 
ATOM      5  N   UNL     1      -4.616   3.976 125.611  0.00  0.00    +0.000 N 
ATOM      6  C   UNL     1      -4.677   3.314 126.825  0.00  0.00    +0.000 C 
ATOM      7  O   UNL     1      -5.423   2.386 127.135  0.00  0.00    +0.000 OA
ATOM      8  N   UNL     1      -6.353   2.649 124.622  0.00  0.00    +0.000 NA
ATOM      9  H   UNL     1      -3.969   4.730 125.425  0.00  0.00    +0.000 HD
ENDROOT
BRANCH   6  10
ATOM     10  C   UNL     1      -3.821   3.806 127.926  0.00  0.00    +0.000 A 
ATOM     11  C   UNL     1      -4.089   3.468 129.254  0.00  0.00    +0.000 A 
ATOM     12  C   UNL     1      -3.524   4.199 130.318  0.00  0.00    +0.000 A 
ATOM     13 CL   UNL     1      -4.121   3.764 131.899  0.00  0.00    +0.000 Cl
ATOM     14  C   UNL     1      -2.642   5.293 130.100  0.00  0.00    +0.000 A 
ATOM     15  C   UNL     1      -2.529   5.673 128.716  0.00  0.00    +0.000 A 
ATOM     16 CL   UNL     1      -2.081   7.218 128.014  0.00  0.00    +0.000 Cl
ATOM     17  C   UNL     1      -3.001   4.877 127.665  0.00  0.00    +0.000 A 
BRANCH  14  18
ATOM     18  C   UNL     1      -1.910   5.856 131.332  0.00  0.00    +0.000 C 
ATOM     19  C   UNL     1      -2.119   7.008 132.015  0.00  0.00    +0.000 C 
ATOM     20  C   UNL     1      -3.177   7.947 131.580  0.00  0.00    +0.000 C 
BRANCH  19  21
ATOM     21  C   UNL     1      -1.404   7.565 133.203  0.00  0.00    +0.000 C 
ATOM     22  O   UNL     1      -1.262   8.787 133.348  0.00  0.00    +0.000 OA
BRANCH  21  23
ATOM     23  O   UNL     1      -0.903   6.706 134.094  0.00  0.00    +0.000 OA
ATOM     24  H   UNL     1      -0.841   5.779 133.818  0.00  0.00    +0.000 HD
ENDBRANCH  21  23
ENDBRANCH  19  21
ENDBRANCH  14  18
ENDBRANCH   6  10
BRANCH   1  27
ATOM     25  C   UNL     1      -8.852  -0.741 123.696  0.00  0.00    +0.000 A 
ATOM     26  C   UNL     1      -7.720   0.102 123.607  0.00  0.00    +0.000 A 
ATOM     27  C   UNL     1      -7.932   1.441 123.191  0.00  0.00    +0.000 A 
ATOM     28  C   UNL     1      -9.193   1.868 122.730  0.00  0.00    +0.000 A 
ATOM     29  C   UNL     1     -10.282   1.012 122.757  0.00  0.00    +0.000 A 
ATOM     30  C   UNL     1     -10.114  -0.271 123.254  0.00  0.00    +0.000 A 
BRANCH  25  31
ATOM     31  C   UNL     1      -8.809  -2.128 124.280  0.00  0.00    +0.000 C 
ATOM     32  C   UNL     1      -9.328  -3.141 123.257  0.00  0.00    +0.000 C 
BRANCH  31  33
ATOM     33  O   UNL     1      -9.592  -2.252 125.477  0.00  0.00    +0.000 OA
BRANCH  33  34
ATOM     34  C   UNL     1      -8.730  -2.409 126.596  0.00  0.00    +0.000 C 
BRANCH  34  35
ATOM     35  C   UNL     1      -8.928  -3.779 127.175  0.00  0.00    +0.000 C 
BRANCH  35  36
ATOM     36  C   UNL     1      -8.791  -3.679 128.682  0.00  0.00    +0.000 C 
BRANCH  36  37
ATOM     37  C   UNL     1      -7.413  -3.164 129.030  0.00  0.00    +0.000 C 
BRANCH  37  39
ATOM     38  C   UNL     1      -7.898  -1.007 130.159  0.00  0.00    +0.000 C 
ATOM     39  C   UNL     1      -7.443  -2.437 130.363  0.00  0.00    +0.000 C 
ENDBRANCH  37  39
ENDBRANCH  36  37
ENDBRANCH  35  36
ENDBRANCH  34  35
ENDBRANCH  33  34
ENDBRANCH  31  33
ENDBRANCH  25  31
BRANCH  26  40
ATOM     40  O   UNL     1      -6.411  -0.202 123.911  0.00  0.00    +0.000 OA
ATOM     41  C   UNL     1      -5.975  -0.635 125.189  0.00  0.00    +0.000 C 
ENDBRANCH  26  40
ENDBRANCH   1  27
TORSDOF 13
ENDMDL
MODEL 4
REMARK VINA RESULT:      -7.5      4.108      5.597
REMARK  Name = Lusutrombopag
REMARK  17 active torsions:
REMARK  status: ('A' for Active; 'I' for Inactive)
REMARK    1  A    between atoms: C_1  and  C_2
REMARK    2  A    between atoms: C_2  and  C_3
REMARK    3  A    between atoms: C_3  and  C_4
REMARK    4  A    between atoms: C_4  and  C_5
REMARK    5  A    between atoms: C_5  and  C_6
REMARK    6  A    between atoms: C_6  and  O_7
REMARK    7  A    between atoms: O_7  and  C_8
REMARK    8  A    between atoms: C_8  and  C_9
REMARK    9  A    between atoms: C_8  and  C_10
REMARK   10  A    between atoms: C_11  and  O_12
REMARK   11  A    between atoms: O_12  and  C_13
REMARK   12  A    between atoms: C_14  and  C_18
REMARK   13  A    between atoms: C_23  and  C_25
REMARK   14  A    between atoms: C_29  and  C_30
REMARK   15  A    between atoms: C_31  and  C_32
REMARK   16  A    between atoms: C_31  and  C_33
REMARK   17  A    between atoms: C_33  and  O_34
REMARK                            x       y       z     vdW  Elec       q    Type
REMARK                         _______ _______ _______ _____ _____    ______ ____
ROOT
ATOM      1  C   UNL     1      -5.365  -1.914 127.763  0.00  0.00    +0.000 A 
ATOM      2  C   UNL     1      -5.111  -2.730 128.846  0.00  0.00    +0.000 A 
ATOM      3  S   UNL     1      -4.510  -1.769 130.151  0.00  0.00    +0.000 S 
ATOM      4  C   UNL     1      -4.638  -0.376 129.170  0.00  0.00    +0.000 A 
ATOM      5  N   UNL     1      -4.301   0.831 129.738  0.00  0.00    +0.000 N 
ATOM      6  C   UNL     1      -4.460   1.995 129.004  0.00  0.00    +0.000 C 
ATOM      7  O   UNL     1      -4.859   2.101 127.846  0.00  0.00    +0.000 OA
ATOM      8  N   UNL     1      -5.056  -0.583 127.952  0.00  0.00    +0.000 NA
ATOM      9  H   UNL     1      -3.972   0.821 130.693  0.00  0.00    +0.000 HD
ENDROOT
BRANCH   6  10
ATOM     10  C   UNL     1      -4.032   3.267 129.624  0.00  0.00    +0.000 A 
ATOM     11  C   UNL     1      -3.575   4.331 128.844  0.00  0.00    +0.000 A 
ATOM     12  C   UNL     1      -2.840   5.389 129.416  0.00  0.00    +0.000 A 
ATOM     13 CL   UNL     1      -2.183   6.526 128.267  0.00  0.00    +0.000 Cl
ATOM     14  C   UNL     1      -2.547   5.441 130.807  0.00  0.00    +0.000 A 
ATOM     15  C   UNL     1      -2.921   4.247 131.518  0.00  0.00    +0.000 A 
ATOM     16 CL   UNL     1      -2.286   3.594 133.019  0.00  0.00    +0.000 Cl
ATOM     17  C   UNL     1      -3.745   3.256 130.968  0.00  0.00    +0.000 A 
BRANCH  14  18
ATOM     18  C   UNL     1      -1.949   6.753 131.345  0.00  0.00    +0.000 C 
ATOM     19  C   UNL     1      -2.319   7.502 132.413  0.00  0.00    +0.000 C 
ATOM     20  C   UNL     1      -3.476   7.094 133.241  0.00  0.00    +0.000 C 
BRANCH  19  21
ATOM     21  C   UNL     1      -1.751   8.783 132.932  0.00  0.00    +0.000 C 
ATOM     22  O   UNL     1      -0.761   8.787 133.678  0.00  0.00    +0.000 OA
BRANCH  21  23
ATOM     23  O   UNL     1      -2.354   9.923 132.586  0.00  0.00    +0.000 OA
ATOM     24  H   UNL     1      -2.089  10.720 133.070  0.00  0.00    +0.000 HD
ENDBRANCH  21  23
ENDBRANCH  19  21
ENDBRANCH  14  18
ENDBRANCH   6  10
BRANCH   1  27
ATOM     25  C   UNL     1      -7.738  -2.518 124.905  0.00  0.00    +0.000 A 
ATOM     26  C   UNL     1      -7.308  -2.421 126.248  0.00  0.00    +0.000 A 
ATOM     27  C   UNL     1      -5.912  -2.347 126.485  0.00  0.00    +0.000 A 
ATOM     28  C   UNL     1      -4.986  -2.528 125.438  0.00  0.00    +0.000 A 
ATOM     29  C   UNL     1      -5.420  -2.691 124.133  0.00  0.00    +0.000 A 
ATOM     30  C   UNL     1      -6.781  -2.665 123.870  0.00  0.00    +0.000 A 
BRANCH  25  31
ATOM     31  C   UNL     1      -9.183  -2.434 124.488  0.00  0.00    +0.000 C 
ATOM     32  C   UNL     1      -9.363  -3.060 123.104  0.00  0.00    +0.000 C 
BRANCH  31  33
ATOM     33  O   UNL     1      -9.671  -1.085 124.443  0.00  0.00    +0.000 OA
BRANCH  33  34
ATOM     34  C   UNL     1      -9.233  -0.458 123.245  0.00  0.00    +0.000 C 
BRANCH  34  35
ATOM     35  C   UNL     1      -9.792   0.933 123.190  0.00  0.00    +0.000 C 
BRANCH  35  36
ATOM     36  C   UNL     1      -8.633   1.902 123.052  0.00  0.00    +0.000 C 
BRANCH  36  37
ATOM     37  C   UNL     1      -7.539   1.521 124.024  0.00  0.00    +0.000 C 
BRANCH  37  39
ATOM     38  C   UNL     1      -7.928   1.198 126.454  0.00  0.00    +0.000 C 
ATOM     39  C   UNL     1      -7.747   2.223 125.353  0.00  0.00    +0.000 C 
ENDBRANCH  37  39
ENDBRANCH  36  37
ENDBRANCH  35  36
ENDBRANCH  34  35
ENDBRANCH  33  34
ENDBRANCH  31  33
ENDBRANCH  25  31
BRANCH  26  40
ATOM     40  O   UNL     1      -8.085  -2.351 127.384  0.00  0.00    +0.000 OA
ATOM     41  C   UNL     1      -8.651  -3.482 128.027  0.00  0.00    +0.000 C 
ENDBRANCH  26  40
ENDBRANCH   1  27
TORSDOF 13
ENDMDL
MODEL 5
REMARK VINA RESULT:      -7.5      4.117      5.712
REMARK  Name = Lusutrombopag
REMARK  17 active torsions:
REMARK  status: ('A' for Active; 'I' for Inactive)
REMARK    1  A    between atoms: C_1  and  C_2
REMARK    2  A    between atoms: C_2  and  C_3
REMARK    3  A    between atoms: C_3  and  C_4
REMARK    4  A    between atoms: C_4  and  C_5
REMARK    5  A    between atoms: C_5  and  C_6
REMARK    6  A    between atoms: C_6  and  O_7
REMARK    7  A    between atoms: O_7  and  C_8
REMARK    8  A    between atoms: C_8  and  C_9
REMARK    9  A    between atoms: C_8  and  C_10
REMARK   10  A    between atoms: C_11  and  O_12
REMARK   11  A    between atoms: O_12  and  C_13
REMARK   12  A    between atoms: C_14  and  C_18
REMARK   13  A    between atoms: C_23  and  C_25
REMARK   14  A    between atoms: C_29  and  C_30
REMARK   15  A    between atoms: C_31  and  C_32
REMARK   16  A    between atoms: C_31  and  C_33
REMARK   17  A    between atoms: C_33  and  O_34
REMARK                            x       y       z     vdW  Elec       q    Type
REMARK                         _______ _______ _______ _____ _____    ______ ____
ROOT
ATOM      1  C   UNL     1      -5.662  -1.786 128.986  0.00  0.00    +0.000 A 
ATOM      2  C   UNL     1      -4.956  -2.648 129.798  0.00  0.00    +0.000 A 
ATOM      3  S   UNL     1      -3.947  -1.730 130.860  0.00  0.00    +0.000 S 
ATOM      4  C   UNL     1      -4.532  -0.289 130.150  0.00  0.00    +0.000 A 
ATOM      5  N   UNL     1      -4.069   0.901 130.662  0.00  0.00    +0.000 N 
ATOM      6  C   UNL     1      -4.572   2.094 130.168  0.00  0.00    +0.000 C 
ATOM      7  O   UNL     1      -5.400   2.243 129.271  0.00  0.00    +0.000 OA
ATOM      8  N   UNL     1      -5.382  -0.448 129.174  0.00  0.00    +0.000 NA
ATOM      9  H   UNL     1      -3.391   0.855 131.410  0.00  0.00    +0.000 HD
ENDROOT
BRANCH   6  10
ATOM     10  C   UNL     1      -4.009   3.354 130.700  0.00  0.00    +0.000 A 
ATOM     11  C   UNL     1      -4.572   3.981 131.813  0.00  0.00    +0.000 A 
ATOM     12  C   UNL     1      -4.291   5.330 132.107  0.00  0.00    +0.000 A 
ATOM     13 CL   UNL     1      -5.230   6.003 133.415  0.00  0.00    +0.000 Cl
ATOM     14  C   UNL     1      -3.409   6.111 131.309  0.00  0.00    +0.000 A 
ATOM     15  C   UNL     1      -2.984   5.445 130.104  0.00  0.00    +0.000 A 
ATOM     16 CL   UNL     1      -2.423   6.129 128.588  0.00  0.00    +0.000 Cl
ATOM     17  C   UNL     1      -3.178   4.077 129.879  0.00  0.00    +0.000 A 
BRANCH  14  18
ATOM     18  C   UNL     1      -3.000   7.487 131.862  0.00  0.00    +0.000 C 
ATOM     19  C   UNL     1      -1.872   7.859 132.515  0.00  0.00    +0.000 C 
ATOM     20  C   UNL     1      -0.819   6.861 132.808  0.00  0.00    +0.000 C 
BRANCH  19  21
ATOM     21  C   UNL     1      -1.474   9.190 133.067  0.00  0.00    +0.000 C 
ATOM     22  O   UNL     1      -0.281   9.499 133.193  0.00  0.00    +0.000 OA
BRANCH  21  23
ATOM     23  O   UNL     1      -2.443  10.030 133.439  0.00  0.00    +0.000 OA
ATOM     24  H   UNL     1      -2.174  10.932 133.668  0.00  0.00    +0.000 HD
ENDBRANCH  21  23
ENDBRANCH  19  21
ENDBRANCH  14  18
ENDBRANCH   6  10
BRANCH   1  27
ATOM     25  C   UNL     1      -7.223  -2.850 125.730  0.00  0.00    +0.000 A 
ATOM     26  C   UNL     1      -6.354  -2.144 126.593  0.00  0.00    +0.000 A 
ATOM     27  C   UNL     1      -6.641  -2.178 127.982  0.00  0.00    +0.000 A 
ATOM     28  C   UNL     1      -7.833  -2.754 128.464  0.00  0.00    +0.000 A 
ATOM     29  C   UNL     1      -8.712  -3.385 127.599  0.00  0.00    +0.000 A 
ATOM     30  C   UNL     1      -8.397  -3.448 126.251  0.00  0.00    +0.000 A 
BRANCH  25  31
ATOM     31  C   UNL     1      -6.954  -3.045 124.261  0.00  0.00    +0.000 C 
ATOM     32  C   UNL     1      -5.601  -3.732 124.066  0.00  0.00    +0.000 C 
BRANCH  31  33
ATOM     33  O   UNL     1      -6.944  -1.810 123.529  0.00  0.00    +0.000 OA
BRANCH  33  34
ATOM     34  C   UNL     1      -7.983  -1.823 122.558  0.00  0.00    +0.000 C 
BRANCH  34  35
ATOM     35  C   UNL     1      -9.268  -1.413 123.214  0.00  0.00    +0.000 C 
BRANCH  35  36
ATOM     36  C   UNL     1      -9.443   0.080 123.016  0.00  0.00    +0.000 C 
BRANCH  36  37
ATOM     37  C   UNL     1      -8.919   0.814 124.230  0.00  0.00    +0.000 C 
BRANCH  37  39
ATOM     38  C   UNL     1      -8.813   0.846 126.710  0.00  0.00    +0.000 C 
ATOM     39  C   UNL     1      -9.349   0.106 125.502  0.00  0.00    +0.000 C 
ENDBRANCH  37  39
ENDBRANCH  36  37
ENDBRANCH  35  36
ENDBRANCH  34  35
ENDBRANCH  33  34
ENDBRANCH  31  33
ENDBRANCH  25  31
BRANCH  26  40
ATOM     40  O   UNL     1      -5.218  -1.438 126.262  0.00  0.00    +0.000 OA
ATOM     41  C   UNL     1      -5.225  -0.096 125.804  0.00  0.00    +0.000 C 
ENDBRANCH  26  40
ENDBRANCH   1  27
TORSDOF 13
ENDMDL
MODEL 6
REMARK VINA RESULT:      -7.4      3.803      5.678
REMARK  Name = Lusutrombopag
REMARK  17 active torsions:
REMARK  status: ('A' for Active; 'I' for Inactive)
REMARK    1  A    between atoms: C_1  and  C_2
REMARK    2  A    between atoms: C_2  and  C_3
REMARK    3  A    between atoms: C_3  and  C_4
REMARK    4  A    between atoms: C_4  and  C_5
REMARK    5  A    between atoms: C_5  and  C_6
REMARK    6  A    between atoms: C_6  and  O_7
REMARK    7  A    between atoms: O_7  and  C_8
REMARK    8  A    between atoms: C_8  and  C_9
REMARK    9  A    between atoms: C_8  and  C_10
REMARK   10  A    between atoms: C_11  and  O_12
REMARK   11  A    between atoms: O_12  and  C_13
REMARK   12  A    between atoms: C_14  and  C_18
REMARK   13  A    between atoms: C_23  and  C_25
REMARK   14  A    between atoms: C_29  and  C_30
REMARK   15  A    between atoms: C_31  and  C_32
REMARK   16  A    between atoms: C_31  and  C_33
REMARK   17  A    between atoms: C_33  and  O_34
REMARK                            x       y       z     vdW  Elec       q    Type
REMARK                         _______ _______ _______ _____ _____    ______ ____
ROOT
ATOM      1  C   UNL     1      -5.459  -1.812 127.902  0.00  0.00    +0.000 A 
ATOM      2  C   UNL     1      -5.251  -2.658 128.971  0.00  0.00    +0.000 A 
ATOM      3  S   UNL     1      -4.718  -1.734 130.331  0.00  0.00    +0.000 S 
ATOM      4  C   UNL     1      -4.810  -0.313 129.387  0.00  0.00    +0.000 A 
ATOM      5  N   UNL     1      -4.508   0.879 130.006  0.00  0.00    +0.000 N 
ATOM      6  C   UNL     1      -4.641   2.063 129.300  0.00  0.00    +0.000 C 
ATOM      7  O   UNL     1      -4.986   2.202 128.127  0.00  0.00    +0.000 OA
ATOM      8  N   UNL     1      -5.168  -0.485 128.145  0.00  0.00    +0.000 NA
ATOM      9  H   UNL     1      -4.224   0.842 130.975  0.00  0.00    +0.000 HD
ENDROOT
BRANCH   6  10
ATOM     10  C   UNL     1      -4.251   3.318 129.977  0.00  0.00    +0.000 A 
ATOM     11  C   UNL     1      -5.071   3.898 130.948  0.00  0.00    +0.000 A 
ATOM     12  C   UNL     1      -4.903   5.243 131.332  0.00  0.00    +0.000 A 
ATOM     13 CL   UNL     1      -6.134   5.853 132.408  0.00  0.00    +0.000 Cl
ATOM     14  C   UNL     1      -3.887   6.068 130.775  0.00  0.00    +0.000 A 
ATOM     15  C   UNL     1      -3.180   5.451 129.684  0.00  0.00    +0.000 A 
ATOM     16 CL   UNL     1      -2.309   6.194 128.353  0.00  0.00    +0.000 Cl
ATOM     17  C   UNL     1      -3.277   4.085 129.386  0.00  0.00    +0.000 A 
BRANCH  14  18
ATOM     18  C   UNL     1      -3.654   7.436 131.442  0.00  0.00    +0.000 C 
ATOM     19  C   UNL     1      -2.610   7.871 132.190  0.00  0.00    +0.000 C 
ATOM     20  C   UNL     1      -1.479   6.963 132.484  0.00  0.00    +0.000 C 
BRANCH  19  21
ATOM     21  C   UNL     1      -2.385   9.192 132.850  0.00  0.00    +0.000 C 
ATOM     22  O   UNL     1      -2.311  10.235 132.185  0.00  0.00    +0.000 OA
BRANCH  21  23
ATOM     23  O   UNL     1      -2.246   9.214 134.178  0.00  0.00    +0.000 OA
ATOM     24  H   UNL     1      -2.078   8.364 134.613  0.00  0.00    +0.000 HD
ENDBRANCH  21  23
ENDBRANCH  19  21
ENDBRANCH  14  18
ENDBRANCH   6  10
BRANCH   1  27
ATOM     25  C   UNL     1      -7.706  -2.390 124.938  0.00  0.00    +0.000 A 
ATOM     26  C   UNL     1      -7.326  -2.336 126.298  0.00  0.00    +0.000 A 
ATOM     27  C   UNL     1      -5.943  -2.210 126.588  0.00  0.00    +0.000 A 
ATOM     28  C   UNL     1      -4.976  -2.299 125.567  0.00  0.00    +0.000 A 
ATOM     29  C   UNL     1      -5.358  -2.421 124.241  0.00  0.00    +0.000 A 
ATOM     30  C   UNL     1      -6.710  -2.445 123.932  0.00  0.00    +0.000 A 
BRANCH  25  31
ATOM     31  C   UNL     1      -9.138  -2.353 124.475  0.00  0.00    +0.000 C 
ATOM     32  C   UNL     1      -9.257  -2.999 123.093  0.00  0.00    +0.000 C 
BRANCH  31  33
ATOM     33  O   UNL     1      -9.664  -1.019 124.398  0.00  0.00    +0.000 OA
BRANCH  33  34
ATOM     34  C   UNL     1      -9.561  -0.542 123.063  0.00  0.00    +0.000 C 
BRANCH  34  35
ATOM     35  C   UNL     1      -9.455   0.954 123.088  0.00  0.00    +0.000 C 
BRANCH  35  36
ATOM     36  C   UNL     1      -8.412   1.337 124.121  0.00  0.00    +0.000 C 
BRANCH  36  37
ATOM     37  C   UNL     1      -7.035   1.255 123.501  0.00  0.00    +0.000 C 
BRANCH  37  39
ATOM     38  C   UNL     1      -6.497   3.676 123.603  0.00  0.00    +0.000 C 
ATOM     39  C   UNL     1      -6.751   2.500 122.682  0.00  0.00    +0.000 C 
ENDBRANCH  37  39
ENDBRANCH  36  37
ENDBRANCH  35  36
ENDBRANCH  34  35
ENDBRANCH  33  34
ENDBRANCH  31  33
ENDBRANCH  25  31
BRANCH  26  40
ATOM     40  O   UNL     1      -8.142  -2.355 127.408  0.00  0.00    +0.000 OA
ATOM     41  C   UNL     1      -8.730  -3.531 127.939  0.00  0.00    +0.000 C 
ENDBRANCH  26  40
ENDBRANCH   1  27
TORSDOF 13
ENDMDL
MODEL 7
REMARK VINA RESULT:      -7.3      3.825      5.824
REMARK  Name = Lusutrombopag
REMARK  17 active torsions:
REMARK  status: ('A' for Active; 'I' for Inactive)
REMARK    1  A    between atoms: C_1  and  C_2
REMARK    2  A    between atoms: C_2  and  C_3
REMARK    3  A    between atoms: C_3  and  C_4
REMARK    4  A    between atoms: C_4  and  C_5
REMARK    5  A    between atoms: C_5  and  C_6
REMARK    6  A    between atoms: C_6  and  O_7
REMARK    7  A    between atoms: O_7  and  C_8
REMARK    8  A    between atoms: C_8  and  C_9
REMARK    9  A    between atoms: C_8  and  C_10
REMARK   10  A    between atoms: C_11  and  O_12
REMARK   11  A    between atoms: O_12  and  C_13
REMARK   12  A    between atoms: C_14  and  C_18
REMARK   13  A    between atoms: C_23  and  C_25
REMARK   14  A    between atoms: C_29  and  C_30
REMARK   15  A    between atoms: C_31  and  C_32
REMARK   16  A    between atoms: C_31  and  C_33
REMARK   17  A    between atoms: C_33  and  O_34
REMARK                            x       y       z     vdW  Elec       q    Type
REMARK                         _______ _______ _______ _____ _____    ______ ____
ROOT
ATOM      1  C   UNL     1      -5.912  -2.221 129.360  0.00  0.00    +0.000 A 
ATOM      2  C   UNL     1      -4.842  -3.089 129.414  0.00  0.00    +0.000 A 
ATOM      3  S   UNL     1      -3.693  -2.504 130.566  0.00  0.00    +0.000 S 
ATOM      4  C   UNL     1      -4.711  -1.167 130.883  0.00  0.00    +0.000 A 
ATOM      5  N   UNL     1      -4.300  -0.274 131.845  0.00  0.00    +0.000 N 
ATOM      6  C   UNL     1      -5.127   0.783 132.188  0.00  0.00    +0.000 C 
ATOM      7  O   UNL     1      -6.224   1.062 131.707  0.00  0.00    +0.000 OA
ATOM      8  N   UNL     1      -5.805  -1.113 130.176  0.00  0.00    +0.000 NA
ATOM      9  H   UNL     1      -3.409  -0.445 132.291  0.00  0.00    +0.000 HD
ENDROOT
BRANCH   6  10
ATOM     10  C   UNL     1      -4.629   1.756 133.184  0.00  0.00    +0.000 A 
ATOM     11  C   UNL     1      -5.506   2.421 134.043  0.00  0.00    +0.000 A 
ATOM     12  C   UNL     1      -5.108   3.586 134.728  0.00  0.00    +0.000 A 
ATOM     13 CL   UNL     1      -6.388   4.392 135.600  0.00  0.00    +0.000 Cl
ATOM     14  C   UNL     1      -3.800   4.128 134.603  0.00  0.00    +0.000 A 
ATOM     15  C   UNL     1      -3.003   3.478 133.596  0.00  0.00    +0.000 A 
ATOM     16 CL   UNL     1      -1.634   4.092 132.684  0.00  0.00    +0.000 Cl
ATOM     17  C   UNL     1      -3.364   2.261 133.004  0.00  0.00    +0.000 A 
BRANCH  14  18
ATOM     18  C   UNL     1      -3.415   5.257 135.577  0.00  0.00    +0.000 C 
ATOM     19  C   UNL     1      -3.262   6.584 135.350  0.00  0.00    +0.000 C 
ATOM     20  C   UNL     1      -3.452   7.131 133.988  0.00  0.00    +0.000 C 
BRANCH  19  21
ATOM     21  C   UNL     1      -2.876   7.682 136.288  0.00  0.00    +0.000 C 
ATOM     22  O   UNL     1      -3.689   8.141 137.103  0.00  0.00    +0.000 OA
BRANCH  21  23
ATOM     23  O   UNL     1      -1.635   8.168 136.209  0.00  0.00    +0.000 OA
ATOM     24  H   UNL     1      -1.279   8.587 137.006  0.00  0.00    +0.000 HD
ENDBRANCH  21  23
ENDBRANCH  19  21
ENDBRANCH  14  18
ENDBRANCH   6  10
BRANCH   1  27
ATOM     25  C   UNL     1      -8.351  -1.962 126.505  0.00  0.00    +0.000 A 
ATOM     26  C   UNL     1      -7.384  -1.529 127.440  0.00  0.00    +0.000 A 
ATOM     27  C   UNL     1      -7.098  -2.388 128.532  0.00  0.00    +0.000 A 
ATOM     28  C   UNL     1      -7.862  -3.549 128.762  0.00  0.00    +0.000 A 
ATOM     29  C   UNL     1      -8.854  -3.929 127.874  0.00  0.00    +0.000 A 
ATOM     30  C   UNL     1      -9.079  -3.152 126.747  0.00  0.00    +0.000 A 
BRANCH  25  31
ATOM     31  C   UNL     1      -8.636  -1.242 125.213  0.00  0.00    +0.000 C 
ATOM     32  C   UNL     1      -9.427   0.038 125.493  0.00  0.00    +0.000 C 
BRANCH  31  33
ATOM     33  O   UNL     1      -9.383  -2.041 124.283  0.00  0.00    +0.000 OA
BRANCH  33  34
ATOM     34  C   UNL     1      -8.578  -2.328 123.147  0.00  0.00    +0.000 C 
BRANCH  34  35
ATOM     35  C   UNL     1      -7.459  -1.332 123.079  0.00  0.00    +0.000 C 
BRANCH  35  36
ATOM     36  C   UNL     1      -6.212  -2.054 122.606  0.00  0.00    +0.000 C 
BRANCH  36  37
ATOM     37  C   UNL     1      -5.689  -2.938 123.716  0.00  0.00    +0.000 C 
BRANCH  37  39
ATOM     38  C   UNL     1      -4.241  -4.942 123.495  0.00  0.00    +0.000 C 
ATOM     39  C   UNL     1      -4.293  -3.432 123.383  0.00  0.00    +0.000 C 
ENDBRANCH  37  39
ENDBRANCH  36  37
ENDBRANCH  35  36
ENDBRANCH  34  35
ENDBRANCH  33  34
ENDBRANCH  31  33
ENDBRANCH  25  31
BRANCH  26  40
ATOM     40  O   UNL     1      -6.639  -0.370 127.415  0.00  0.00    +0.000 OA
ATOM     41  C   UNL     1      -5.538  -0.155 126.547  0.00  0.00    +0.000 C 
ENDBRANCH  26  40
ENDBRANCH   1  27
TORSDOF 13
ENDMDL
MODEL 8
REMARK VINA RESULT:      -7.2      6.704      9.621
REMARK  Name = Lusutrombopag
REMARK  17 active torsions:
REMARK  status: ('A' for Active; 'I' for Inactive)
REMARK    1  A    between atoms: C_1  and  C_2
REMARK    2  A    between atoms: C_2  and  C_3
REMARK    3  A    between atoms: C_3  and  C_4
REMARK    4  A    between atoms: C_4  and  C_5
REMARK    5  A    between atoms: C_5  and  C_6
REMARK    6  A    between atoms: C_6  and  O_7
REMARK    7  A    between atoms: O_7  and  C_8
REMARK    8  A    between atoms: C_8  and  C_9
REMARK    9  A    between atoms: C_8  and  C_10
REMARK   10  A    between atoms: C_11  and  O_12
REMARK   11  A    between atoms: O_12  and  C_13
REMARK   12  A    between atoms: C_14  and  C_18
REMARK   13  A    between atoms: C_23  and  C_25
REMARK   14  A    between atoms: C_29  and  C_30
REMARK   15  A    between atoms: C_31  and  C_32
REMARK   16  A    between atoms: C_31  and  C_33
REMARK   17  A    between atoms: C_33  and  O_34
REMARK                            x       y       z     vdW  Elec       q    Type
REMARK                         _______ _______ _______ _____ _____    ______ ____
ROOT
ATOM      1  C   UNL     1      -4.889   3.908 131.482  0.00  0.00    +0.000 A 
ATOM      2  C   UNL     1      -4.216   2.877 132.103  0.00  0.00    +0.000 A 
ATOM      3  S   UNL     1      -2.817   3.509 132.897  0.00  0.00    +0.000 S 
ATOM      4  C   UNL     1      -3.228   5.075 132.350  0.00  0.00    +0.000 A 
ATOM      5  N   UNL     1      -2.416   6.115 132.740  0.00  0.00    +0.000 N 
ATOM      6  C   UNL     1      -2.753   7.410 132.382  0.00  0.00    +0.000 C 
ATOM      7  O   UNL     1      -3.713   7.775 131.707  0.00  0.00    +0.000 OA
ATOM      8  N   UNL     1      -4.294   5.147 131.602  0.00  0.00    +0.000 NA
ATOM      9  H   UNL     1      -1.610   5.890 133.307  0.00  0.00    +0.000 HD
ENDROOT
BRANCH   6  10
ATOM     10  C   UNL     1      -1.827   8.496 132.769  0.00  0.00    +0.000 A 
ATOM     11  C   UNL     1      -0.732   8.249 133.599  0.00  0.00    +0.000 A 
ATOM     12  C   UNL     1      -0.067   9.303 134.258  0.00  0.00    +0.000 A 
ATOM     13 CL   UNL     1       1.148   8.795 135.403  0.00  0.00    +0.000 Cl
ATOM     14  C   UNL     1      -0.455  10.661 134.096  0.00  0.00    +0.000 A 
ATOM     15  C   UNL     1      -1.674  10.825 133.347  0.00  0.00    +0.000 A 
ATOM     16 CL   UNL     1      -2.831  12.145 133.369  0.00  0.00    +0.000 Cl
ATOM     17  C   UNL     1      -2.261   9.790 132.607  0.00  0.00    +0.000 A 
BRANCH  14  18
ATOM     18  C   UNL     1       0.489  11.731 134.674  0.00  0.00    +0.000 C 
ATOM     19  C   UNL     1       1.171  12.718 134.044  0.00  0.00    +0.000 C 
ATOM     20  C   UNL     1       1.077  12.865 132.574  0.00  0.00    +0.000 C 
BRANCH  19  21
ATOM     21  C   UNL     1       2.098  13.751 134.597  0.00  0.00    +0.000 C 
ATOM     22  O   UNL     1       2.151  13.977 135.815  0.00  0.00    +0.000 OA
BRANCH  21  23
ATOM     23  O   UNL     1       2.856  14.439 133.739  0.00  0.00    +0.000 OA
ATOM     24  H   UNL     1       3.008  14.035 132.871  0.00  0.00    +0.000 HD
ENDBRANCH  21  23
ENDBRANCH  19  21
ENDBRANCH  14  18
ENDBRANCH   6  10
BRANCH   1  27
ATOM     25  C   UNL     1      -8.516   4.145 130.504  0.00  0.00    +0.000 A 
ATOM     26  C   UNL     1      -7.401   3.951 131.351  0.00  0.00    +0.000 A 
ATOM     27  C   UNL     1      -6.134   3.781 130.737  0.00  0.00    +0.000 A 
ATOM     28  C   UNL     1      -6.015   3.649 129.340  0.00  0.00    +0.000 A 
ATOM     29  C   UNL     1      -7.126   3.774 128.522  0.00  0.00    +0.000 A 
ATOM     30  C   UNL     1      -8.358   4.039 129.100  0.00  0.00    +0.000 A 
BRANCH  25  31
ATOM     31  C   UNL     1      -9.888   4.506 131.009  0.00  0.00    +0.000 C 
ATOM     32  C   UNL     1     -10.912   3.484 130.510  0.00  0.00    +0.000 C 
BRANCH  31  33
ATOM     33  O   UNL     1     -10.310   5.812 130.588  0.00  0.00    +0.000 OA
BRANCH  33  34
ATOM     34  C   UNL     1     -11.017   6.448 131.644  0.00  0.00    +0.000 C 
BRANCH  34  35
ATOM     35  C   UNL     1     -12.318   6.974 131.112  0.00  0.00    +0.000 C 
BRANCH  35  36
ATOM     36  C   UNL     1     -12.253   6.946 129.597  0.00  0.00    +0.000 C 
BRANCH  36  37
ATOM     37  C   UNL     1     -12.182   8.361 129.070  0.00  0.00    +0.000 C 
BRANCH  37  39
ATOM     38  C   UNL     1     -10.547   7.295 127.536  0.00  0.00    +0.000 C 
ATOM     39  C   UNL     1     -10.902   8.566 128.281  0.00  0.00    +0.000 C 
ENDBRANCH  37  39
ENDBRANCH  36  37
ENDBRANCH  35  36
ENDBRANCH  34  35
ENDBRANCH  33  34
ENDBRANCH  31  33
ENDBRANCH  25  31
BRANCH  26  40
ATOM     40  O   UNL     1      -7.375   3.938 132.729  0.00  0.00    +0.000 OA
ATOM     41  C   UNL     1      -7.753   2.822 133.518  0.00  0.00    +0.000 C 
ENDBRANCH  26  40
ENDBRANCH   1  27
TORSDOF 13
ENDMDL
MODEL 9
REMARK VINA RESULT:      -7.1      4.383      6.558
REMARK  Name = Lusutrombopag
REMARK  17 active torsions:
REMARK  status: ('A' for Active; 'I' for Inactive)
REMARK    1  A    between atoms: C_1  and  C_2
REMARK    2  A    between atoms: C_2  and  C_3
REMARK    3  A    between atoms: C_3  and  C_4
REMARK    4  A    between atoms: C_4  and  C_5
REMARK    5  A    between atoms: C_5  and  C_6
REMARK    6  A    between atoms: C_6  and  O_7
REMARK    7  A    between atoms: O_7  and  C_8
REMARK    8  A    between atoms: C_8  and  C_9
REMARK    9  A    between atoms: C_8  and  C_10
REMARK   10  A    between atoms: C_11  and  O_12
REMARK   11  A    between atoms: O_12  and  C_13
REMARK   12  A    between atoms: C_14  and  C_18
REMARK   13  A    between atoms: C_23  and  C_25
REMARK   14  A    between atoms: C_29  and  C_30
REMARK   15  A    between atoms: C_31  and  C_32
REMARK   16  A    between atoms: C_31  and  C_33
REMARK   17  A    between atoms: C_33  and  O_34
REMARK                            x       y       z     vdW  Elec       q    Type
REMARK                         _______ _______ _______ _____ _____    ______ ____
ROOT
ATOM      1  C   UNL     1      -8.138   1.037 131.369  0.00  0.00    +0.000 A 
ATOM      2  C   UNL     1      -9.330   1.686 131.611  0.00  0.00    +0.000 A 
ATOM      3  S   UNL     1      -9.006   3.332 132.028  0.00  0.00    +0.000 S 
ATOM      4  C   UNL     1      -7.332   3.035 131.852  0.00  0.00    +0.000 A 
ATOM      5  N   UNL     1      -6.478   4.097 132.040  0.00  0.00    +0.000 N 
ATOM      6  C   UNL     1      -5.120   3.921 131.835  0.00  0.00    +0.000 C 
ATOM      7  O   UNL     1      -4.539   2.885 131.516  0.00  0.00    +0.000 OA
ATOM      8  N   UNL     1      -7.008   1.810 131.546  0.00  0.00    +0.000 NA
ATOM      9  H   UNL     1      -6.887   4.985 132.296  0.00  0.00    +0.000 HD
ENDROOT
BRANCH   6  10
ATOM     10  C   UNL     1      -4.226   5.067 132.103  0.00  0.00    +0.000 A 
ATOM     11  C   UNL     1      -4.021   5.532 133.404  0.00  0.00    +0.000 A 
ATOM     12  C   UNL     1      -3.479   6.812 133.641  0.00  0.00    +0.000 A 
ATOM     13 CL   UNL     1      -3.476   7.303 135.315  0.00  0.00    +0.000 Cl
ATOM     14  C   UNL     1      -3.093   7.679 132.581  0.00  0.00    +0.000 A 
ATOM     15  C   UNL     1      -3.467   7.194 131.278  0.00  0.00    +0.000 A 
ATOM     16 CL   UNL     1      -3.749   8.085 129.792  0.00  0.00    +0.000 Cl
ATOM     17  C   UNL     1      -3.900   5.882 131.046  0.00  0.00    +0.000 A 
BRANCH  14  18
ATOM     18  C   UNL     1      -2.301   8.942 132.966  0.00  0.00    +0.000 C 
ATOM     19  C   UNL     1      -0.978   9.092 133.219  0.00  0.00    +0.000 C 
ATOM     20  C   UNL     1      -0.074   7.922 133.164  0.00  0.00    +0.000 C 
BRANCH  19  21
ATOM     21  C   UNL     1      -0.206  10.311 133.605  0.00  0.00    +0.000 C 
ATOM     22  O   UNL     1       0.340  10.398 134.715  0.00  0.00    +0.000 OA
BRANCH  21  23
ATOM     23  O   UNL     1      -0.137  11.315 132.727  0.00  0.00    +0.000 OA
ATOM     24  H   UNL     1      -0.113  11.072 131.789  0.00  0.00    +0.000 HD
ENDBRANCH  21  23
ENDBRANCH  19  21
ENDBRANCH  14  18
ENDBRANCH   6  10
BRANCH   1  27
ATOM     25  C   UNL     1      -7.388  -2.034 129.326  0.00  0.00    +0.000 A 
ATOM     26  C   UNL     1      -7.852  -0.727 129.597  0.00  0.00    +0.000 A 
ATOM     27  C   UNL     1      -7.997  -0.352 130.958  0.00  0.00    +0.000 A 
ATOM     28  C   UNL     1      -7.840  -1.297 131.992  0.00  0.00    +0.000 A 
ATOM     29  C   UNL     1      -7.450  -2.595 131.709  0.00  0.00    +0.000 A 
ATOM     30  C   UNL     1      -7.208  -2.951 130.390  0.00  0.00    +0.000 A 
BRANCH  25  31
ATOM     31  C   UNL     1      -7.026  -2.515 127.945  0.00  0.00    +0.000 C 
ATOM     32  C   UNL     1      -5.660  -1.957 127.540  0.00  0.00    +0.000 C 
BRANCH  31  33
ATOM     33  O   UNL     1      -7.986  -2.127 126.951  0.00  0.00    +0.000 OA
BRANCH  33  34
ATOM     34  C   UNL     1      -8.506  -3.285 126.312  0.00  0.00    +0.000 C 
BRANCH  34  35
ATOM     35  C   UNL     1      -8.393  -3.113 124.826  0.00  0.00    +0.000 C 
BRANCH  35  36
ATOM     36  C   UNL     1      -7.067  -3.701 124.383  0.00  0.00    +0.000 C 
BRANCH  36  37
ATOM     37  C   UNL     1      -6.159  -2.592 123.901  0.00  0.00    +0.000 C 
BRANCH  37  39
ATOM     38  C   UNL     1      -4.534  -4.468 123.862  0.00  0.00    +0.000 C 
ATOM     39  C   UNL     1      -4.947  -3.172 123.195  0.00  0.00    +0.000 C 
ENDBRANCH  37  39
ENDBRANCH  36  37
ENDBRANCH  35  36
ENDBRANCH  34  35
ENDBRANCH  33  34
ENDBRANCH  31  33
ENDBRANCH  25  31
BRANCH  26  40
ATOM     40  O   UNL     1      -8.158   0.269 128.695  0.00  0.00    +0.000 OA
ATOM     41  C   UNL     1      -7.194   1.124 128.102  0.00  0.00    +0.000 C 
ENDBRANCH  26  40
ENDBRANCH   1  27
TORSDOF 13
ENDMDL
