MODEL 1
REMARK VINA RESULT:      -9.1      0.000      0.000
REMARK  Name = Lutein
REMARK  22 active torsions:
REMARK  status: ('A' for Active; 'I' for Inactive)
REMARK    1  A    between atoms: C_1  and  C_2
REMARK    2  A    between atoms: C_2  and  C_3
REMARK    3  A    between atoms: C_4  and  C_5
REMARK    4  A    between atoms: C_6  and  C_7
REMARK    5  A    between atoms: C_6  and  C_8
REMARK    6  A    between atoms: C_9  and  C_10
REMARK    7  A    between atoms: C_11  and  C_12
REMARK    8  A    between atoms: C_14  and  O_15
REMARK    9  A    between atoms: C_17  and  C_18
REMARK   10  A    between atoms: C_17  and  C_19
REMARK   11  A    between atoms: C_20  and  C_21
REMARK   12  A    between atoms: C_22  and  C_23
REMARK   13  A    between atoms: C_24  and  C_25
REMARK   14  A    between atoms: C_24  and  C_26
REMARK   15  A    between atoms: C_27  and  C_28
REMARK   16  A    between atoms: C_29  and  C_30
REMARK   17  A    between atoms: C_29  and  C_31
REMARK   18  A    between atoms: C_32  and  C_33
REMARK   19  A    between atoms: C_34  and  C_35
REMARK   20  A    between atoms: C_37  and  O_38
REMARK   21  A    between atoms: C_40  and  C_41
REMARK   22  A    between atoms: C_40  and  C_42
REMARK                            x       y       z     vdW  Elec       q    Type
REMARK                         _______ _______ _______ _____ _____    ______ ____
ROOT
ATOM      1  C   UNL     1      -8.920   3.618 134.031  0.00  0.00    +0.000 C 
ATOM      2  C   UNL     1      -8.165   4.723 133.949  0.00  0.00    +0.000 C 
ENDROOT
BRANCH   1   5
ATOM      3  C   UNL     1      -6.961   1.542 133.595  0.00  0.00    +0.000 C 
ATOM      4  C   UNL     1      -8.169   1.677 132.691  0.00  0.00    +0.000 C 
ATOM      5  C   UNL     1      -9.055   2.669 132.935  0.00  0.00    +0.000 C 
BRANCH   4   6
ATOM      6  C   UNL     1      -8.374   0.757 131.566  0.00  0.00    +0.000 C 
ATOM      7  C   UNL     1      -7.458   0.544 130.607  0.00  0.00    +0.000 C 
BRANCH   7   8
ATOM      8  C   UNL     1      -7.557  -0.296 129.438  0.00  0.00    +0.000 C 
ATOM      9  C   UNL     1      -7.187  -1.600 129.431  0.00  0.00    +0.000 C 
ATOM     10  C   UNL     1      -6.702  -2.361 130.650  0.00  0.00    +0.000 C 
BRANCH   9  11
ATOM     11  C   UNL     1      -7.255  -2.367 128.191  0.00  0.00    +0.000 C 
ATOM     12  C   UNL     1      -7.477  -1.821 126.980  0.00  0.00    +0.000 C 
BRANCH  12  13
ATOM     13  C   UNL     1      -7.352  -2.564 125.672  0.00  0.00    +0.000 C 
ATOM     14  C   UNL     1      -8.695  -2.628 124.992  0.00  0.00    +0.000 C 
ATOM     15  C   UNL     1      -9.829  -3.228 125.780  0.00  0.00    +0.000 C 
ATOM     16  C   UNL     1      -8.907  -2.188 123.741  0.00  0.00    +0.000 C 
ATOM     17  C   UNL     1      -7.879  -1.602 122.852  0.00  0.00    +0.000 C 
ATOM     18  C   UNL     1      -6.460  -1.504 123.376  0.00  0.00    +0.000 C 
ATOM     19  C   UNL     1      -6.154  -1.996 124.813  0.00  0.00    +0.000 C 
ATOM     20  C   UNL     1      -5.169  -3.178 124.647  0.00  0.00    +0.000 C 
ATOM     21  C   UNL     1      -5.467  -0.785 125.507  0.00  0.00    +0.000 C 
BRANCH  17  22
ATOM     22  O   UNL     1      -7.850  -2.414 121.681  0.00  0.00    +0.000 OA
ATOM     23  H   UNL     1      -7.134  -2.059 121.126  0.00  0.00    +0.000 HD
ENDBRANCH  17  22
ENDBRANCH  12  13
ENDBRANCH   9  11
ENDBRANCH   7   8
ENDBRANCH   4   6
ENDBRANCH   1   5
BRANCH   2  24
ATOM     24  C   UNL     1      -8.010   5.690 135.022  0.00  0.00    +0.000 C 
ATOM     25  C   UNL     1      -7.053   5.628 135.976  0.00  0.00    +0.000 C 
ATOM     26  C   UNL     1      -6.021   4.519 136.017  0.00  0.00    +0.000 C 
BRANCH  25  27
ATOM     27  C   UNL     1      -6.974   6.658 137.031  0.00  0.00    +0.000 C 
ATOM     28  C   UNL     1      -7.991   7.495 137.309  0.00  0.00    +0.000 C 
BRANCH  28  29
ATOM     29  C   UNL     1      -8.054   8.526 138.323  0.00  0.00    +0.000 C 
ATOM     30  C   UNL     1      -9.160   9.270 138.583  0.00  0.00    +0.000 C 
ATOM     31  C   UNL     1     -10.464   9.157 137.835  0.00  0.00    +0.000 C 
BRANCH  30  32
ATOM     32  C   UNL     1      -9.139  10.245 139.675  0.00  0.00    +0.000 C 
ATOM     33  C   UNL     1      -9.733  11.454 139.702  0.00  0.00    +0.000 C 
BRANCH  33  34
ATOM     34  C   UNL     1      -9.664  12.455 140.782  0.00  0.00    +0.000 C 
ATOM     35  C   UNL     1     -10.085  12.129 142.024  0.00  0.00    +0.000 C 
ATOM     36  C   UNL     1     -10.563  10.757 142.449  0.00  0.00    +0.000 C 
ATOM     37  C   UNL     1     -10.150  13.109 143.162  0.00  0.00    +0.000 C 
ATOM     38  C   UNL     1      -9.580  14.502 142.955  0.00  0.00    +0.000 C 
ATOM     39  C   UNL     1      -9.271  14.956 141.548  0.00  0.00    +0.000 C 
ATOM     40  C   UNL     1      -9.268  13.898 140.410  0.00  0.00    +0.000 C 
ATOM     41  C   UNL     1     -10.311  14.421 139.394  0.00  0.00    +0.000 C 
ATOM     42  C   UNL     1      -7.829  13.944 139.853  0.00  0.00    +0.000 C 
BRANCH  38  43
ATOM     43  O   UNL     1      -8.366  14.613 143.709  0.00  0.00    +0.000 OA
ATOM     44  H   UNL     1      -7.778  13.910 143.382  0.00  0.00    +0.000 HD
ENDBRANCH  38  43
ENDBRANCH  33  34
ENDBRANCH  30  32
ENDBRANCH  28  29
ENDBRANCH  25  27
ENDBRANCH   2  24
TORSDOF 12
ENDMDL
MODEL 2
REMARK VINA RESULT:      -9.0      0.930      1.535
REMARK  Name = Lutein
REMARK  22 active torsions:
REMARK  status: ('A' for Active; 'I' for Inactive)
REMARK    1  A    between atoms: C_1  and  C_2
REMARK    2  A    between atoms: C_2  and  C_3
REMARK    3  A    between atoms: C_4  and  C_5
REMARK    4  A    between atoms: C_6  and  C_7
REMARK    5  A    between atoms: C_6  and  C_8
REMARK    6  A    between atoms: C_9  and  C_10
REMARK    7  A    between atoms: C_11  and  C_12
REMARK    8  A    between atoms: C_14  and  O_15
REMARK    9  A    between atoms: C_17  and  C_18
REMARK   10  A    between atoms: C_17  and  C_19
REMARK   11  A    between atoms: C_20  and  C_21
REMARK   12  A    between atoms: C_22  and  C_23
REMARK   13  A    between atoms: C_24  and  C_25
REMARK   14  A    between atoms: C_24  and  C_26
REMARK   15  A    between atoms: C_27  and  C_28
REMARK   16  A    between atoms: C_29  and  C_30
REMARK   17  A    between atoms: C_29  and  C_31
REMARK   18  A    between atoms: C_32  and  C_33
REMARK   19  A    between atoms: C_34  and  C_35
REMARK   20  A    between atoms: C_37  and  O_38
REMARK   21  A    between atoms: C_40  and  C_41
REMARK   22  A    between atoms: C_40  and  C_42
REMARK                            x       y       z     vdW  Elec       q    Type
REMARK                         _______ _______ _______ _____ _____    ______ ____
ROOT
ATOM      1  C   UNL     1      -8.227   3.551 134.128  0.00  0.00    +0.000 C 
ATOM      2  C   UNL     1      -7.781   4.812 134.230  0.00  0.00    +0.000 C 
ENDROOT
BRANCH   1   5
ATOM      3  C   UNL     1      -6.218   1.477 134.118  0.00  0.00    +0.000 C 
ATOM      4  C   UNL     1      -7.075   1.739 132.896  0.00  0.00    +0.000 C 
ATOM      5  C   UNL     1      -8.000   2.725 132.951  0.00  0.00    +0.000 C 
BRANCH   4   6
ATOM      6  C   UNL     1      -6.905   0.946 131.673  0.00  0.00    +0.000 C 
ATOM      7  C   UNL     1      -7.919   0.622 130.853  0.00  0.00    +0.000 C 
BRANCH   7   8
ATOM      8  C   UNL     1      -7.885  -0.180 129.655  0.00  0.00    +0.000 C 
ATOM      9  C   UNL     1      -7.664  -1.517 129.665  0.00  0.00    +0.000 C 
ATOM     10  C   UNL     1      -7.504  -2.350 130.922  0.00  0.00    +0.000 C 
BRANCH   9  11
ATOM     11  C   UNL     1      -7.578  -2.249 128.405  0.00  0.00    +0.000 C 
ATOM     12  C   UNL     1      -7.712  -1.678 127.193  0.00  0.00    +0.000 C 
BRANCH  12  13
ATOM     13  C   UNL     1      -7.430  -2.374 125.884  0.00  0.00    +0.000 C 
ATOM     14  C   UNL     1      -8.716  -2.574 125.125  0.00  0.00    +0.000 C 
ATOM     15  C   UNL     1      -9.819  -3.312 125.835  0.00  0.00    +0.000 C 
ATOM     16  C   UNL     1      -8.903  -2.134 123.870  0.00  0.00    +0.000 C 
ATOM     17  C   UNL     1      -7.899  -1.418 123.052  0.00  0.00    +0.000 C 
ATOM     18  C   UNL     1      -6.532  -1.174 123.661  0.00  0.00    +0.000 C 
ATOM     19  C   UNL     1      -6.256  -1.659 125.107  0.00  0.00    +0.000 C 
ATOM     20  C   UNL     1      -5.137  -2.721 124.982  0.00  0.00    +0.000 C 
ATOM     21  C   UNL     1      -5.750  -0.394 125.857  0.00  0.00    +0.000 C 
BRANCH  17  22
ATOM     22  O   UNL     1      -7.712  -2.197 121.873  0.00  0.00    +0.000 OA
ATOM     23  H   UNL     1      -8.476  -2.006 121.301  0.00  0.00    +0.000 HD
ENDBRANCH  17  22
ENDBRANCH  12  13
ENDBRANCH   9  11
ENDBRANCH   7   8
ENDBRANCH   4   6
ENDBRANCH   1   5
BRANCH   2  24
ATOM     24  C   UNL     1      -7.992   5.662 135.389  0.00  0.00    +0.000 C 
ATOM     25  C   UNL     1      -7.155   5.734 136.449  0.00  0.00    +0.000 C 
ATOM     26  C   UNL     1      -5.882   4.917 136.532  0.00  0.00    +0.000 C 
BRANCH  25  27
ATOM     27  C   UNL     1      -7.454   6.629 137.585  0.00  0.00    +0.000 C 
ATOM     28  C   UNL     1      -7.914   7.884 137.421  0.00  0.00    +0.000 C 
BRANCH  28  29
ATOM     29  C   UNL     1      -8.265   8.851 138.439  0.00  0.00    +0.000 C 
ATOM     30  C   UNL     1      -9.519   9.335 138.628  0.00  0.00    +0.000 C 
ATOM     31  C   UNL     1     -10.715   8.966 137.787  0.00  0.00    +0.000 C 
BRANCH  30  32
ATOM     32  C   UNL     1      -9.782  10.263 139.730  0.00  0.00    +0.000 C 
ATOM     33  C   UNL     1      -9.303  11.514 139.875  0.00  0.00    +0.000 C 
BRANCH  33  34
ATOM     34  C   UNL     1      -9.525  12.425 141.012  0.00  0.00    +0.000 C 
ATOM     35  C   UNL     1     -10.325  13.503 140.858  0.00  0.00    +0.000 C 
ATOM     36  C   UNL     1     -11.110  13.833 139.606  0.00  0.00    +0.000 C 
ATOM     37  C   UNL     1     -10.531  14.543 141.925  0.00  0.00    +0.000 C 
ATOM     38  C   UNL     1      -9.928  14.303 143.299  0.00  0.00    +0.000 C 
ATOM     39  C   UNL     1      -8.891  13.217 143.456  0.00  0.00    +0.000 C 
ATOM     40  C   UNL     1      -8.696  12.203 142.293  0.00  0.00    +0.000 C 
ATOM     41  C   UNL     1      -7.203  12.336 141.912  0.00  0.00    +0.000 C 
ATOM     42  C   UNL     1      -9.023  10.834 142.926  0.00  0.00    +0.000 C 
BRANCH  38  43
ATOM     43  O   UNL     1     -10.989  14.008 144.215  0.00  0.00    +0.000 OA
ATOM     44  H   UNL     1     -11.790  14.424 143.847  0.00  0.00    +0.000 HD
ENDBRANCH  38  43
ENDBRANCH  33  34
ENDBRANCH  30  32
ENDBRANCH  28  29
ENDBRANCH  25  27
ENDBRANCH   2  24
TORSDOF 12
ENDMDL
MODEL 3
REMARK VINA RESULT:      -8.9      1.425      2.341
REMARK  Name = Lutein
REMARK  22 active torsions:
REMARK  status: ('A' for Active; 'I' for Inactive)
REMARK    1  A    between atoms: C_1  and  C_2
REMARK    2  A    between atoms: C_2  and  C_3
REMARK    3  A    between atoms: C_4  and  C_5
REMARK    4  A    between atoms: C_6  and  C_7
REMARK    5  A    between atoms: C_6  and  C_8
REMARK    6  A    between atoms: C_9  and  C_10
REMARK    7  A    between atoms: C_11  and  C_12
REMARK    8  A    between atoms: C_14  and  O_15
REMARK    9  A    between atoms: C_17  and  C_18
REMARK   10  A    between atoms: C_17  and  C_19
REMARK   11  A    between atoms: C_20  and  C_21
REMARK   12  A    between atoms: C_22  and  C_23
REMARK   13  A    between atoms: C_24  and  C_25
REMARK   14  A    between atoms: C_24  and  C_26
REMARK   15  A    between atoms: C_27  and  C_28
REMARK   16  A    between atoms: C_29  and  C_30
REMARK   17  A    between atoms: C_29  and  C_31
REMARK   18  A    between atoms: C_32  and  C_33
REMARK   19  A    between atoms: C_34  and  C_35
REMARK   20  A    between atoms: C_37  and  O_38
REMARK   21  A    between atoms: C_40  and  C_41
REMARK   22  A    between atoms: C_40  and  C_42
REMARK                            x       y       z     vdW  Elec       q    Type
REMARK                         _______ _______ _______ _____ _____    ______ ____
ROOT
ATOM      1  C   UNL     1      -7.915   3.709 134.358  0.00  0.00    +0.000 C 
ATOM      2  C   UNL     1      -7.470   4.969 134.480  0.00  0.00    +0.000 C 
ENDROOT
BRANCH   1   5
ATOM      3  C   UNL     1      -9.810   2.346 132.659  0.00  0.00    +0.000 C 
ATOM      4  C   UNL     1      -8.318   2.155 132.475  0.00  0.00    +0.000 C 
ATOM      5  C   UNL     1      -7.473   2.814 133.299  0.00  0.00    +0.000 C 
BRANCH   4   6
ATOM      6  C   UNL     1      -7.796   1.269 131.427  0.00  0.00    +0.000 C 
ATOM      7  C   UNL     1      -8.317   1.198 130.190  0.00  0.00    +0.000 C 
BRANCH   7   8
ATOM      8  C   UNL     1      -7.922   0.344 129.097  0.00  0.00    +0.000 C 
ATOM      9  C   UNL     1      -8.061   0.697 127.796  0.00  0.00    +0.000 C 
ATOM     10  C   UNL     1      -8.566   2.046 127.322  0.00  0.00    +0.000 C 
BRANCH   9  11
ATOM     11  C   UNL     1      -7.700  -0.250 126.744  0.00  0.00    +0.000 C 
ATOM     12  C   UNL     1      -8.525  -0.610 125.743  0.00  0.00    +0.000 C 
BRANCH  12  13
ATOM     13  C   UNL     1      -8.108  -1.425 124.543  0.00  0.00    +0.000 C 
ATOM     14  C   UNL     1      -6.746  -0.984 124.075  0.00  0.00    +0.000 C 
ATOM     15  C   UNL     1      -6.577   0.476 123.748  0.00  0.00    +0.000 C 
ATOM     16  C   UNL     1      -5.708  -1.825 123.938  0.00  0.00    +0.000 C 
ATOM     17  C   UNL     1      -5.743  -3.281 124.201  0.00  0.00    +0.000 C 
ATOM     18  C   UNL     1      -7.060  -3.891 124.643  0.00  0.00    +0.000 C 
ATOM     19  C   UNL     1      -8.293  -2.969 124.818  0.00  0.00    +0.000 C 
ATOM     20  C   UNL     1      -9.326  -3.454 123.773  0.00  0.00    +0.000 C 
ATOM     21  C   UNL     1      -8.787  -3.244 126.267  0.00  0.00    +0.000 C 
BRANCH  17  22
ATOM     22  O   UNL     1      -5.360  -3.919 122.986  0.00  0.00    +0.000 OA
ATOM     23  H   UNL     1      -6.175  -4.297 122.612  0.00  0.00    +0.000 HD
ENDBRANCH  17  22
ENDBRANCH  12  13
ENDBRANCH   9  11
ENDBRANCH   7   8
ENDBRANCH   4   6
ENDBRANCH   1   5
BRANCH   2  24
ATOM     24  C   UNL     1      -7.893   5.888 135.523  0.00  0.00    +0.000 C 
ATOM     25  C   UNL     1      -7.250   6.059 136.701  0.00  0.00    +0.000 C 
ATOM     26  C   UNL     1      -5.991   5.291 137.054  0.00  0.00    +0.000 C 
BRANCH  25  27
ATOM     27  C   UNL     1      -7.755   7.017 137.703  0.00  0.00    +0.000 C 
ATOM     28  C   UNL     1      -8.789   7.845 137.462  0.00  0.00    +0.000 C 
BRANCH  28  29
ATOM     29  C   UNL     1      -9.395   8.809 138.355  0.00  0.00    +0.000 C 
ATOM     30  C   UNL     1      -8.754   9.903 138.842  0.00  0.00    +0.000 C 
ATOM     31  C   UNL     1      -7.315  10.251 138.554  0.00  0.00    +0.000 C 
BRANCH  30  32
ATOM     32  C   UNL     1      -9.478  10.852 139.689  0.00  0.00    +0.000 C 
ATOM     33  C   UNL     1      -9.058  12.065 140.100  0.00  0.00    +0.000 C 
BRANCH  33  34
ATOM     34  C   UNL     1      -9.767  12.995 140.997  0.00  0.00    +0.000 C 
ATOM     35  C   UNL     1     -10.022  12.629 142.273  0.00  0.00    +0.000 C 
ATOM     36  C   UNL     1      -9.560  11.340 142.918  0.00  0.00    +0.000 C 
ATOM     37  C   UNL     1     -10.826  13.464 143.231  0.00  0.00    +0.000 C 
ATOM     38  C   UNL     1     -11.256  14.856 142.797  0.00  0.00    +0.000 C 
ATOM     39  C   UNL     1     -11.150  15.224 141.337  0.00  0.00    +0.000 C 
ATOM     40  C   UNL     1     -10.344  14.290 140.392  0.00  0.00    +0.000 C 
ATOM     41  C   UNL     1     -11.356  13.883 139.295  0.00  0.00    +0.000 C 
ATOM     42  C   UNL     1      -9.213  15.189 139.846  0.00  0.00    +0.000 C 
BRANCH  38  43
ATOM     43  O   UNL     1     -10.488  15.817 143.531  0.00  0.00    +0.000 OA
ATOM     44  H   UNL     1     -11.044  16.614 143.599  0.00  0.00    +0.000 HD
ENDBRANCH  38  43
ENDBRANCH  33  34
ENDBRANCH  30  32
ENDBRANCH  28  29
ENDBRANCH  25  27
ENDBRANCH   2  24
TORSDOF 12
ENDMDL
MODEL 4
REMARK VINA RESULT:      -8.8      1.524     18.171
REMARK  Name = Lutein
REMARK  22 active torsions:
REMARK  status: ('A' for Active; 'I' for Inactive)
REMARK    1  A    between atoms: C_1  and  C_2
REMARK    2  A    between atoms: C_2  and  C_3
REMARK    3  A    between atoms: C_4  and  C_5
REMARK    4  A    between atoms: C_6  and  C_7
REMARK    5  A    between atoms: C_6  and  C_8
REMARK    6  A    between atoms: C_9  and  C_10
REMARK    7  A    between atoms: C_11  and  C_12
REMARK    8  A    between atoms: C_14  and  O_15
REMARK    9  A    between atoms: C_17  and  C_18
REMARK   10  A    between atoms: C_17  and  C_19
REMARK   11  A    between atoms: C_20  and  C_21
REMARK   12  A    between atoms: C_22  and  C_23
REMARK   13  A    between atoms: C_24  and  C_25
REMARK   14  A    between atoms: C_24  and  C_26
REMARK   15  A    between atoms: C_27  and  C_28
REMARK   16  A    between atoms: C_29  and  C_30
REMARK   17  A    between atoms: C_29  and  C_31
REMARK   18  A    between atoms: C_32  and  C_33
REMARK   19  A    between atoms: C_34  and  C_35
REMARK   20  A    between atoms: C_37  and  O_38
REMARK   21  A    between atoms: C_40  and  C_41
REMARK   22  A    between atoms: C_40  and  C_42
REMARK                            x       y       z     vdW  Elec       q    Type
REMARK                         _______ _______ _______ _____ _____    ______ ____
ROOT
ATOM      1  C   UNL     1      -7.840   5.152 134.533  0.00  0.00    +0.000 C 
ATOM      2  C   UNL     1      -8.621   4.062 134.505  0.00  0.00    +0.000 C 
ENDROOT
BRANCH   1   5
ATOM      3  C   UNL     1      -5.865   5.016 136.634  0.00  0.00    +0.000 C 
ATOM      4  C   UNL     1      -6.941   6.082 136.643  0.00  0.00    +0.000 C 
ATOM      5  C   UNL     1      -7.845   6.101 135.638  0.00  0.00    +0.000 C 
BRANCH   4   6
ATOM      6  C   UNL     1      -7.010   7.074 137.724  0.00  0.00    +0.000 C 
ATOM      7  C   UNL     1      -7.888   8.091 137.741  0.00  0.00    +0.000 C 
BRANCH   7   8
ATOM      8  C   UNL     1      -8.025   9.144 138.716  0.00  0.00    +0.000 C 
ATOM      9  C   UNL     1      -9.199   9.772 138.967  0.00  0.00    +0.000 C 
ATOM     10  C   UNL     1     -10.523   9.404 138.325  0.00  0.00    +0.000 C 
BRANCH   9  11
ATOM     11  C   UNL     1      -9.244  10.875 139.922  0.00  0.00    +0.000 C 
ATOM     12  C   UNL     1      -8.565  12.028 139.770  0.00  0.00    +0.000 C 
BRANCH  12  13
ATOM     13  C   UNL     1      -8.752  13.251 140.636  0.00  0.00    +0.000 C 
ATOM     14  C   UNL     1     -10.220  13.562 140.768  0.00  0.00    +0.000 C 
ATOM     15  C   UNL     1     -10.993  13.754 139.491  0.00  0.00    +0.000 C 
ATOM     16  C   UNL     1     -10.842  13.679 141.953  0.00  0.00    +0.000 C 
ATOM     17  C   UNL     1     -10.199  13.539 143.278  0.00  0.00    +0.000 C 
ATOM     18  C   UNL     1      -8.708  13.263 143.318  0.00  0.00    +0.000 C 
ATOM     19  C   UNL     1      -7.936  13.118 141.982  0.00  0.00    +0.000 C 
ATOM     20  C   UNL     1      -6.917  14.284 141.963  0.00  0.00    +0.000 C 
ATOM     21  C   UNL     1      -7.215  11.745 142.090  0.00  0.00    +0.000 C 
BRANCH  17  22
ATOM     22  O   UNL     1     -10.428  14.764 143.967  0.00  0.00    +0.000 OA
ATOM     23  H   UNL     1      -9.560  15.199 144.038  0.00  0.00    +0.000 HD
ENDBRANCH  17  22
ENDBRANCH  12  13
ENDBRANCH   9  11
ENDBRANCH   7   8
ENDBRANCH   4   6
ENDBRANCH   1   5
BRANCH   2  24
ATOM     24  C   UNL     1      -8.641   3.098 133.418  0.00  0.00    +0.000 C 
ATOM     25  C   UNL     1      -7.693   2.155 133.213  0.00  0.00    +0.000 C 
ATOM     26  C   UNL     1      -6.489   2.007 134.122  0.00  0.00    +0.000 C 
BRANCH  25  27
ATOM     27  C   UNL     1      -7.797   1.217 132.078  0.00  0.00    +0.000 C 
ATOM     28  C   UNL     1      -7.995   1.627 130.811  0.00  0.00    +0.000 C 
BRANCH  28  29
ATOM     29  C   UNL     1      -8.093   0.822 129.612  0.00  0.00    +0.000 C 
ATOM     30  C   UNL     1      -7.030   0.465 128.846  0.00  0.00    +0.000 C 
ATOM     31  C   UNL     1      -5.605   0.883 129.111  0.00  0.00    +0.000 C 
BRANCH  30  32
ATOM     32  C   UNL     1      -7.230  -0.407 127.687  0.00  0.00    +0.000 C 
ATOM     33  C   UNL     1      -8.293  -0.435 126.861  0.00  0.00    +0.000 C 
BRANCH  33  34
ATOM     34  C   UNL     1      -8.515  -1.351 125.728  0.00  0.00    +0.000 C 
ATOM     35  C   UNL     1      -8.657  -2.676 125.957  0.00  0.00    +0.000 C 
ATOM     36  C   UNL     1      -8.693  -3.324 127.325  0.00  0.00    +0.000 C 
ATOM     37  C   UNL     1      -8.785  -3.698 124.862  0.00  0.00    +0.000 C 
ATOM     38  C   UNL     1      -8.906  -3.215 123.427  0.00  0.00    +0.000 C 
ATOM     39  C   UNL     1      -8.574  -1.775 123.117  0.00  0.00    +0.000 C 
ATOM     40  C   UNL     1      -8.408  -0.780 124.300  0.00  0.00    +0.000 C 
ATOM     41  C   UNL     1      -6.979  -0.213 124.130  0.00  0.00    +0.000 C 
ATOM     42  C   UNL     1      -9.498   0.285 124.054  0.00  0.00    +0.000 C 
BRANCH  38  43
ATOM     43  O   UNL     1     -10.250  -3.442 122.984  0.00  0.00    +0.000 OA
ATOM     44  H   UNL     1     -10.636  -4.084 123.605  0.00  0.00    +0.000 HD
ENDBRANCH  38  43
ENDBRANCH  33  34
ENDBRANCH  30  32
ENDBRANCH  28  29
ENDBRANCH  25  27
ENDBRANCH   2  24
TORSDOF 12
ENDMDL
MODEL 5
REMARK VINA RESULT:      -8.7      1.466      2.230
REMARK  Name = Lutein
REMARK  22 active torsions:
REMARK  status: ('A' for Active; 'I' for Inactive)
REMARK    1  A    between atoms: C_1  and  C_2
REMARK    2  A    between atoms: C_2  and  C_3
REMARK    3  A    between atoms: C_4  and  C_5
REMARK    4  A    between atoms: C_6  and  C_7
REMARK    5  A    between atoms: C_6  and  C_8
REMARK    6  A    between atoms: C_9  and  C_10
REMARK    7  A    between atoms: C_11  and  C_12
REMARK    8  A    between atoms: C_14  and  O_15
REMARK    9  A    between atoms: C_17  and  C_18
REMARK   10  A    between atoms: C_17  and  C_19
REMARK   11  A    between atoms: C_20  and  C_21
REMARK   12  A    between atoms: C_22  and  C_23
REMARK   13  A    between atoms: C_24  and  C_25
REMARK   14  A    between atoms: C_24  and  C_26
REMARK   15  A    between atoms: C_27  and  C_28
REMARK   16  A    between atoms: C_29  and  C_30
REMARK   17  A    between atoms: C_29  and  C_31
REMARK   18  A    between atoms: C_32  and  C_33
REMARK   19  A    between atoms: C_34  and  C_35
REMARK   20  A    between atoms: C_37  and  O_38
REMARK   21  A    between atoms: C_40  and  C_41
REMARK   22  A    between atoms: C_40  and  C_42
REMARK                            x       y       z     vdW  Elec       q    Type
REMARK                         _______ _______ _______ _____ _____    ______ ____
ROOT
ATOM      1  C   UNL     1      -7.159   5.054 135.130  0.00  0.00    +0.000 C 
ATOM      2  C   UNL     1      -6.403   5.346 136.199  0.00  0.00    +0.000 C 
ENDROOT
BRANCH   1   5
ATOM      3  C   UNL     1      -9.408   3.800 133.823  0.00  0.00    +0.000 C 
ATOM      4  C   UNL     1      -8.017   3.206 133.725  0.00  0.00    +0.000 C 
ATOM      5  C   UNL     1      -6.998   3.830 134.358  0.00  0.00    +0.000 C 
BRANCH   4   6
ATOM      6  C   UNL     1      -7.777   1.974 132.964  0.00  0.00    +0.000 C 
ATOM      7  C   UNL     1      -8.102   1.829 131.668  0.00  0.00    +0.000 C 
BRANCH   7   8
ATOM      8  C   UNL     1      -7.957   0.664 130.829  0.00  0.00    +0.000 C 
ATOM      9  C   UNL     1      -6.835   0.401 130.117  0.00  0.00    +0.000 C 
ATOM     10  C   UNL     1      -5.571   1.239 130.167  0.00  0.00    +0.000 C 
BRANCH   9  11
ATOM     11  C   UNL     1      -6.788  -0.764 129.238  0.00  0.00    +0.000 C 
ATOM     12  C   UNL     1      -7.535  -0.895 128.126  0.00  0.00    +0.000 C 
BRANCH  12  13
ATOM     13  C   UNL     1      -7.358  -1.991 127.103  0.00  0.00    +0.000 C 
ATOM     14  C   UNL     1      -8.501  -2.969 127.200  0.00  0.00    +0.000 C 
ATOM     15  C   UNL     1      -8.744  -3.600 128.545  0.00  0.00    +0.000 C 
ATOM     16  C   UNL     1      -9.281  -3.292 126.156  0.00  0.00    +0.000 C 
ATOM     17  C   UNL     1      -9.137  -2.766 124.781  0.00  0.00    +0.000 C 
ATOM     18  C   UNL     1      -8.003  -1.797 124.507  0.00  0.00    +0.000 C 
ATOM     19  C   UNL     1      -7.069  -1.386 125.673  0.00  0.00    +0.000 C 
ATOM     20  C   UNL     1      -5.664  -1.906 125.282  0.00  0.00    +0.000 C 
ATOM     21  C   UNL     1      -7.109   0.168 125.682  0.00  0.00    +0.000 C 
BRANCH  17  22
ATOM     22  O   UNL     1      -8.950  -3.897 123.935  0.00  0.00    +0.000 OA
ATOM     23  H   UNL     1      -9.819  -4.332 123.872  0.00  0.00    +0.000 HD
ENDBRANCH  17  22
ENDBRANCH  12  13
ENDBRANCH   9  11
ENDBRANCH   7   8
ENDBRANCH   4   6
ENDBRANCH   1   5
BRANCH   2  24
ATOM     24  C   UNL     1      -6.536   6.558 136.988  0.00  0.00    +0.000 C 
ATOM     25  C   UNL     1      -5.616   7.548 137.033  0.00  0.00    +0.000 C 
ATOM     26  C   UNL     1      -4.325   7.489 136.242  0.00  0.00    +0.000 C 
BRANCH  25  27
ATOM     27  C   UNL     1      -5.838   8.745 137.868  0.00  0.00    +0.000 C 
ATOM     28  C   UNL     1      -7.040   9.343 137.978  0.00  0.00    +0.000 C 
BRANCH  28  29
ATOM     29  C   UNL     1      -7.398  10.499 138.772  0.00  0.00    +0.000 C 
ATOM     30  C   UNL     1      -8.644  10.731 139.259  0.00  0.00    +0.000 C 
ATOM     31  C   UNL     1      -9.838   9.842 139.015  0.00  0.00    +0.000 C 
BRANCH  30  32
ATOM     32  C   UNL     1      -8.887  11.899 140.107  0.00  0.00    +0.000 C 
ATOM     33  C   UNL     1     -10.000  12.658 140.153  0.00  0.00    +0.000 C 
BRANCH  33  34
ATOM     34  C   UNL     1     -10.220  13.865 140.968  0.00  0.00    +0.000 C 
ATOM     35  C   UNL     1     -10.593  13.740 142.261  0.00  0.00    +0.000 C 
ATOM     36  C   UNL     1     -10.734  12.429 143.004  0.00  0.00    +0.000 C 
ATOM     37  C   UNL     1     -10.940  14.909 143.141  0.00  0.00    +0.000 C 
ATOM     38  C   UNL     1     -10.723  16.314 142.603  0.00  0.00    +0.000 C 
ATOM     39  C   UNL     1     -10.484  16.493 141.123  0.00  0.00    +0.000 C 
ATOM     40  C   UNL     1     -10.179  15.236 140.262  0.00  0.00    +0.000 C 
ATOM     41  C   UNL     1     -11.280  15.234 139.176  0.00  0.00    +0.000 C 
ATOM     42  C   UNL     1      -8.776  15.508 139.679  0.00  0.00    +0.000 C 
BRANCH  38  43
ATOM     43  O   UNL     1      -9.604  16.893 143.284  0.00  0.00    +0.000 OA
ATOM     44  H   UNL     1      -8.814  16.642 142.772  0.00  0.00    +0.000 HD
ENDBRANCH  38  43
ENDBRANCH  33  34
ENDBRANCH  30  32
ENDBRANCH  28  29
ENDBRANCH  25  27
ENDBRANCH   2  24
TORSDOF 12
ENDMDL
MODEL 6
REMARK VINA RESULT:      -8.6      1.529      2.593
REMARK  Name = Lutein
REMARK  22 active torsions:
REMARK  status: ('A' for Active; 'I' for Inactive)
REMARK    1  A    between atoms: C_1  and  C_2
REMARK    2  A    between atoms: C_2  and  C_3
REMARK    3  A    between atoms: C_4  and  C_5
REMARK    4  A    between atoms: C_6  and  C_7
REMARK    5  A    between atoms: C_6  and  C_8
REMARK    6  A    between atoms: C_9  and  C_10
REMARK    7  A    between atoms: C_11  and  C_12
REMARK    8  A    between atoms: C_14  and  O_15
REMARK    9  A    between atoms: C_17  and  C_18
REMARK   10  A    between atoms: C_17  and  C_19
REMARK   11  A    between atoms: C_20  and  C_21
REMARK   12  A    between atoms: C_22  and  C_23
REMARK   13  A    between atoms: C_24  and  C_25
REMARK   14  A    between atoms: C_24  and  C_26
REMARK   15  A    between atoms: C_27  and  C_28
REMARK   16  A    between atoms: C_29  and  C_30
REMARK   17  A    between atoms: C_29  and  C_31
REMARK   18  A    between atoms: C_32  and  C_33
REMARK   19  A    between atoms: C_34  and  C_35
REMARK   20  A    between atoms: C_37  and  O_38
REMARK   21  A    between atoms: C_40  and  C_41
REMARK   22  A    between atoms: C_40  and  C_42
REMARK                            x       y       z     vdW  Elec       q    Type
REMARK                         _______ _______ _______ _____ _____    ______ ____
ROOT
ATOM      1  C   UNL     1      -8.788   4.718 133.245  0.00  0.00    +0.000 C 
ATOM      2  C   UNL     1      -8.147   4.531 134.409  0.00  0.00    +0.000 C 
ENDROOT
BRANCH   1   5
ATOM      3  C   UNL     1     -10.596   4.914 131.003  0.00  0.00    +0.000 C 
ATOM      4  C   UNL     1      -9.575   3.798 131.086  0.00  0.00    +0.000 C 
ATOM      5  C   UNL     1      -8.753   3.749 132.159  0.00  0.00    +0.000 C 
BRANCH   4   6
ATOM      6  C   UNL     1      -9.479   2.785 130.028  0.00  0.00    +0.000 C 
ATOM      7  C   UNL     1      -8.426   2.675 129.201  0.00  0.00    +0.000 C 
BRANCH   7   8
ATOM      8  C   UNL     1      -8.234   1.756 128.106  0.00  0.00    +0.000 C 
ATOM      9  C   UNL     1      -7.926   0.449 128.282  0.00  0.00    +0.000 C 
ATOM     10  C   UNL     1      -7.820  -0.233 129.633  0.00  0.00    +0.000 C 
BRANCH   9  11
ATOM     11  C   UNL     1      -7.682  -0.403 127.122  0.00  0.00    +0.000 C 
ATOM     12  C   UNL     1      -8.537  -0.530 126.090  0.00  0.00    +0.000 C 
BRANCH  12  13
ATOM     13  C   UNL     1      -8.217  -1.243 124.798  0.00  0.00    +0.000 C 
ATOM     14  C   UNL     1      -6.946  -0.688 124.210  0.00  0.00    +0.000 C 
ATOM     15  C   UNL     1      -6.900   0.796 123.964  0.00  0.00    +0.000 C 
ATOM     16  C   UNL     1      -5.886  -1.452 123.900  0.00  0.00    +0.000 C 
ATOM     17  C   UNL     1      -5.808  -2.921 124.067  0.00  0.00    +0.000 C 
ATOM     18  C   UNL     1      -7.027  -3.639 124.613  0.00  0.00    +0.000 C 
ATOM     19  C   UNL     1      -8.281  -2.809 124.989  0.00  0.00    +0.000 C 
ATOM     20  C   UNL     1      -9.401  -3.295 124.037  0.00  0.00    +0.000 C 
ATOM     21  C   UNL     1      -8.586  -3.202 126.462  0.00  0.00    +0.000 C 
BRANCH  17  22
ATOM     22  O   UNL     1      -5.534  -3.458 122.776  0.00  0.00    +0.000 OA
ATOM     23  H   UNL     1      -5.342  -2.695 122.202  0.00  0.00    +0.000 HD
ENDBRANCH  17  22
ENDBRANCH  12  13
ENDBRANCH   9  11
ENDBRANCH   7   8
ENDBRANCH   4   6
ENDBRANCH   1   5
BRANCH   2  24
ATOM     24  C   UNL     1      -8.160   5.478 135.511  0.00  0.00    +0.000 C 
ATOM     25  C   UNL     1      -7.107   5.723 136.323  0.00  0.00    +0.000 C 
ATOM     26  C   UNL     1      -5.776   5.018 136.156  0.00  0.00    +0.000 C 
BRANCH  25  27
ATOM     27  C   UNL     1      -7.215   6.704 137.420  0.00  0.00    +0.000 C 
ATOM     28  C   UNL     1      -8.171   7.651 137.459  0.00  0.00    +0.000 C 
BRANCH  28  29
ATOM     29  C   UNL     1      -8.402   8.652 138.478  0.00  0.00    +0.000 C 
ATOM     30  C   UNL     1      -9.586   9.292 138.662  0.00  0.00    +0.000 C 
ATOM     31  C   UNL     1     -10.815   9.080 137.813  0.00  0.00    +0.000 C 
BRANCH  30  32
ATOM     32  C   UNL     1      -9.735  10.243 139.765  0.00  0.00    +0.000 C 
ATOM     33  C   UNL     1      -9.412  11.551 139.763  0.00  0.00    +0.000 C 
BRANCH  33  34
ATOM     34  C   UNL     1      -9.512  12.493 140.892  0.00  0.00    +0.000 C 
ATOM     35  C   UNL     1     -10.283  13.597 140.776  0.00  0.00    +0.000 C 
ATOM     36  C   UNL     1     -11.152  13.930 139.582  0.00  0.00    +0.000 C 
ATOM     37  C   UNL     1     -10.368  14.665 141.831  0.00  0.00    +0.000 C 
ATOM     38  C   UNL     1      -9.668  14.432 143.159  0.00  0.00    +0.000 C 
ATOM     39  C   UNL     1      -8.661  13.311 143.260  0.00  0.00    +0.000 C 
ATOM     40  C   UNL     1      -8.594  12.267 142.110  0.00  0.00    +0.000 C 
ATOM     41  C   UNL     1      -7.131  12.337 141.611  0.00  0.00    +0.000 C 
ATOM     42  C   UNL     1      -8.918  10.924 142.799  0.00  0.00    +0.000 C 
BRANCH  38  43
ATOM     43  O   UNL     1     -10.664  14.195 144.162  0.00  0.00    +0.000 OA
ATOM     44  H   UNL     1     -11.522  14.382 143.742  0.00  0.00    +0.000 HD
ENDBRANCH  38  43
ENDBRANCH  33  34
ENDBRANCH  30  32
ENDBRANCH  28  29
ENDBRANCH  25  27
ENDBRANCH   2  24
TORSDOF 12
ENDMDL
MODEL 7
REMARK VINA RESULT:      -8.6      1.688      2.867
REMARK  Name = Lutein
REMARK  22 active torsions:
REMARK  status: ('A' for Active; 'I' for Inactive)
REMARK    1  A    between atoms: C_1  and  C_2
REMARK    2  A    between atoms: C_2  and  C_3
REMARK    3  A    between atoms: C_4  and  C_5
REMARK    4  A    between atoms: C_6  and  C_7
REMARK    5  A    between atoms: C_6  and  C_8
REMARK    6  A    between atoms: C_9  and  C_10
REMARK    7  A    between atoms: C_11  and  C_12
REMARK    8  A    between atoms: C_14  and  O_15
REMARK    9  A    between atoms: C_17  and  C_18
REMARK   10  A    between atoms: C_17  and  C_19
REMARK   11  A    between atoms: C_20  and  C_21
REMARK   12  A    between atoms: C_22  and  C_23
REMARK   13  A    between atoms: C_24  and  C_25
REMARK   14  A    between atoms: C_24  and  C_26
REMARK   15  A    between atoms: C_27  and  C_28
REMARK   16  A    between atoms: C_29  and  C_30
REMARK   17  A    between atoms: C_29  and  C_31
REMARK   18  A    between atoms: C_32  and  C_33
REMARK   19  A    between atoms: C_34  and  C_35
REMARK   20  A    between atoms: C_37  and  O_38
REMARK   21  A    between atoms: C_40  and  C_41
REMARK   22  A    between atoms: C_40  and  C_42
REMARK                            x       y       z     vdW  Elec       q    Type
REMARK                         _______ _______ _______ _____ _____    ______ ____
ROOT
ATOM      1  C   UNL     1      -7.953   4.965 135.251  0.00  0.00    +0.000 C 
ATOM      2  C   UNL     1      -7.065   5.715 135.920  0.00  0.00    +0.000 C 
ENDROOT
BRANCH   1   5
ATOM      3  C   UNL     1      -9.897   3.625 133.589  0.00  0.00    +0.000 C 
ATOM      4  C   UNL     1      -8.430   3.252 133.529  0.00  0.00    +0.000 C 
ATOM      5  C   UNL     1      -7.560   3.907 134.331  0.00  0.00    +0.000 C 
BRANCH   4   6
ATOM      6  C   UNL     1      -7.958   2.196 132.625  0.00  0.00    +0.000 C 
ATOM      7  C   UNL     1      -8.781   1.391 131.932  0.00  0.00    +0.000 C 
BRANCH   7   8
ATOM      8  C   UNL     1      -8.442   0.300 131.052  0.00  0.00    +0.000 C 
ATOM      9  C   UNL     1      -7.964  -0.887 131.497  0.00  0.00    +0.000 C 
ATOM     10  C   UNL     1      -7.799  -1.252 132.959  0.00  0.00    +0.000 C 
BRANCH   9  11
ATOM     11  C   UNL     1      -7.580  -1.921 130.539  0.00  0.00    +0.000 C 
ATOM     12  C   UNL     1      -7.715  -1.796 129.205  0.00  0.00    +0.000 C 
BRANCH  12  13
ATOM     13  C   UNL     1      -7.145  -2.762 128.195  0.00  0.00    +0.000 C 
ATOM     14  C   UNL     1      -8.260  -3.371 127.386  0.00  0.00    +0.000 C 
ATOM     15  C   UNL     1      -9.355  -4.066 128.150  0.00  0.00    +0.000 C 
ATOM     16  C   UNL     1      -8.305  -3.324 126.044  0.00  0.00    +0.000 C 
ATOM     17  C   UNL     1      -7.287  -2.697 125.173  0.00  0.00    +0.000 C 
ATOM     18  C   UNL     1      -6.074  -2.071 125.835  0.00  0.00    +0.000 C 
ATOM     19  C   UNL     1      -5.967  -2.095 127.381  0.00  0.00    +0.000 C 
ATOM     20  C   UNL     1      -4.714  -2.947 127.697  0.00  0.00    +0.000 C 
ATOM     21  C   UNL     1      -5.752  -0.609 127.784  0.00  0.00    +0.000 C 
BRANCH  17  22
ATOM     22  O   UNL     1      -6.819  -3.721 124.300  0.00  0.00    +0.000 OA
ATOM     23  H   UNL     1      -7.577  -3.961 123.737  0.00  0.00    +0.000 HD
ENDBRANCH  17  22
ENDBRANCH  12  13
ENDBRANCH   9  11
ENDBRANCH   7   8
ENDBRANCH   4   6
ENDBRANCH   1   5
BRANCH   2  24
ATOM     24  C   UNL     1      -7.424   6.778 136.843  0.00  0.00    +0.000 C 
ATOM     25  C   UNL     1      -7.158   6.764 138.169  0.00  0.00    +0.000 C 
ATOM     26  C   UNL     1      -6.438   5.610 138.837  0.00  0.00    +0.000 C 
BRANCH  25  27
ATOM     27  C   UNL     1      -7.563   7.892 139.031  0.00  0.00    +0.000 C 
ATOM     28  C   UNL     1      -8.217   8.970 138.559  0.00  0.00    +0.000 C 
BRANCH  28  29
ATOM     29  C   UNL     1      -8.689  10.125 139.291  0.00  0.00    +0.000 C 
ATOM     30  C   UNL     1      -7.946  11.240 139.514  0.00  0.00    +0.000 C 
ATOM     31  C   UNL     1      -6.518  11.421 139.066  0.00  0.00    +0.000 C 
BRANCH  30  32
ATOM     32  C   UNL     1      -8.541  12.381 140.212  0.00  0.00    +0.000 C 
ATOM     33  C   UNL     1      -9.830  12.538 140.572  0.00  0.00    +0.000 C 
BRANCH  33  34
ATOM     34  C   UNL     1     -10.436  13.711 141.225  0.00  0.00    +0.000 C 
ATOM     35  C   UNL     1     -11.013  14.673 140.471  0.00  0.00    +0.000 C 
ATOM     36  C   UNL     1     -11.176  14.619 138.967  0.00  0.00    +0.000 C 
ATOM     37  C   UNL     1     -11.564  15.952 141.037  0.00  0.00    +0.000 C 
ATOM     38  C   UNL     1     -11.610  16.118 142.547  0.00  0.00    +0.000 C 
ATOM     39  C   UNL     1     -10.821  15.159 143.406  0.00  0.00    +0.000 C 
ATOM     40  C   UNL     1     -10.237  13.879 142.745  0.00  0.00    +0.000 C 
ATOM     41  C   UNL     1      -8.715  13.968 143.010  0.00  0.00    +0.000 C 
ATOM     42  C   UNL     1     -10.903  12.719 143.515  0.00  0.00    +0.000 C 
BRANCH  38  43
ATOM     43  O   UNL     1     -12.976  16.036 142.971  0.00  0.00    +0.000 OA
ATOM     44  H   UNL     1     -13.475  16.651 142.404  0.00  0.00    +0.000 HD
ENDBRANCH  38  43
ENDBRANCH  33  34
ENDBRANCH  30  32
ENDBRANCH  28  29
ENDBRANCH  25  27
ENDBRANCH   2  24
TORSDOF 12
ENDMDL
MODEL 8
REMARK VINA RESULT:      -8.3      6.022     18.294
REMARK  Name = Lutein
REMARK  22 active torsions:
REMARK  status: ('A' for Active; 'I' for Inactive)
REMARK    1  A    between atoms: C_1  and  C_2
REMARK    2  A    between atoms: C_2  and  C_3
REMARK    3  A    between atoms: C_4  and  C_5
REMARK    4  A    between atoms: C_6  and  C_7
REMARK    5  A    between atoms: C_6  and  C_8
REMARK    6  A    between atoms: C_9  and  C_10
REMARK    7  A    between atoms: C_11  and  C_12
REMARK    8  A    between atoms: C_14  and  O_15
REMARK    9  A    between atoms: C_17  and  C_18
REMARK   10  A    between atoms: C_17  and  C_19
REMARK   11  A    between atoms: C_20  and  C_21
REMARK   12  A    between atoms: C_22  and  C_23
REMARK   13  A    between atoms: C_24  and  C_25
REMARK   14  A    between atoms: C_24  and  C_26
REMARK   15  A    between atoms: C_27  and  C_28
REMARK   16  A    between atoms: C_29  and  C_30
REMARK   17  A    between atoms: C_29  and  C_31
REMARK   18  A    between atoms: C_32  and  C_33
REMARK   19  A    between atoms: C_34  and  C_35
REMARK   20  A    between atoms: C_37  and  O_38
REMARK   21  A    between atoms: C_40  and  C_41
REMARK   22  A    between atoms: C_40  and  C_42
REMARK                            x       y       z     vdW  Elec       q    Type
REMARK                         _______ _______ _______ _____ _____    ______ ____
ROOT
ATOM      1  C   UNL     1      -4.077   6.703 131.547  0.00  0.00    +0.000 C 
ATOM      2  C   UNL     1      -5.407   6.531 131.583  0.00  0.00    +0.000 C 
ENDROOT
BRANCH   1   5
ATOM      3  C   UNL     1      -1.201   6.734 131.801  0.00  0.00    +0.000 C 
ATOM      4  C   UNL     1      -2.052   7.815 132.435  0.00  0.00    +0.000 C 
ATOM      5  C   UNL     1      -3.396   7.752 132.290  0.00  0.00    +0.000 C 
BRANCH   4   6
ATOM      6  C   UNL     1      -1.436   8.907 133.199  0.00  0.00    +0.000 C 
ATOM      7  C   UNL     1      -1.927  10.157 133.231  0.00  0.00    +0.000 C 
BRANCH   7   8
ATOM      8  C   UNL     1      -1.394  11.316 133.905  0.00  0.00    +0.000 C 
ATOM      9  C   UNL     1      -1.021  12.443 133.253  0.00  0.00    +0.000 C 
ATOM     10  C   UNL     1      -1.185  12.666 131.762  0.00  0.00    +0.000 C 
BRANCH   9  11
ATOM     11  C   UNL     1      -0.427  13.550 133.997  0.00  0.00    +0.000 C 
ATOM     12  C   UNL     1      -0.911  14.016 135.164  0.00  0.00    +0.000 C 
BRANCH  12  13
ATOM     13  C   UNL     1      -0.203  15.019 136.043  0.00  0.00    +0.000 C 
ATOM     14  C   UNL     1      -1.174  16.078 136.493  0.00  0.00    +0.000 C 
ATOM     15  C   UNL     1      -1.917  16.823 135.416  0.00  0.00    +0.000 C 
ATOM     16  C   UNL     1      -1.388  16.377 137.785  0.00  0.00    +0.000 C 
ATOM     17  C   UNL     1      -0.710  15.742 138.936  0.00  0.00    +0.000 C 
ATOM     18  C   UNL     1       0.331  14.678 138.649  0.00  0.00    +0.000 C 
ATOM     19  C   UNL     1       0.621  14.290 137.177  0.00  0.00    +0.000 C 
ATOM     20  C   UNL     1       2.098  14.680 136.928  0.00  0.00    +0.000 C 
ATOM     21  C   UNL     1       0.433  12.748 137.131  0.00  0.00    +0.000 C 
BRANCH  17  22
ATOM     22  O   UNL     1      -0.066  16.792 139.653  0.00  0.00    +0.000 OA
ATOM     23  H   UNL     1      -0.740  17.483 139.779  0.00  0.00    +0.000 HD
ENDBRANCH  17  22
ENDBRANCH  12  13
ENDBRANCH   9  11
ENDBRANCH   7   8
ENDBRANCH   4   6
ENDBRANCH   1   5
BRANCH   2  24
ATOM     24  C   UNL     1      -6.118   5.496 130.852  0.00  0.00    +0.000 C 
ATOM     25  C   UNL     1      -7.453   5.289 130.920  0.00  0.00    +0.000 C 
ATOM     26  C   UNL     1      -8.361   6.142 131.783  0.00  0.00    +0.000 C 
BRANCH  25  27
ATOM     27  C   UNL     1      -8.088   4.208 130.140  0.00  0.00    +0.000 C 
ATOM     28  C   UNL     1      -7.381   3.325 129.410  0.00  0.00    +0.000 C 
BRANCH  28  29
ATOM     29  C   UNL     1      -7.872   2.213 128.624  0.00  0.00    +0.000 C 
ATOM     30  C   UNL     1      -7.971   2.224 127.270  0.00  0.00    +0.000 C 
ATOM     31  C   UNL     1      -7.622   3.402 126.396  0.00  0.00    +0.000 C 
BRANCH  30  32
ATOM     32  C   UNL     1      -8.420   1.022 126.565  0.00  0.00    +0.000 C 
ATOM     33  C   UNL     1      -7.654   0.115 125.928  0.00  0.00    +0.000 C 
BRANCH  33  34
ATOM     34  C   UNL     1      -8.113  -1.064 125.173  0.00  0.00    +0.000 C 
ATOM     35  C   UNL     1      -8.315  -2.234 125.818  0.00  0.00    +0.000 C 
ATOM     36  C   UNL     1      -8.188  -2.437 127.313  0.00  0.00    +0.000 C 
ATOM     37  C   UNL     1      -8.683  -3.514 125.120  0.00  0.00    +0.000 C 
ATOM     38  C   UNL     1      -8.987  -3.469 123.632  0.00  0.00    +0.000 C 
ATOM     39  C   UNL     1      -8.602  -2.235 122.851  0.00  0.00    +0.000 C 
ATOM     40  C   UNL     1      -8.185  -0.960 123.636  0.00  0.00    +0.000 C 
ATOM     41  C   UNL     1      -6.761  -0.640 123.123  0.00  0.00    +0.000 C 
ATOM     42  C   UNL     1      -9.219   0.103 123.207  0.00  0.00    +0.000 C 
BRANCH  38  43
ATOM     43  O   UNL     1     -10.395  -3.659 123.451  0.00  0.00    +0.000 OA
ATOM     44  H   UNL     1     -10.820  -3.347 124.270  0.00  0.00    +0.000 HD
ENDBRANCH  38  43
ENDBRANCH  33  34
ENDBRANCH  30  32
ENDBRANCH  28  29
ENDBRANCH  25  27
ENDBRANCH   2  24
TORSDOF 12
ENDMDL
MODEL 9
REMARK VINA RESULT:      -8.3      1.730     18.331
REMARK  Name = Lutein
REMARK  22 active torsions:
REMARK  status: ('A' for Active; 'I' for Inactive)
REMARK    1  A    between atoms: C_1  and  C_2
REMARK    2  A    between atoms: C_2  and  C_3
REMARK    3  A    between atoms: C_4  and  C_5
REMARK    4  A    between atoms: C_6  and  C_7
REMARK    5  A    between atoms: C_6  and  C_8
REMARK    6  A    between atoms: C_9  and  C_10
REMARK    7  A    between atoms: C_11  and  C_12
REMARK    8  A    between atoms: C_14  and  O_15
REMARK    9  A    between atoms: C_17  and  C_18
REMARK   10  A    between atoms: C_17  and  C_19
REMARK   11  A    between atoms: C_20  and  C_21
REMARK   12  A    between atoms: C_22  and  C_23
REMARK   13  A    between atoms: C_24  and  C_25
REMARK   14  A    between atoms: C_24  and  C_26
REMARK   15  A    between atoms: C_27  and  C_28
REMARK   16  A    between atoms: C_29  and  C_30
REMARK   17  A    between atoms: C_29  and  C_31
REMARK   18  A    between atoms: C_32  and  C_33
REMARK   19  A    between atoms: C_34  and  C_35
REMARK   20  A    between atoms: C_37  and  O_38
REMARK   21  A    between atoms: C_40  and  C_41
REMARK   22  A    between atoms: C_40  and  C_42
REMARK                            x       y       z     vdW  Elec       q    Type
REMARK                         _______ _______ _______ _____ _____    ______ ____
ROOT
ATOM      1  C   UNL     1      -7.501   5.048 135.252  0.00  0.00    +0.000 C 
ATOM      2  C   UNL     1      -8.612   4.611 134.639  0.00  0.00    +0.000 C 
ENDROOT
BRANCH   1   5
ATOM      3  C   UNL     1      -5.070   6.324 136.145  0.00  0.00    +0.000 C 
ATOM      4  C   UNL     1      -6.412   6.698 136.741  0.00  0.00    +0.000 C 
ATOM      5  C   UNL     1      -7.521   6.068 136.291  0.00  0.00    +0.000 C 
BRANCH   4   6
ATOM      6  C   UNL     1      -6.512   7.718 137.792  0.00  0.00    +0.000 C 
ATOM      7  C   UNL     1      -7.406   8.721 137.768  0.00  0.00    +0.000 C 
BRANCH   7   8
ATOM      8  C   UNL     1      -7.573   9.799 138.711  0.00  0.00    +0.000 C 
ATOM      9  C   UNL     1      -8.785  10.282 139.076  0.00  0.00    +0.000 C 
ATOM     10  C   UNL     1     -10.111   9.711 138.611  0.00  0.00    +0.000 C 
BRANCH   9  11
ATOM     11  C   UNL     1      -8.871  11.421 139.985  0.00  0.00    +0.000 C 
ATOM     12  C   UNL     1     -10.027  11.900 140.483  0.00  0.00    +0.000 C 
BRANCH  12  13
ATOM     13  C   UNL     1     -10.122  12.940 141.573  0.00  0.00    +0.000 C 
ATOM     14  C   UNL     1      -9.049  12.700 142.602  0.00  0.00    +0.000 C 
ATOM     15  C   UNL     1      -9.008  11.337 143.240  0.00  0.00    +0.000 C 
ATOM     16  C   UNL     1      -8.157  13.636 142.965  0.00  0.00    +0.000 C 
ATOM     17  C   UNL     1      -8.100  15.017 142.437  0.00  0.00    +0.000 C 
ATOM     18  C   UNL     1      -9.143  15.431 141.417  0.00  0.00    +0.000 C 
ATOM     19  C   UNL     1     -10.199  14.393 140.960  0.00  0.00    +0.000 C 
ATOM     20  C   UNL     1     -11.564  14.962 141.415  0.00  0.00    +0.000 C 
ATOM     21  C   UNL     1     -10.087  14.375 139.409  0.00  0.00    +0.000 C 
BRANCH  17  22
ATOM     22  O   UNL     1      -8.231  15.883 143.562  0.00  0.00    +0.000 OA
ATOM     23  H   UNL     1      -9.109  15.700 143.941  0.00  0.00    +0.000 HD
ENDBRANCH  17  22
ENDBRANCH  12  13
ENDBRANCH   9  11
ENDBRANCH   7   8
ENDBRANCH   4   6
ENDBRANCH   1   5
BRANCH   2  24
ATOM     24  C   UNL     1      -8.626   3.597 133.599  0.00  0.00    +0.000 C 
ATOM     25  C   UNL     1      -8.553   3.858 132.273  0.00  0.00    +0.000 C 
ATOM     26  C   UNL     1      -8.443   5.269 131.731  0.00  0.00    +0.000 C 
BRANCH  25  27
ATOM     27  C   UNL     1      -8.576   2.760 131.287  0.00  0.00    +0.000 C 
ATOM     28  C   UNL     1      -8.500   2.972 129.960  0.00  0.00    +0.000 C 
BRANCH  28  29
ATOM     29  C   UNL     1      -8.490   1.993 128.894  0.00  0.00    +0.000 C 
ATOM     30  C   UNL     1      -7.369   1.377 128.438  0.00  0.00    +0.000 C 
ATOM     31  C   UNL     1      -5.976   1.647 128.947  0.00  0.00    +0.000 C 
BRANCH  30  32
ATOM     32  C   UNL     1      -7.476   0.352 127.397  0.00  0.00    +0.000 C 
ATOM     33  C   UNL     1      -8.539   0.095 126.610  0.00  0.00    +0.000 C 
BRANCH  33  34
ATOM     34  C   UNL     1      -8.662  -0.972 125.602  0.00  0.00    +0.000 C 
ATOM     35  C   UNL     1      -8.657  -2.265 125.993  0.00  0.00    +0.000 C 
ATOM     36  C   UNL     1      -8.618  -2.740 127.430  0.00  0.00    +0.000 C 
ATOM     37  C   UNL     1      -8.674  -3.423 125.034  0.00  0.00    +0.000 C 
ATOM     38  C   UNL     1      -8.851  -3.136 123.552  0.00  0.00    +0.000 C 
ATOM     39  C   UNL     1      -8.680  -1.718 123.063  0.00  0.00    +0.000 C 
ATOM     40  C   UNL     1      -8.621  -0.573 124.113  0.00  0.00    +0.000 C 
ATOM     41  C   UNL     1      -7.263   0.120 123.852  0.00  0.00    +0.000 C 
ATOM     42  C   UNL     1      -9.822   0.330 123.756  0.00  0.00    +0.000 C 
BRANCH  38  43
ATOM     43  O   UNL     1     -10.163  -3.560 123.161  0.00  0.00    +0.000 OA
ATOM     44  H   UNL     1     -10.605  -3.862 123.975  0.00  0.00    +0.000 HD
ENDBRANCH  38  43
ENDBRANCH  33  34
ENDBRANCH  30  32
ENDBRANCH  28  29
ENDBRANCH  25  27
ENDBRANCH   2  24
TORSDOF 12
ENDMDL
