MODEL 1
REMARK VINA RESULT:      -7.8      0.000      0.000
REMARK  Name = Lycopene
REMARK  26 active torsions:
REMARK  status: ('A' for Active; 'I' for Inactive)
REMARK    1  A    between atoms: C_1  and  C_2
REMARK    2  A    between atoms: C_2  and  C_3
REMARK    3  A    between atoms: C_4  and  C_5
REMARK    4  A    between atoms: C_5  and  C_6
REMARK    5  A    between atoms: C_6  and  C_7
REMARK    6  A    between atoms: C_7  and  C_8
REMARK    7  A    between atoms: C_9  and  C_10
REMARK    8  A    between atoms: C_11  and  C_12
REMARK    9  A    between atoms: C_12  and  C_13
REMARK   10  A    between atoms: C_14  and  C_15
REMARK   11  A    between atoms: C_16  and  C_17
REMARK   12  A    between atoms: C_17  and  C_18
REMARK   13  A    between atoms: C_19  and  C_20
REMARK   14  A    between atoms: C_21  and  C_22
REMARK   15  A    between atoms: C_23  and  C_24
REMARK   16  A    between atoms: C_23  and  C_25
REMARK   17  A    between atoms: C_26  and  C_27
REMARK   18  A    between atoms: C_28  and  C_29
REMARK   19  A    between atoms: C_28  and  C_30
REMARK   20  A    between atoms: C_31  and  C_32
REMARK   21  A    between atoms: C_33  and  C_34
REMARK   22  A    between atoms: C_33  and  C_35
REMARK   23  A    between atoms: C_35  and  C_36
REMARK   24  A    between atoms: C_36  and  C_37
REMARK   25  A    between atoms: C_38  and  C_39
REMARK   26  A    between atoms: C_38  and  C_40
REMARK                            x       y       z     vdW  Elec       q    Type
REMARK                         _______ _______ _______ _____ _____    ______ ____
ROOT
ATOM      1  C   UNL     1      -7.651   4.989 134.352  0.00  0.00    +0.000 C 
ATOM      2  C   UNL     1      -8.270   3.815 134.154  0.00  0.00    +0.000 C 
ENDROOT
BRANCH   1   5
ATOM      3  C   UNL     1      -7.102   5.912 136.594  0.00  0.00    +0.000 C 
ATOM      4  C   UNL     1      -5.866   5.041 136.630  0.00  0.00    +0.000 C 
ATOM      5  C   UNL     1      -7.905   5.850 135.504  0.00  0.00    +0.000 C 
BRANCH   3   7
ATOM      6  C   UNL     1      -7.758   8.099 137.606  0.00  0.00    +0.000 C 
ATOM      7  C   UNL     1      -7.418   6.803 137.725  0.00  0.00    +0.000 C 
BRANCH   6  10
ATOM      8  C   UNL     1      -9.335   9.530 138.867  0.00  0.00    +0.000 C 
ATOM      9  C   UNL     1     -10.476   9.094 137.963  0.00  0.00    +0.000 C 
ATOM     10  C   UNL     1      -8.084   9.043 138.666  0.00  0.00    +0.000 C 
BRANCH   8  12
ATOM     11  C   UNL     1      -9.907  11.778 139.781  0.00  0.00    +0.000 C 
ATOM     12  C   UNL     1      -9.599  10.483 139.956  0.00  0.00    +0.000 C 
BRANCH  11  15
ATOM     13  C   UNL     1      -9.300  13.748 141.122  0.00  0.00    +0.000 C 
ATOM     14  C   UNL     1      -7.964  13.862 140.409  0.00  0.00    +0.000 C 
ATOM     15  C   UNL     1     -10.178  12.767 140.805  0.00  0.00    +0.000 C 
BRANCH  13  16
ATOM     16  C   UNL     1      -9.651  14.754 142.209  0.00  0.00    +0.000 C 
BRANCH  16  17
ATOM     17  C   UNL     1     -10.208  16.072 141.671  0.00  0.00    +0.000 C 
BRANCH  17  21
ATOM     18  C   UNL     1     -11.663  16.230 138.097  0.00  0.00    +0.000 C 
ATOM     19  C   UNL     1     -10.730  16.362 139.262  0.00  0.00    +0.000 C 
ATOM     20  C   UNL     1      -9.368  16.960 139.014  0.00  0.00    +0.000 C 
ATOM     21  C   UNL     1     -11.114  15.954 140.487  0.00  0.00    +0.000 C 
ENDBRANCH  17  21
ENDBRANCH  16  17
ENDBRANCH  13  16
ENDBRANCH  11  15
ENDBRANCH   8  12
ENDBRANCH   6  10
ENDBRANCH   3   7
ENDBRANCH   1   5
BRANCH   2  22
ATOM     22  C   UNL     1      -8.036   2.939 133.015  0.00  0.00    +0.000 C 
ATOM     23  C   UNL     1      -7.146   1.919 132.990  0.00  0.00    +0.000 C 
ATOM     24  C   UNL     1      -6.278   1.578 134.185  0.00  0.00    +0.000 C 
BRANCH  23  25
ATOM     25  C   UNL     1      -6.983   1.085 131.778  0.00  0.00    +0.000 C 
ATOM     26  C   UNL     1      -7.967   0.324 131.265  0.00  0.00    +0.000 C 
BRANCH  26  27
ATOM     27  C   UNL     1      -7.916  -0.528 130.088  0.00  0.00    +0.000 C 
ATOM     28  C   UNL     1      -7.657  -1.860 130.116  0.00  0.00    +0.000 C 
ATOM     29  C   UNL     1      -7.386  -2.626 131.401  0.00  0.00    +0.000 C 
BRANCH  28  30
ATOM     30  C   UNL     1      -7.628  -2.641 128.863  0.00  0.00    +0.000 C 
ATOM     31  C   UNL     1      -7.392  -2.097 127.657  0.00  0.00    +0.000 C 
BRANCH  31  32
ATOM     32  C   UNL     1      -7.341  -2.768 126.375  0.00  0.00    +0.000 C 
ATOM     33  C   UNL     1      -8.436  -3.139 125.671  0.00  0.00    +0.000 C 
ATOM     34  C   UNL     1      -9.859  -2.898 126.140  0.00  0.00    +0.000 C 
BRANCH  33  35
ATOM     35  C   UNL     1      -8.273  -3.844 124.323  0.00  0.00    +0.000 C 
BRANCH  35  36
ATOM     36  C   UNL     1      -8.025  -2.879 123.159  0.00  0.00    +0.000 C 
BRANCH  36  37
ATOM     37  C   UNL     1      -9.043  -1.797 122.985  0.00  0.00    +0.000 C 
ATOM     38  C   UNL     1      -8.756  -0.499 123.209  0.00  0.00    +0.000 C 
ATOM     39  C   UNL     1      -7.394  -0.022 123.653  0.00  0.00    +0.000 C 
ATOM     40  C   UNL     1      -9.799   0.564 123.025  0.00  0.00    +0.000 C 
ENDBRANCH  36  37
ENDBRANCH  35  36
ENDBRANCH  33  35
ENDBRANCH  31  32
ENDBRANCH  28  30
ENDBRANCH  26  27
ENDBRANCH  23  25
ENDBRANCH   2  22
TORSDOF 16
ENDMDL
MODEL 2
REMARK VINA RESULT:      -7.6      1.215     18.158
REMARK  Name = Lycopene
REMARK  26 active torsions:
REMARK  status: ('A' for Active; 'I' for Inactive)
REMARK    1  A    between atoms: C_1  and  C_2
REMARK    2  A    between atoms: C_2  and  C_3
REMARK    3  A    between atoms: C_4  and  C_5
REMARK    4  A    between atoms: C_5  and  C_6
REMARK    5  A    between atoms: C_6  and  C_7
REMARK    6  A    between atoms: C_7  and  C_8
REMARK    7  A    between atoms: C_9  and  C_10
REMARK    8  A    between atoms: C_11  and  C_12
REMARK    9  A    between atoms: C_12  and  C_13
REMARK   10  A    between atoms: C_14  and  C_15
REMARK   11  A    between atoms: C_16  and  C_17
REMARK   12  A    between atoms: C_17  and  C_18
REMARK   13  A    between atoms: C_19  and  C_20
REMARK   14  A    between atoms: C_21  and  C_22
REMARK   15  A    between atoms: C_23  and  C_24
REMARK   16  A    between atoms: C_23  and  C_25
REMARK   17  A    between atoms: C_26  and  C_27
REMARK   18  A    between atoms: C_28  and  C_29
REMARK   19  A    between atoms: C_28  and  C_30
REMARK   20  A    between atoms: C_31  and  C_32
REMARK   21  A    between atoms: C_33  and  C_34
REMARK   22  A    between atoms: C_33  and  C_35
REMARK   23  A    between atoms: C_35  and  C_36
REMARK   24  A    between atoms: C_36  and  C_37
REMARK   25  A    between atoms: C_38  and  C_39
REMARK   26  A    between atoms: C_38  and  C_40
REMARK                            x       y       z     vdW  Elec       q    Type
REMARK                         _______ _______ _______ _____ _____    ______ ____
ROOT
ATOM      1  C   UNL     1      -8.889   3.877 134.077  0.00  0.00    +0.000 C 
ATOM      2  C   UNL     1      -7.909   4.718 134.442  0.00  0.00    +0.000 C 
ENDROOT
BRANCH   1   5
ATOM      3  C   UNL     1      -9.213   3.198 131.708  0.00  0.00    +0.000 C 
ATOM      4  C   UNL     1      -9.866   4.534 131.432  0.00  0.00    +0.000 C 
ATOM      5  C   UNL     1      -8.773   2.940 132.962  0.00  0.00    +0.000 C 
BRANCH   3   7
ATOM      6  C   UNL     1      -8.049   1.329 130.528  0.00  0.00    +0.000 C 
ATOM      7  C   UNL     1      -9.065   2.205 130.628  0.00  0.00    +0.000 C 
BRANCH   6  10
ATOM      8  C   UNL     1      -7.666  -0.997 129.775  0.00  0.00    +0.000 C 
ATOM      9  C   UNL     1      -7.707  -1.485 131.214  0.00  0.00    +0.000 C 
ATOM     10  C   UNL     1      -7.830   0.322 129.499  0.00  0.00    +0.000 C 
BRANCH   8  12
ATOM     11  C   UNL     1      -7.622  -1.703 127.385  0.00  0.00    +0.000 C 
ATOM     12  C   UNL     1      -7.447  -1.966 128.690  0.00  0.00    +0.000 C 
BRANCH  11  15
ATOM     13  C   UNL     1      -6.392  -2.481 125.402  0.00  0.00    +0.000 C 
ATOM     14  C   UNL     1      -5.371  -1.368 125.559  0.00  0.00    +0.000 C 
ATOM     15  C   UNL     1      -7.425  -2.606 126.269  0.00  0.00    +0.000 C 
BRANCH  13  16
ATOM     16  C   UNL     1      -6.247  -3.468 124.252  0.00  0.00    +0.000 C 
BRANCH  16  17
ATOM     17  C   UNL     1      -6.470  -2.845 122.874  0.00  0.00    +0.000 C 
BRANCH  17  21
ATOM     18  C   UNL     1      -9.557  -0.524 122.911  0.00  0.00    +0.000 C 
ATOM     19  C   UNL     1      -8.697  -1.751 122.942  0.00  0.00    +0.000 C 
ATOM     20  C   UNL     1      -9.377  -3.089 123.082  0.00  0.00    +0.000 C 
ATOM     21  C   UNL     1      -7.357  -1.642 122.847  0.00  0.00    +0.000 C 
ENDBRANCH  17  21
ENDBRANCH  16  17
ENDBRANCH  13  16
ENDBRANCH  11  15
ENDBRANCH   8  12
ENDBRANCH   6  10
ENDBRANCH   3   7
ENDBRANCH   1   5
BRANCH   2  22
ATOM     22  C   UNL     1      -8.000   5.662 135.547  0.00  0.00    +0.000 C 
ATOM     23  C   UNL     1      -7.066   5.814 136.516  0.00  0.00    +0.000 C 
ATOM     24  C   UNL     1      -5.795   4.989 136.546  0.00  0.00    +0.000 C 
BRANCH  23  25
ATOM     25  C   UNL     1      -7.253   6.805 137.599  0.00  0.00    +0.000 C 
ATOM     26  C   UNL     1      -8.089   7.854 137.507  0.00  0.00    +0.000 C 
BRANCH  26  27
ATOM     27  C   UNL     1      -8.347   8.881 138.503  0.00  0.00    +0.000 C 
ATOM     28  C   UNL     1      -9.554   9.465 138.708  0.00  0.00    +0.000 C 
ATOM     29  C   UNL     1     -10.796   9.105 137.908  0.00  0.00    +0.000 C 
BRANCH  28  30
ATOM     30  C   UNL     1      -9.716  10.501 139.748  0.00  0.00    +0.000 C 
ATOM     31  C   UNL     1      -8.824  11.483 139.958  0.00  0.00    +0.000 C 
BRANCH  31  32
ATOM     32  C   UNL     1      -8.885  12.543 140.943  0.00  0.00    +0.000 C 
ATOM     33  C   UNL     1      -8.099  13.645 140.920  0.00  0.00    +0.000 C 
ATOM     34  C   UNL     1      -7.052  13.908 139.853  0.00  0.00    +0.000 C 
BRANCH  33  35
ATOM     35  C   UNL     1      -8.243  14.707 142.011  0.00  0.00    +0.000 C 
BRANCH  35  36
ATOM     36  C   UNL     1      -8.960  15.974 141.534  0.00  0.00    +0.000 C 
BRANCH  36  37
ATOM     37  C   UNL     1     -10.420  16.053 141.852  0.00  0.00    +0.000 C 
ATOM     38  C   UNL     1     -11.369  15.735 140.949  0.00  0.00    +0.000 C 
ATOM     39  C   UNL     1     -11.051  15.274 139.548  0.00  0.00    +0.000 C 
ATOM     40  C   UNL     1     -12.826  15.825 141.298  0.00  0.00    +0.000 C 
ENDBRANCH  36  37
ENDBRANCH  35  36
ENDBRANCH  33  35
ENDBRANCH  31  32
ENDBRANCH  28  30
ENDBRANCH  26  27
ENDBRANCH  23  25
ENDBRANCH   2  22
TORSDOF 16
ENDMDL
MODEL 3
REMARK VINA RESULT:      -7.6      1.298      2.041
REMARK  Name = Lycopene
REMARK  26 active torsions:
REMARK  status: ('A' for Active; 'I' for Inactive)
REMARK    1  A    between atoms: C_1  and  C_2
REMARK    2  A    between atoms: C_2  and  C_3
REMARK    3  A    between atoms: C_4  and  C_5
REMARK    4  A    between atoms: C_5  and  C_6
REMARK    5  A    between atoms: C_6  and  C_7
REMARK    6  A    between atoms: C_7  and  C_8
REMARK    7  A    between atoms: C_9  and  C_10
REMARK    8  A    between atoms: C_11  and  C_12
REMARK    9  A    between atoms: C_12  and  C_13
REMARK   10  A    between atoms: C_14  and  C_15
REMARK   11  A    between atoms: C_16  and  C_17
REMARK   12  A    between atoms: C_17  and  C_18
REMARK   13  A    between atoms: C_19  and  C_20
REMARK   14  A    between atoms: C_21  and  C_22
REMARK   15  A    between atoms: C_23  and  C_24
REMARK   16  A    between atoms: C_23  and  C_25
REMARK   17  A    between atoms: C_26  and  C_27
REMARK   18  A    between atoms: C_28  and  C_29
REMARK   19  A    between atoms: C_28  and  C_30
REMARK   20  A    between atoms: C_31  and  C_32
REMARK   21  A    between atoms: C_33  and  C_34
REMARK   22  A    between atoms: C_33  and  C_35
REMARK   23  A    between atoms: C_35  and  C_36
REMARK   24  A    between atoms: C_36  and  C_37
REMARK   25  A    between atoms: C_38  and  C_39
REMARK   26  A    between atoms: C_38  and  C_40
REMARK                            x       y       z     vdW  Elec       q    Type
REMARK                         _______ _______ _______ _____ _____    ______ ____
ROOT
ATOM      1  C   UNL     1      -7.877   4.885 134.458  0.00  0.00    +0.000 C 
ATOM      2  C   UNL     1      -8.766   3.970 134.043  0.00  0.00    +0.000 C 
ENDROOT
BRANCH   1   5
ATOM      3  C   UNL     1      -7.188   5.907 136.617  0.00  0.00    +0.000 C 
ATOM      4  C   UNL     1      -5.879   5.153 136.537  0.00  0.00    +0.000 C 
ATOM      5  C   UNL     1      -8.089   5.747 135.619  0.00  0.00    +0.000 C 
BRANCH   3   7
ATOM      6  C   UNL     1      -7.836   8.082 137.659  0.00  0.00    +0.000 C 
ATOM      7  C   UNL     1      -7.467   6.793 137.762  0.00  0.00    +0.000 C 
BRANCH   6  10
ATOM      8  C   UNL     1      -9.367   9.528 138.959  0.00  0.00    +0.000 C 
ATOM      9  C   UNL     1     -10.530   9.121 138.068  0.00  0.00    +0.000 C 
ATOM     10  C   UNL     1      -8.128   9.021 138.734  0.00  0.00    +0.000 C 
BRANCH   8  12
ATOM     11  C   UNL     1      -9.253  11.771 140.040  0.00  0.00    +0.000 C 
ATOM     12  C   UNL     1      -9.598  10.474 140.061  0.00  0.00    +0.000 C 
BRANCH  11  15
ATOM     13  C   UNL     1     -10.336  13.772 140.974  0.00  0.00    +0.000 C 
ATOM     14  C   UNL     1     -11.182  13.938 139.724  0.00  0.00    +0.000 C 
ATOM     15  C   UNL     1      -9.450  12.754 141.086  0.00  0.00    +0.000 C 
BRANCH  13  16
ATOM     16  C   UNL     1     -10.492  14.768 142.114  0.00  0.00    +0.000 C 
BRANCH  16  17
ATOM     17  C   UNL     1     -10.071  16.192 141.750  0.00  0.00    +0.000 C 
BRANCH  17  21
ATOM     18  C   UNL     1      -6.838  16.875 139.752  0.00  0.00    +0.000 C 
ATOM     19  C   UNL     1      -8.284  16.715 140.109  0.00  0.00    +0.000 C 
ATOM     20  C   UNL     1      -9.311  16.962 139.033  0.00  0.00    +0.000 C 
ATOM     21  C   UNL     1      -8.638  16.360 141.360  0.00  0.00    +0.000 C 
ENDBRANCH  17  21
ENDBRANCH  16  17
ENDBRANCH  13  16
ENDBRANCH  11  15
ENDBRANCH   8  12
ENDBRANCH   6  10
ENDBRANCH   3   7
ENDBRANCH   1   5
BRANCH   2  22
ATOM     22  C   UNL     1      -8.580   3.100 132.890  0.00  0.00    +0.000 C 
ATOM     23  C   UNL     1      -9.032   3.360 131.641  0.00  0.00    +0.000 C 
ATOM     24  C   UNL     1      -9.801   4.622 131.308  0.00  0.00    +0.000 C 
BRANCH  23  25
ATOM     25  C   UNL     1      -8.788   2.407 130.534  0.00  0.00    +0.000 C 
ATOM     26  C   UNL     1      -8.283   1.174 130.716  0.00  0.00    +0.000 C 
BRANCH  26  27
ATOM     27  C   UNL     1      -8.005   0.164 129.708  0.00  0.00    +0.000 C 
ATOM     28  C   UNL     1      -7.824  -1.154 129.971  0.00  0.00    +0.000 C 
ATOM     29  C   UNL     1      -7.891  -1.736 131.374  0.00  0.00    +0.000 C 
BRANCH  28  30
ATOM     30  C   UNL     1      -7.546  -2.104 128.875  0.00  0.00    +0.000 C 
ATOM     31  C   UNL     1      -7.172  -1.722 127.643  0.00  0.00    +0.000 C 
BRANCH  31  32
ATOM     32  C   UNL     1      -6.877  -2.565 126.503  0.00  0.00    +0.000 C 
ATOM     33  C   UNL     1      -6.048  -2.210 125.493  0.00  0.00    +0.000 C 
ATOM     34  C   UNL     1      -5.321  -0.880 125.430  0.00  0.00    +0.000 C 
BRANCH  33  35
ATOM     35  C   UNL     1      -5.804  -3.176 124.332  0.00  0.00    +0.000 C 
BRANCH  35  36
ATOM     36  C   UNL     1      -5.959  -2.522 122.955  0.00  0.00    +0.000 C 
BRANCH  36  37
ATOM     37  C   UNL     1      -7.062  -1.519 122.833  0.00  0.00    +0.000 C 
ATOM     38  C   UNL     1      -8.357  -1.856 122.986  0.00  0.00    +0.000 C 
ATOM     39  C   UNL     1      -8.812  -3.263 123.292  0.00  0.00    +0.000 C 
ATOM     40  C   UNL     1      -9.443  -0.827 122.857  0.00  0.00    +0.000 C 
ENDBRANCH  36  37
ENDBRANCH  35  36
ENDBRANCH  33  35
ENDBRANCH  31  32
ENDBRANCH  28  30
ENDBRANCH  26  27
ENDBRANCH  23  25
ENDBRANCH   2  22
TORSDOF 16
ENDMDL
MODEL 4
REMARK VINA RESULT:      -7.4      7.450      8.733
REMARK  Name = Lycopene
REMARK  26 active torsions:
REMARK  status: ('A' for Active; 'I' for Inactive)
REMARK    1  A    between atoms: C_1  and  C_2
REMARK    2  A    between atoms: C_2  and  C_3
REMARK    3  A    between atoms: C_4  and  C_5
REMARK    4  A    between atoms: C_5  and  C_6
REMARK    5  A    between atoms: C_6  and  C_7
REMARK    6  A    between atoms: C_7  and  C_8
REMARK    7  A    between atoms: C_9  and  C_10
REMARK    8  A    between atoms: C_11  and  C_12
REMARK    9  A    between atoms: C_12  and  C_13
REMARK   10  A    between atoms: C_14  and  C_15
REMARK   11  A    between atoms: C_16  and  C_17
REMARK   12  A    between atoms: C_17  and  C_18
REMARK   13  A    between atoms: C_19  and  C_20
REMARK   14  A    between atoms: C_21  and  C_22
REMARK   15  A    between atoms: C_23  and  C_24
REMARK   16  A    between atoms: C_23  and  C_25
REMARK   17  A    between atoms: C_26  and  C_27
REMARK   18  A    between atoms: C_28  and  C_29
REMARK   19  A    between atoms: C_28  and  C_30
REMARK   20  A    between atoms: C_31  and  C_32
REMARK   21  A    between atoms: C_33  and  C_34
REMARK   22  A    between atoms: C_33  and  C_35
REMARK   23  A    between atoms: C_35  and  C_36
REMARK   24  A    between atoms: C_36  and  C_37
REMARK   25  A    between atoms: C_38  and  C_39
REMARK   26  A    between atoms: C_38  and  C_40
REMARK                            x       y       z     vdW  Elec       q    Type
REMARK                         _______ _______ _______ _____ _____    ______ ____
ROOT
ATOM      1  C   UNL     1      -3.240   7.297 131.617  0.00  0.00    +0.000 C 
ATOM      2  C   UNL     1      -3.743   7.561 130.402  0.00  0.00    +0.000 C 
ENDROOT
BRANCH   1   5
ATOM      3  C   UNL     1      -1.280   8.188 132.859  0.00  0.00    +0.000 C 
ATOM      4  C   UNL     1      -0.486   6.968 132.447  0.00  0.00    +0.000 C 
ATOM      5  C   UNL     1      -2.565   8.294 132.444  0.00  0.00    +0.000 C 
BRANCH   3   7
ATOM      6  C   UNL     1       0.213  10.153 133.245  0.00  0.00    +0.000 C 
ATOM      7  C   UNL     1      -0.659   9.232 133.694  0.00  0.00    +0.000 C 
BRANCH   6  10
ATOM      8  C   UNL     1       1.219  12.404 133.452  0.00  0.00    +0.000 C 
ATOM      9  C   UNL     1       0.932  12.683 131.986  0.00  0.00    +0.000 C 
ATOM     10  C   UNL     1       0.868  11.213 133.999  0.00  0.00    +0.000 C 
BRANCH   8  12
ATOM     11  C   UNL     1       1.380  13.945 135.405  0.00  0.00    +0.000 C 
ATOM     12  C   UNL     1       1.880  13.435 134.269  0.00  0.00    +0.000 C 
BRANCH  11  15
ATOM     13  C   UNL     1       1.235  15.793 137.022  0.00  0.00    +0.000 C 
ATOM     14  C   UNL     1      -0.281  15.709 137.032  0.00  0.00    +0.000 C 
ATOM     15  C   UNL     1       1.975  14.957 136.254  0.00  0.00    +0.000 C 
BRANCH  13  16
ATOM     16  C   UNL     1       1.929  16.833 137.891  0.00  0.00    +0.000 C 
BRANCH  16  17
ATOM     17  C   UNL     1       3.030  16.256 138.781  0.00  0.00    +0.000 C 
BRANCH  17  21
ATOM     18  C   UNL     1       2.451  13.244 141.126  0.00  0.00    +0.000 C 
ATOM     19  C   UNL     1       2.937  14.091 139.991  0.00  0.00    +0.000 C 
ATOM     20  C   UNL     1       3.844  13.454 138.969  0.00  0.00    +0.000 C 
ATOM     21  C   UNL     1       2.564  15.383 139.901  0.00  0.00    +0.000 C 
ENDBRANCH  17  21
ENDBRANCH  16  17
ENDBRANCH  13  16
ENDBRANCH  11  15
ENDBRANCH   8  12
ENDBRANCH   6  10
ENDBRANCH   3   7
ENDBRANCH   1   5
BRANCH   2  22
ATOM     22  C   UNL     1      -4.419   6.586 129.557  0.00  0.00    +0.000 C 
ATOM     23  C   UNL     1      -3.850   5.934 128.515  0.00  0.00    +0.000 C 
ATOM     24  C   UNL     1      -2.407   6.163 128.114  0.00  0.00    +0.000 C 
BRANCH  23  25
ATOM     25  C   UNL     1      -4.627   4.959 127.718  0.00  0.00    +0.000 C 
ATOM     26  C   UNL     1      -4.475   3.626 127.824  0.00  0.00    +0.000 C 
BRANCH  26  27
ATOM     27  C   UNL     1      -5.180   2.586 127.094  0.00  0.00    +0.000 C 
ATOM     28  C   UNL     1      -5.453   1.352 127.587  0.00  0.00    +0.000 C 
ATOM     29  C   UNL     1      -5.046   0.909 128.984  0.00  0.00    +0.000 C 
BRANCH  28  30
ATOM     30  C   UNL     1      -6.177   0.361 126.765  0.00  0.00    +0.000 C 
ATOM     31  C   UNL     1      -7.489   0.106 126.901  0.00  0.00    +0.000 C 
BRANCH  31  32
ATOM     32  C   UNL     1      -8.292  -0.839 126.153  0.00  0.00    +0.000 C 
ATOM     33  C   UNL     1      -8.481  -2.128 126.518  0.00  0.00    +0.000 C 
ATOM     34  C   UNL     1      -7.873  -2.748 127.763  0.00  0.00    +0.000 C 
BRANCH  33  35
ATOM     35  C   UNL     1      -9.349  -3.045 125.655  0.00  0.00    +0.000 C 
BRANCH  35  36
ATOM     36  C   UNL     1      -8.674  -3.464 124.345  0.00  0.00    +0.000 C 
BRANCH  36  37
ATOM     37  C   UNL     1      -7.191  -3.653 124.409  0.00  0.00    +0.000 C 
ATOM     38  C   UNL     1      -6.342  -2.913 123.670  0.00  0.00    +0.000 C 
ATOM     39  C   UNL     1      -6.801  -1.836 122.717  0.00  0.00    +0.000 C 
ATOM     40  C   UNL     1      -4.858  -3.126 123.756  0.00  0.00    +0.000 C 
ENDBRANCH  36  37
ENDBRANCH  35  36
ENDBRANCH  33  35
ENDBRANCH  31  32
ENDBRANCH  28  30
ENDBRANCH  26  27
ENDBRANCH  23  25
ENDBRANCH   2  22
TORSDOF 16
ENDMDL
MODEL 5
REMARK VINA RESULT:      -7.1      2.152      3.221
REMARK  Name = Lycopene
REMARK  26 active torsions:
REMARK  status: ('A' for Active; 'I' for Inactive)
REMARK    1  A    between atoms: C_1  and  C_2
REMARK    2  A    between atoms: C_2  and  C_3
REMARK    3  A    between atoms: C_4  and  C_5
REMARK    4  A    between atoms: C_5  and  C_6
REMARK    5  A    between atoms: C_6  and  C_7
REMARK    6  A    between atoms: C_7  and  C_8
REMARK    7  A    between atoms: C_9  and  C_10
REMARK    8  A    between atoms: C_11  and  C_12
REMARK    9  A    between atoms: C_12  and  C_13
REMARK   10  A    between atoms: C_14  and  C_15
REMARK   11  A    between atoms: C_16  and  C_17
REMARK   12  A    between atoms: C_17  and  C_18
REMARK   13  A    between atoms: C_19  and  C_20
REMARK   14  A    between atoms: C_21  and  C_22
REMARK   15  A    between atoms: C_23  and  C_24
REMARK   16  A    between atoms: C_23  and  C_25
REMARK   17  A    between atoms: C_26  and  C_27
REMARK   18  A    between atoms: C_28  and  C_29
REMARK   19  A    between atoms: C_28  and  C_30
REMARK   20  A    between atoms: C_31  and  C_32
REMARK   21  A    between atoms: C_33  and  C_34
REMARK   22  A    between atoms: C_33  and  C_35
REMARK   23  A    between atoms: C_35  and  C_36
REMARK   24  A    between atoms: C_36  and  C_37
REMARK   25  A    between atoms: C_38  and  C_39
REMARK   26  A    between atoms: C_38  and  C_40
REMARK                            x       y       z     vdW  Elec       q    Type
REMARK                         _______ _______ _______ _____ _____    ______ ____
ROOT
ATOM      1  C   UNL     1      -7.480   5.154 134.848  0.00  0.00    +0.000 C 
ATOM      2  C   UNL     1      -8.003   5.287 133.619  0.00  0.00    +0.000 C 
ENDROOT
BRANCH   1   5
ATOM      3  C   UNL     1      -7.059   6.114 137.102  0.00  0.00    +0.000 C 
ATOM      4  C   UNL     1      -5.887   5.172 137.265  0.00  0.00    +0.000 C 
ATOM      5  C   UNL     1      -7.773   6.065 135.952  0.00  0.00    +0.000 C 
BRANCH   3   7
ATOM      6  C   UNL     1      -7.756   8.344 137.984  0.00  0.00    +0.000 C 
ATOM      7  C   UNL     1      -7.410   7.059 138.178  0.00  0.00    +0.000 C 
BRANCH   6  10
ATOM      8  C   UNL     1      -9.364   9.858 139.102  0.00  0.00    +0.000 C 
ATOM      9  C   UNL     1     -10.467   9.406 138.159  0.00  0.00    +0.000 C 
ATOM     10  C   UNL     1      -8.115   9.338 138.987  0.00  0.00    +0.000 C 
BRANCH   8  12
ATOM     11  C   UNL     1     -10.011  12.133 139.888  0.00  0.00    +0.000 C 
ATOM     12  C   UNL     1      -9.663  10.860 140.136  0.00  0.00    +0.000 C 
BRANCH  11  15
ATOM     13  C   UNL     1     -10.813  14.377 140.498  0.00  0.00    +0.000 C 
ATOM     14  C   UNL     1     -11.076  14.714 139.041  0.00  0.00    +0.000 C 
ATOM     15  C   UNL     1     -10.318  13.168 140.855  0.00  0.00    +0.000 C 
BRANCH  13  16
ATOM     16  C   UNL     1     -11.113  15.417 141.568  0.00  0.00    +0.000 C 
BRANCH  16  17
ATOM     17  C   UNL     1      -9.866  16.098 142.131  0.00  0.00    +0.000 C 
BRANCH  17  21
ATOM     18  C   UNL     1      -6.902  16.956 139.809  0.00  0.00    +0.000 C 
ATOM     19  C   UNL     1      -7.763  16.268 140.823  0.00  0.00    +0.000 C 
ATOM     20  C   UNL     1      -7.223  15.025 141.485  0.00  0.00    +0.000 C 
ATOM     21  C   UNL     1      -8.981  16.759 141.124  0.00  0.00    +0.000 C 
ENDBRANCH  17  21
ENDBRANCH  16  17
ENDBRANCH  13  16
ENDBRANCH  11  15
ENDBRANCH   8  12
ENDBRANCH   6  10
ENDBRANCH   3   7
ENDBRANCH   1   5
BRANCH   2  22
ATOM     22  C   UNL     1      -7.728   4.394 132.503  0.00  0.00    +0.000 C 
ATOM     23  C   UNL     1      -6.843   4.645 131.508  0.00  0.00    +0.000 C 
ATOM     24  C   UNL     1      -6.028   5.921 131.459  0.00  0.00    +0.000 C 
BRANCH  23  25
ATOM     25  C   UNL     1      -6.636   3.668 130.415  0.00  0.00    +0.000 C 
ATOM     26  C   UNL     1      -6.354   4.022 129.149  0.00  0.00    +0.000 C 
BRANCH  26  27
ATOM     27  C   UNL     1      -6.134   3.152 128.006  0.00  0.00    +0.000 C 
ATOM     28  C   UNL     1      -4.967   2.512 127.742  0.00  0.00    +0.000 C 
ATOM     29  C   UNL     1      -3.736   2.634 128.626  0.00  0.00    +0.000 C 
BRANCH  28  30
ATOM     30  C   UNL     1      -4.842   1.646 126.552  0.00  0.00    +0.000 C 
ATOM     31  C   UNL     1      -5.668   0.618 126.296  0.00  0.00    +0.000 C 
BRANCH  31  32
ATOM     32  C   UNL     1      -5.635  -0.288 125.167  0.00  0.00    +0.000 C 
ATOM     33  C   UNL     1      -6.608  -0.366 124.230  0.00  0.00    +0.000 C 
ATOM     34  C   UNL     1      -7.862   0.490 124.245  0.00  0.00    +0.000 C 
BRANCH  33  35
ATOM     35  C   UNL     1      -6.476  -1.360 123.074  0.00  0.00    +0.000 C 
BRANCH  35  36
ATOM     36  C   UNL     1      -6.441  -2.822 123.532  0.00  0.00    +0.000 C 
BRANCH  36  37
ATOM     37  C   UNL     1      -7.067  -3.102 124.862  0.00  0.00    +0.000 C 
ATOM     38  C   UNL     1      -8.390  -3.317 125.001  0.00  0.00    +0.000 C 
ATOM     39  C   UNL     1      -9.354  -3.295 123.840  0.00  0.00    +0.000 C 
ATOM     40  C   UNL     1      -8.988  -3.595 126.349  0.00  0.00    +0.000 C 
ENDBRANCH  36  37
ENDBRANCH  35  36
ENDBRANCH  33  35
ENDBRANCH  31  32
ENDBRANCH  28  30
ENDBRANCH  26  27
ENDBRANCH  23  25
ENDBRANCH   2  22
TORSDOF 16
ENDMDL
MODEL 6
REMARK VINA RESULT:      -7.1      2.061      3.066
REMARK  Name = Lycopene
REMARK  26 active torsions:
REMARK  status: ('A' for Active; 'I' for Inactive)
REMARK    1  A    between atoms: C_1  and  C_2
REMARK    2  A    between atoms: C_2  and  C_3
REMARK    3  A    between atoms: C_4  and  C_5
REMARK    4  A    between atoms: C_5  and  C_6
REMARK    5  A    between atoms: C_6  and  C_7
REMARK    6  A    between atoms: C_7  and  C_8
REMARK    7  A    between atoms: C_9  and  C_10
REMARK    8  A    between atoms: C_11  and  C_12
REMARK    9  A    between atoms: C_12  and  C_13
REMARK   10  A    between atoms: C_14  and  C_15
REMARK   11  A    between atoms: C_16  and  C_17
REMARK   12  A    between atoms: C_17  and  C_18
REMARK   13  A    between atoms: C_19  and  C_20
REMARK   14  A    between atoms: C_21  and  C_22
REMARK   15  A    between atoms: C_23  and  C_24
REMARK   16  A    between atoms: C_23  and  C_25
REMARK   17  A    between atoms: C_26  and  C_27
REMARK   18  A    between atoms: C_28  and  C_29
REMARK   19  A    between atoms: C_28  and  C_30
REMARK   20  A    between atoms: C_31  and  C_32
REMARK   21  A    between atoms: C_33  and  C_34
REMARK   22  A    between atoms: C_33  and  C_35
REMARK   23  A    between atoms: C_35  and  C_36
REMARK   24  A    between atoms: C_36  and  C_37
REMARK   25  A    between atoms: C_38  and  C_39
REMARK   26  A    between atoms: C_38  and  C_40
REMARK                            x       y       z     vdW  Elec       q    Type
REMARK                         _______ _______ _______ _____ _____    ______ ____
ROOT
ATOM      1  C   UNL     1      -7.595   5.333 135.488  0.00  0.00    +0.000 C 
ATOM      2  C   UNL     1      -7.791   5.495 134.171  0.00  0.00    +0.000 C 
ENDROOT
BRANCH   1   5
ATOM      3  C   UNL     1      -6.569   6.969 137.053  0.00  0.00    +0.000 C 
ATOM      4  C   UNL     1      -5.204   6.413 136.712  0.00  0.00    +0.000 C 
ATOM      5  C   UNL     1      -7.656   6.428 136.453  0.00  0.00    +0.000 C 
BRANCH   3   7
ATOM      6  C   UNL     1      -7.483   9.155 137.843  0.00  0.00    +0.000 C 
ATOM      7  C   UNL     1      -6.702   8.074 138.020  0.00  0.00    +0.000 C 
BRANCH   6  10
ATOM      8  C   UNL     1      -8.876  10.623 139.267  0.00  0.00    +0.000 C 
ATOM      9  C   UNL     1     -10.112   9.811 138.921  0.00  0.00    +0.000 C 
ATOM     10  C   UNL     1      -7.670  10.284 138.744  0.00  0.00    +0.000 C 
BRANCH   8  12
ATOM     11  C   UNL     1     -10.160  12.255 140.646  0.00  0.00    +0.000 C 
ATOM     12  C   UNL     1      -8.999  11.777 140.171  0.00  0.00    +0.000 C 
BRANCH  11  15
ATOM     13  C   UNL     1     -10.902  14.551 141.126  0.00  0.00    +0.000 C 
ATOM     14  C   UNL     1     -11.352  14.741 139.688  0.00  0.00    +0.000 C 
ATOM     15  C   UNL     1     -10.352  13.383 141.536  0.00  0.00    +0.000 C 
BRANCH  13  16
ATOM     16  C   UNL     1     -11.074  15.694 142.116  0.00  0.00    +0.000 C 
BRANCH  16  17
ATOM     17  C   UNL     1      -9.791  16.483 142.376  0.00  0.00    +0.000 C 
BRANCH  17  21
ATOM     18  C   UNL     1      -6.879  16.358 139.842  0.00  0.00    +0.000 C 
ATOM     19  C   UNL     1      -7.725  16.106 141.053  0.00  0.00    +0.000 C 
ATOM     20  C   UNL     1      -7.194  15.165 142.105  0.00  0.00    +0.000 C 
ATOM     21  C   UNL     1      -8.922  16.711 141.181  0.00  0.00    +0.000 C 
ENDBRANCH  17  21
ENDBRANCH  16  17
ENDBRANCH  13  16
ENDBRANCH  11  15
ENDBRANCH   8  12
ENDBRANCH   6  10
ENDBRANCH   3   7
ENDBRANCH   1   5
BRANCH   2  22
ATOM     22  C   UNL     1      -7.735   4.421 133.188  0.00  0.00    +0.000 C 
ATOM     23  C   UNL     1      -8.200   4.506 131.919  0.00  0.00    +0.000 C 
ATOM     24  C   UNL     1      -8.845   5.766 131.380  0.00  0.00    +0.000 C 
BRANCH  23  25
ATOM     25  C   UNL     1      -8.095   3.353 130.996  0.00  0.00    +0.000 C 
ATOM     26  C   UNL     1      -8.667   3.323 129.779  0.00  0.00    +0.000 C 
BRANCH  26  27
ATOM     27  C   UNL     1      -8.628   2.250 128.799  0.00  0.00    +0.000 C 
ATOM     28  C   UNL     1      -7.699   2.142 127.817  0.00  0.00    +0.000 C 
ATOM     29  C   UNL     1      -6.573   3.146 127.626  0.00  0.00    +0.000 C 
BRANCH  28  30
ATOM     30  C   UNL     1      -7.743   1.011 126.868  0.00  0.00    +0.000 C 
ATOM     31  C   UNL     1      -8.487  -0.090 127.064  0.00  0.00    +0.000 C 
BRANCH  31  32
ATOM     32  C   UNL     1      -8.603  -1.249 126.203  0.00  0.00    +0.000 C 
ATOM     33  C   UNL     1      -8.459  -2.525 126.629  0.00  0.00    +0.000 C 
ATOM     34  C   UNL     1      -8.157  -2.904 128.068  0.00  0.00    +0.000 C 
BRANCH  33  35
ATOM     35  C   UNL     1      -8.600  -3.681 125.636  0.00  0.00    +0.000 C 
BRANCH  35  36
ATOM     36  C   UNL     1      -7.857  -3.442 124.317  0.00  0.00    +0.000 C 
BRANCH  36  37
ATOM     37  C   UNL     1      -6.460  -3.973 124.252  0.00  0.00    +0.000 C 
ATOM     38  C   UNL     1      -5.500  -3.377 123.518  0.00  0.00    +0.000 C 
ATOM     39  C   UNL     1      -5.742  -2.132 122.700  0.00  0.00    +0.000 C 
ATOM     40  C   UNL     1      -4.107  -3.935 123.473  0.00  0.00    +0.000 C 
ENDBRANCH  36  37
ENDBRANCH  35  36
ENDBRANCH  33  35
ENDBRANCH  31  32
ENDBRANCH  28  30
ENDBRANCH  26  27
ENDBRANCH  23  25
ENDBRANCH   2  22
TORSDOF 16
ENDMDL
MODEL 7
REMARK VINA RESULT:      -7.1      7.007      8.209
REMARK  Name = Lycopene
REMARK  26 active torsions:
REMARK  status: ('A' for Active; 'I' for Inactive)
REMARK    1  A    between atoms: C_1  and  C_2
REMARK    2  A    between atoms: C_2  and  C_3
REMARK    3  A    between atoms: C_4  and  C_5
REMARK    4  A    between atoms: C_5  and  C_6
REMARK    5  A    between atoms: C_6  and  C_7
REMARK    6  A    between atoms: C_7  and  C_8
REMARK    7  A    between atoms: C_9  and  C_10
REMARK    8  A    between atoms: C_11  and  C_12
REMARK    9  A    between atoms: C_12  and  C_13
REMARK   10  A    between atoms: C_14  and  C_15
REMARK   11  A    between atoms: C_16  and  C_17
REMARK   12  A    between atoms: C_17  and  C_18
REMARK   13  A    between atoms: C_19  and  C_20
REMARK   14  A    between atoms: C_21  and  C_22
REMARK   15  A    between atoms: C_23  and  C_24
REMARK   16  A    between atoms: C_23  and  C_25
REMARK   17  A    between atoms: C_26  and  C_27
REMARK   18  A    between atoms: C_28  and  C_29
REMARK   19  A    between atoms: C_28  and  C_30
REMARK   20  A    between atoms: C_31  and  C_32
REMARK   21  A    between atoms: C_33  and  C_34
REMARK   22  A    between atoms: C_33  and  C_35
REMARK   23  A    between atoms: C_35  and  C_36
REMARK   24  A    between atoms: C_36  and  C_37
REMARK   25  A    between atoms: C_38  and  C_39
REMARK   26  A    between atoms: C_38  and  C_40
REMARK                            x       y       z     vdW  Elec       q    Type
REMARK                         _______ _______ _______ _____ _____    ______ ____
ROOT
ATOM      1  C   UNL     1      -3.292   7.177 131.888  0.00  0.00    +0.000 C 
ATOM      2  C   UNL     1      -3.884   7.450 130.716  0.00  0.00    +0.000 C 
ENDROOT
BRANCH   1   5
ATOM      3  C   UNL     1      -1.274   8.139 132.976  0.00  0.00    +0.000 C 
ATOM      4  C   UNL     1      -0.453   6.993 132.428  0.00  0.00    +0.000 C 
ATOM      5  C   UNL     1      -2.599   8.179 132.694  0.00  0.00    +0.000 C 
BRANCH   3   7
ATOM      6  C   UNL     1      -0.296  10.406 133.351  0.00  0.00    +0.000 C 
ATOM      7  C   UNL     1      -0.638   9.184 133.797  0.00  0.00    +0.000 C 
BRANCH   6  10
ATOM      8  C   UNL     1       0.858  12.591 133.497  0.00  0.00    +0.000 C 
ATOM      9  C   UNL     1       0.807  12.735 131.984  0.00  0.00    +0.000 C 
ATOM     10  C   UNL     1       0.333  11.490 134.093  0.00  0.00    +0.000 C 
BRANCH   8  12
ATOM     11  C   UNL     1       0.880  14.290 135.320  0.00  0.00    +0.000 C 
ATOM     12  C   UNL     1       1.481  13.652 134.303  0.00  0.00    +0.000 C 
BRANCH  11  15
ATOM     13  C   UNL     1       2.107  15.083 137.299  0.00  0.00    +0.000 C 
ATOM     14  C   UNL     1       2.320  13.658 137.778  0.00  0.00    +0.000 C 
ATOM     15  C   UNL     1       1.433  15.340 136.152  0.00  0.00    +0.000 C 
BRANCH  13  16
ATOM     16  C   UNL     1       2.662  16.236 138.124  0.00  0.00    +0.000 C 
BRANCH  16  17
ATOM     17  C   UNL     1       2.193  16.233 139.579  0.00  0.00    +0.000 C 
BRANCH  17  21
ATOM     18  C   UNL     1      -1.421  15.572 140.769  0.00  0.00    +0.000 C 
ATOM     19  C   UNL     1       0.062  15.460 140.590  0.00  0.00    +0.000 C 
ATOM     20  C   UNL     1       0.786  14.369 141.338  0.00  0.00    +0.000 C 
ATOM     21  C   UNL     1       0.715  16.317 139.780  0.00  0.00    +0.000 C 
ENDBRANCH  17  21
ENDBRANCH  16  17
ENDBRANCH  13  16
ENDBRANCH  11  15
ENDBRANCH   8  12
ENDBRANCH   6  10
ENDBRANCH   3   7
ENDBRANCH   1   5
BRANCH   2  22
ATOM     22  C   UNL     1      -4.581   6.471 129.893  0.00  0.00    +0.000 C 
ATOM     23  C   UNL     1      -4.006   5.731 128.915  0.00  0.00    +0.000 C 
ATOM     24  C   UNL     1      -2.536   5.853 128.570  0.00  0.00    +0.000 C 
BRANCH  23  25
ATOM     25  C   UNL     1      -4.804   4.759 128.134  0.00  0.00    +0.000 C 
ATOM     26  C   UNL     1      -5.610   3.840 128.695  0.00  0.00    +0.000 C 
BRANCH  26  27
ATOM     27  C   UNL     1      -6.432   2.845 128.028  0.00  0.00    +0.000 C 
ATOM     28  C   UNL     1      -7.694   2.516 128.401  0.00  0.00    +0.000 C 
ATOM     29  C   UNL     1      -8.405   3.162 129.580  0.00  0.00    +0.000 C 
BRANCH  28  30
ATOM     30  C   UNL     1      -8.451   1.489 127.656  0.00  0.00    +0.000 C 
ATOM     31  C   UNL     1      -7.887   0.381 127.146  0.00  0.00    +0.000 C 
BRANCH  31  32
ATOM     32  C   UNL     1      -8.532  -0.682 126.403  0.00  0.00    +0.000 C 
ATOM     33  C   UNL     1      -8.540  -1.979 126.791  0.00  0.00    +0.000 C 
ATOM     34  C   UNL     1      -7.871  -2.483 128.056  0.00  0.00    +0.000 C 
BRANCH  33  35
ATOM     35  C   UNL     1      -9.251  -3.027 125.932  0.00  0.00    +0.000 C 
BRANCH  35  36
ATOM     36  C   UNL     1      -8.296  -3.843 125.056  0.00  0.00    +0.000 C 
BRANCH  36  37
ATOM     37  C   UNL     1      -7.818  -3.166 123.811  0.00  0.00    +0.000 C 
ATOM     38  C   UNL     1      -6.580  -2.643 123.710  0.00  0.00    +0.000 C 
ATOM     39  C   UNL     1      -5.571  -2.690 124.832  0.00  0.00    +0.000 C 
ATOM     40  C   UNL     1      -6.128  -1.969 122.446  0.00  0.00    +0.000 C 
ENDBRANCH  36  37
ENDBRANCH  35  36
ENDBRANCH  33  35
ENDBRANCH  31  32
ENDBRANCH  28  30
ENDBRANCH  26  27
ENDBRANCH  23  25
ENDBRANCH   2  22
TORSDOF 16
ENDMDL
MODEL 8
REMARK VINA RESULT:      -7.0      7.021     18.994
REMARK  Name = Lycopene
REMARK  26 active torsions:
REMARK  status: ('A' for Active; 'I' for Inactive)
REMARK    1  A    between atoms: C_1  and  C_2
REMARK    2  A    between atoms: C_2  and  C_3
REMARK    3  A    between atoms: C_4  and  C_5
REMARK    4  A    between atoms: C_5  and  C_6
REMARK    5  A    between atoms: C_6  and  C_7
REMARK    6  A    between atoms: C_7  and  C_8
REMARK    7  A    between atoms: C_9  and  C_10
REMARK    8  A    between atoms: C_11  and  C_12
REMARK    9  A    between atoms: C_12  and  C_13
REMARK   10  A    between atoms: C_14  and  C_15
REMARK   11  A    between atoms: C_16  and  C_17
REMARK   12  A    between atoms: C_17  and  C_18
REMARK   13  A    between atoms: C_19  and  C_20
REMARK   14  A    between atoms: C_21  and  C_22
REMARK   15  A    between atoms: C_23  and  C_24
REMARK   16  A    between atoms: C_23  and  C_25
REMARK   17  A    between atoms: C_26  and  C_27
REMARK   18  A    between atoms: C_28  and  C_29
REMARK   19  A    between atoms: C_28  and  C_30
REMARK   20  A    between atoms: C_31  and  C_32
REMARK   21  A    between atoms: C_33  and  C_34
REMARK   22  A    between atoms: C_33  and  C_35
REMARK   23  A    between atoms: C_35  and  C_36
REMARK   24  A    between atoms: C_36  and  C_37
REMARK   25  A    between atoms: C_38  and  C_39
REMARK   26  A    between atoms: C_38  and  C_40
REMARK                            x       y       z     vdW  Elec       q    Type
REMARK                         _______ _______ _______ _____ _____    ______ ____
ROOT
ATOM      1  C   UNL     1      -4.141   6.423 131.933  0.00  0.00    +0.000 C 
ATOM      2  C   UNL     1      -3.325   7.389 131.482  0.00  0.00    +0.000 C 
ENDROOT
BRANCH   1   5
ATOM      3  C   UNL     1      -4.457   4.129 131.029  0.00  0.00    +0.000 C 
ATOM      4  C   UNL     1      -3.357   3.636 131.942  0.00  0.00    +0.000 C 
ATOM      5  C   UNL     1      -4.786   5.443 131.063  0.00  0.00    +0.000 C 
BRANCH   3   7
ATOM      6  C   UNL     1      -4.750   1.932 129.879  0.00  0.00    +0.000 C 
ATOM      7  C   UNL     1      -5.150   3.192 130.126  0.00  0.00    +0.000 C 
BRANCH   6  10
ATOM      8  C   UNL     1      -5.297  -0.391 129.223  0.00  0.00    +0.000 C 
ATOM      9  C   UNL     1      -4.535  -0.925 130.424  0.00  0.00    +0.000 C 
ATOM     10  C   UNL     1      -5.373   0.947 129.006  0.00  0.00    +0.000 C 
BRANCH   8  12
ATOM     11  C   UNL     1      -7.249  -1.671 128.346  0.00  0.00    +0.000 C 
ATOM     12  C   UNL     1      -5.949  -1.335 128.302  0.00  0.00    +0.000 C 
BRANCH  11  15
ATOM     13  C   UNL     1      -8.621  -2.180 126.369  0.00  0.00    +0.000 C 
ATOM     14  C   UNL     1      -8.670  -0.712 125.984  0.00  0.00    +0.000 C 
ATOM     15  C   UNL     1      -7.952  -2.590 127.473  0.00  0.00    +0.000 C 
BRANCH  13  16
ATOM     16  C   UNL     1      -9.337  -3.202 125.497  0.00  0.00    +0.000 C 
BRANCH  16  17
ATOM     17  C   UNL     1      -8.612  -3.509 124.187  0.00  0.00    +0.000 C 
BRANCH  17  21
ATOM     18  C   UNL     1      -4.793  -3.090 123.796  0.00  0.00    +0.000 C 
ATOM     19  C   UNL     1      -6.270  -2.875 123.664  0.00  0.00    +0.000 C 
ATOM     20  C   UNL     1      -6.746  -1.727 122.812  0.00  0.00    +0.000 C 
ATOM     21  C   UNL     1      -7.133  -3.695 124.297  0.00  0.00    +0.000 C 
ENDBRANCH  17  21
ENDBRANCH  16  17
ENDBRANCH  13  16
ENDBRANCH  11  15
ENDBRANCH   8  12
ENDBRANCH   6  10
ENDBRANCH   3   7
ENDBRANCH   1   5
BRANCH   2  22
ATOM     22  C   UNL     1      -2.670   8.378 132.326  0.00  0.00    +0.000 C 
ATOM     23  C   UNL     1      -1.409   8.273 132.808  0.00  0.00    +0.000 C 
ATOM     24  C   UNL     1      -0.528   7.078 132.507  0.00  0.00    +0.000 C 
BRANCH  23  25
ATOM     25  C   UNL     1      -0.833   9.338 133.660  0.00  0.00    +0.000 C 
ATOM     26  C   UNL     1       0.351   9.926 133.414  0.00  0.00    +0.000 C 
BRANCH  26  27
ATOM     27  C   UNL     1       1.006  10.973 134.180  0.00  0.00    +0.000 C 
ATOM     28  C   UNL     1       1.239  12.228 133.721  0.00  0.00    +0.000 C 
ATOM     29  C   UNL     1       0.836  12.691 132.330  0.00  0.00    +0.000 C 
BRANCH  28  30
ATOM     30  C   UNL     1       1.912  13.225 134.579  0.00  0.00    +0.000 C 
ATOM     31  C   UNL     1       1.251  14.144 135.302  0.00  0.00    +0.000 C 
BRANCH  31  32
ATOM     32  C   UNL     1       1.809  15.160 136.170  0.00  0.00    +0.000 C 
ATOM     33  C   UNL     1       1.076  15.913 137.023  0.00  0.00    +0.000 C 
ATOM     34  C   UNL     1      -0.428  15.785 137.178  0.00  0.00    +0.000 C 
BRANCH  33  35
ATOM     35  C   UNL     1       1.765  16.962 137.898  0.00  0.00    +0.000 C 
BRANCH  35  36
ATOM     36  C   UNL     1       2.940  16.403 138.707  0.00  0.00    +0.000 C 
BRANCH  36  37
ATOM     37  C   UNL     1       2.610  15.923 140.085  0.00  0.00    +0.000 C 
ATOM     38  C   UNL     1       2.473  14.614 140.374  0.00  0.00    +0.000 C 
ATOM     39  C   UNL     1       2.637  13.521 139.346  0.00  0.00    +0.000 C 
ATOM     40  C   UNL     1       2.141  14.163 141.767  0.00  0.00    +0.000 C 
ENDBRANCH  36  37
ENDBRANCH  35  36
ENDBRANCH  33  35
ENDBRANCH  31  32
ENDBRANCH  28  30
ENDBRANCH  26  27
ENDBRANCH  23  25
ENDBRANCH   2  22
TORSDOF 16
ENDMDL
MODEL 9
REMARK VINA RESULT:      -7.0      1.606     18.176
REMARK  Name = Lycopene
REMARK  26 active torsions:
REMARK  status: ('A' for Active; 'I' for Inactive)
REMARK    1  A    between atoms: C_1  and  C_2
REMARK    2  A    between atoms: C_2  and  C_3
REMARK    3  A    between atoms: C_4  and  C_5
REMARK    4  A    between atoms: C_5  and  C_6
REMARK    5  A    between atoms: C_6  and  C_7
REMARK    6  A    between atoms: C_7  and  C_8
REMARK    7  A    between atoms: C_9  and  C_10
REMARK    8  A    between atoms: C_11  and  C_12
REMARK    9  A    between atoms: C_12  and  C_13
REMARK   10  A    between atoms: C_14  and  C_15
REMARK   11  A    between atoms: C_16  and  C_17
REMARK   12  A    between atoms: C_17  and  C_18
REMARK   13  A    between atoms: C_19  and  C_20
REMARK   14  A    between atoms: C_21  and  C_22
REMARK   15  A    between atoms: C_23  and  C_24
REMARK   16  A    between atoms: C_23  and  C_25
REMARK   17  A    between atoms: C_26  and  C_27
REMARK   18  A    between atoms: C_28  and  C_29
REMARK   19  A    between atoms: C_28  and  C_30
REMARK   20  A    between atoms: C_31  and  C_32
REMARK   21  A    between atoms: C_33  and  C_34
REMARK   22  A    between atoms: C_33  and  C_35
REMARK   23  A    between atoms: C_35  and  C_36
REMARK   24  A    between atoms: C_36  and  C_37
REMARK   25  A    between atoms: C_38  and  C_39
REMARK   26  A    between atoms: C_38  and  C_40
REMARK                            x       y       z     vdW  Elec       q    Type
REMARK                         _______ _______ _______ _____ _____    ______ ____
ROOT
ATOM      1  C   UNL     1      -8.481   4.356 134.166  0.00  0.00    +0.000 C 
ATOM      2  C   UNL     1      -7.485   4.626 135.024  0.00  0.00    +0.000 C 
ENDROOT
BRANCH   1   5
ATOM      3  C   UNL     1      -9.067   3.397 131.949  0.00  0.00    +0.000 C 
ATOM      4  C   UNL     1      -9.975   4.581 131.697  0.00  0.00    +0.000 C 
ATOM      5  C   UNL     1      -8.390   3.340 133.121  0.00  0.00    +0.000 C 
BRANCH   3   7
ATOM      6  C   UNL     1      -7.758   1.851 130.489  0.00  0.00    +0.000 C 
ATOM      7  C   UNL     1      -8.930   2.336 130.936  0.00  0.00    +0.000 C 
BRANCH   6  10
ATOM      8  C   UNL     1      -6.475  -0.037 129.532  0.00  0.00    +0.000 C 
ATOM      9  C   UNL     1      -5.447   0.078 130.645  0.00  0.00    +0.000 C 
ATOM     10  C   UNL     1      -7.537   0.809 129.496  0.00  0.00    +0.000 C 
BRANCH   8  12
ATOM     11  C   UNL     1      -5.481  -0.969 127.444  0.00  0.00    +0.000 C 
ATOM     12  C   UNL     1      -6.308  -1.069 128.497  0.00  0.00    +0.000 C 
BRANCH  11  15
ATOM     13  C   UNL     1      -5.580  -1.699 125.098  0.00  0.00    +0.000 C 
ATOM     14  C   UNL     1      -6.176  -0.369 124.675  0.00  0.00    +0.000 C 
ATOM     15  C   UNL     1      -5.269  -1.944 126.393  0.00  0.00    +0.000 C 
BRANCH  13  16
ATOM     16  C   UNL     1      -5.329  -2.770 124.045  0.00  0.00    +0.000 C 
BRANCH  16  17
ATOM     17  C   UNL     1      -6.534  -3.675 123.788  0.00  0.00    +0.000 C 
BRANCH  17  21
ATOM     18  C   UNL     1      -9.763  -3.284 125.869  0.00  0.00    +0.000 C 
ATOM     19  C   UNL     1      -8.776  -3.209 124.745  0.00  0.00    +0.000 C 
ATOM     20  C   UNL     1      -9.207  -2.534 123.467  0.00  0.00    +0.000 C 
ATOM     21  C   UNL     1      -7.543  -3.733 124.889  0.00  0.00    +0.000 C 
ENDBRANCH  17  21
ENDBRANCH  16  17
ENDBRANCH  13  16
ENDBRANCH  11  15
ENDBRANCH   8  12
ENDBRANCH   6  10
ENDBRANCH   3   7
ENDBRANCH   1   5
BRANCH   2  22
ATOM     22  C   UNL     1      -7.549   5.633 136.074  0.00  0.00    +0.000 C 
ATOM     23  C   UNL     1      -6.507   6.396 136.483  0.00  0.00    +0.000 C 
ATOM     24  C   UNL     1      -5.128   6.272 135.866  0.00  0.00    +0.000 C 
BRANCH  23  25
ATOM     25  C   UNL     1      -6.678   7.395 137.562  0.00  0.00    +0.000 C 
ATOM     26  C   UNL     1      -7.295   8.577 137.387  0.00  0.00    +0.000 C 
BRANCH  26  27
ATOM     27  C   UNL     1      -7.515   9.624 138.370  0.00  0.00    +0.000 C 
ATOM     28  C   UNL     1      -8.737  10.031 138.798  0.00  0.00    +0.000 C 
ATOM     29  C   UNL     1     -10.037   9.428 138.289  0.00  0.00    +0.000 C 
BRANCH  28  30
ATOM     30  C   UNL     1      -8.857  11.106 139.804  0.00  0.00    +0.000 C 
ATOM     31  C   UNL     1     -10.032  11.632 140.186  0.00  0.00    +0.000 C 
BRANCH  31  32
ATOM     32  C   UNL     1     -10.261  12.682 141.157  0.00  0.00    +0.000 C 
ATOM     33  C   UNL     1     -10.811  13.882 140.859  0.00  0.00    +0.000 C 
ATOM     34  C   UNL     1     -11.259  14.279 139.465  0.00  0.00    +0.000 C 
BRANCH  33  35
ATOM     35  C   UNL     1     -11.010  14.924 141.962  0.00  0.00    +0.000 C 
BRANCH  35  36
ATOM     36  C   UNL     1      -9.708  15.608 142.392  0.00  0.00    +0.000 C 
BRANCH  36  37
ATOM     37  C   UNL     1      -8.958  16.318 141.310  0.00  0.00    +0.000 C 
ATOM     38  C   UNL     1      -7.783  15.860 140.833  0.00  0.00    +0.000 C 
ATOM     39  C   UNL     1      -7.121  14.603 141.342  0.00  0.00    +0.000 C 
ATOM     40  C   UNL     1      -7.054  16.595 139.746  0.00  0.00    +0.000 C 
ENDBRANCH  36  37
ENDBRANCH  35  36
ENDBRANCH  33  35
ENDBRANCH  31  32
ENDBRANCH  28  30
ENDBRANCH  26  27
ENDBRANCH  23  25
ENDBRANCH   2  22
TORSDOF 16
ENDMDL
