MODEL 1
REMARK VINA RESULT:      -8.3      0.000      0.000
REMARK  Name = Lymecycline
REMARK  20 active torsions:
REMARK  status: ('A' for Active; 'I' for Inactive)
REMARK    1  A    between atoms: C_10  and  O_11
REMARK    2  A    between atoms: C_16  and  C_17
REMARK    3  A    between atoms: C_16  and  O_18
REMARK    4  A    between atoms: C_19  and  O_20
REMARK    5  A    between atoms: C_21  and  O_22
REMARK    6  A    between atoms: C_25  and  C_26
REMARK    7  A    between atoms: N_28  and  C_29
REMARK    8  A    between atoms: C_29  and  N_30
REMARK    9  A    between atoms: N_30  and  C_31
REMARK   10  A    between atoms: C_31  and  C_32
REMARK   11  A    between atoms: C_32  and  C_33
REMARK   12  A    between atoms: C_33  and  C_34
REMARK   13  A    between atoms: C_34  and  C_35
REMARK   14  A    between atoms: C_35  and  N_36
REMARK   15  A    between atoms: C_35  and  C_37
REMARK   16  A    between atoms: C_37  and  O_38
REMARK   17  A    between atoms: C_40  and  O_41
REMARK   18  A    between atoms: C_42  and  N_43
REMARK   19  A    between atoms: N_43  and  C_44
REMARK   20  A    between atoms: N_43  and  C_45
REMARK                            x       y       z     vdW  Elec       q    Type
REMARK                         _______ _______ _______ _____ _____    ______ ____
ROOT
ATOM      1  C   UNK     1      -4.654   2.850 127.053  0.00  0.00    +0.000 C 
ATOM      2  C   UNK     1      -6.289   2.681 126.477  0.00  0.00    +0.000 C 
ATOM      3  C   UNK     1      -6.639   1.786 125.396  0.00  0.00    +0.000 C 
ATOM      4  C   UNK     1      -6.364   0.470 125.899  0.00  0.00    +0.000 C 
ATOM      5  C   UNK     1      -6.931  -0.662 125.131  0.00  0.00    +0.000 C 
ATOM      6  O   UNK     1      -6.543  -1.815 125.271  0.00  0.00    +0.000 OA
ATOM      7  C   UNK     1      -8.062  -0.288 124.223  0.00  0.00    +0.000 A 
ATOM      8  C   UNK     1      -8.600  -1.166 123.298  0.00  0.00    +0.000 A 
ATOM      9  C   UNK     1      -9.638  -0.739 122.461  0.00  0.00    +0.000 A 
ATOM     10  C   UNK     1     -10.166   0.543 122.542  0.00  0.00    +0.000 A 
ATOM     11  C   UNK     1      -9.679   1.396 123.484  0.00  0.00    +0.000 A 
ATOM     12  C   UNK     1      -8.628   0.999 124.299  0.00  0.00    +0.000 A 
ATOM     13  C   UNK     1      -8.136   2.007 125.256  0.00  0.00    +0.000 C 
ATOM     14  C   UNK     1      -8.274   3.449 124.718  0.00  0.00    +0.000 C 
ATOM     15  C   UNK     1      -5.749   0.482 127.078  0.00  0.00    +0.000 C 
ATOM     16  C   UNK     1      -5.308   2.014 127.950  0.00  0.00    +0.000 C 
ATOM     17  C   UNK     1      -5.927   3.958 128.065  0.00  0.00    +0.000 C 
ATOM     18  O   UNK     1      -6.143   4.851 127.129  0.00  0.00    +0.000 OA
ATOM     19  C   UNK     1      -5.665   5.026 129.101  0.00  0.00    +0.000 C 
ATOM     20  C   UNK     1      -4.338   4.818 128.756  0.00  0.00    +0.000 C 
ATOM     21  C   UNK     1      -4.007   3.345 128.763  0.00  0.00    +0.000 C 
ENDROOT
BRANCH  19  22
ATOM     22  C   UNK     1      -6.875   4.675 129.999  0.00  0.00    +0.000 C 
ATOM     23  O   UNK     1      -6.958   5.159 131.136  0.00  0.00    +0.000 OA
ATOM     24  N   UNK     1      -7.883   3.816 129.627  0.00  0.00    +0.000 N 
ATOM     25  H   UNK     1      -7.783   3.041 128.985  0.00  0.00    +0.000 HD
BRANCH  24  26
ATOM     26  C   UNK     1      -9.102   3.998 130.372  0.00  0.00    +0.000 C 
BRANCH  26  27
ATOM     27  N   UNK     1      -9.873   5.065 129.787  0.00  0.00    +0.000 NA
ATOM     28  H   UNK     1     -10.012   4.838 128.804  0.00  0.00    +0.000 HD
BRANCH  27  29
ATOM     29  C   UNK     1     -11.195   5.070 130.431  0.00  0.00    +0.000 C 
BRANCH  29  30
ATOM     30  C   UNK     1     -11.371   6.383 131.180  0.00  0.00    +0.000 C 
BRANCH  30  31
ATOM     31  C   UNK     1     -12.542   7.150 130.595  0.00  0.00    +0.000 C 
BRANCH  31  32
ATOM     32  C   UNK     1     -12.078   8.227 129.616  0.00  0.00    +0.000 C 
BRANCH  32  33
ATOM     33  C   UNK     1     -12.496   7.889 128.178  0.00  0.00    +0.000 C 
BRANCH  33  34
ATOM     34  N   UNK     1     -13.622   6.935 128.186  0.00  0.00    +0.000 NA
ATOM     35  H   UNK     1     -13.910   6.675 127.247  0.00  0.00    +0.000 HD
ATOM     36  H   UNK     1     -14.401   7.280 128.737  0.00  0.00    +0.000 HD
ENDBRANCH  33  34
BRANCH  33  37
ATOM     37  C   UNK     1     -11.277   7.358 127.398  0.00  0.00    +0.000 C 
ATOM     38  O   UNK     1     -10.127   7.462 127.800  0.00  0.00    +0.000 OA
BRANCH  37  39
ATOM     39  O   UNK     1     -11.560   6.701 126.246  0.00  0.00    +0.000 OA
ATOM     40  H   UNK     1     -11.271   7.161 125.438  0.00  0.00    +0.000 HD
ENDBRANCH  37  39
ENDBRANCH  33  37
ENDBRANCH  32  33
ENDBRANCH  31  32
ENDBRANCH  30  31
ENDBRANCH  29  30
ENDBRANCH  27  29
ENDBRANCH  26  27
ENDBRANCH  24  26
ENDBRANCH  19  22
BRANCH  21  41
ATOM     41  N   UNK     1      -4.853   2.842 130.097  0.00  0.00    +0.000 NA
ATOM     42  C   UNK     1      -5.658   1.615 130.252  0.00  0.00    +0.000 C 
ATOM     43  C   UNK     1      -4.338   3.272 131.367  0.00  0.00    +0.000 C 
ENDBRANCH  21  41
BRANCH   8  44
ATOM     44  O   UNK     1      -8.160  -2.447 123.138  0.00  0.00    +0.000 OA
ATOM     45  H   UNK     1      -8.937  -3.041 123.058  0.00  0.00    +0.000 HD
ENDBRANCH   8  44
BRANCH  20  46
ATOM     46  O   UNK     1      -3.665   5.468 127.683  0.00  0.00    +0.000 OA
ATOM     47  H   UNK     1      -2.967   6.067 128.027  0.00  0.00    +0.000 HD
ENDBRANCH  20  46
BRANCH  16  48
ATOM     48  O   UNK     1      -4.076   1.209 128.314  0.00  0.00    +0.000 OA
ATOM     49  H   UNK     1      -4.364   0.557 128.990  0.00  0.00    +0.000 HD
ENDBRANCH  16  48
BRANCH  15  50
ATOM     50  O   UNK     1      -5.228  -0.755 127.538  0.00  0.00    +0.000 OA
ATOM     51  H   UNK     1      -5.025  -0.663 128.508  0.00  0.00    +0.000 HD
ENDBRANCH  15  50
BRANCH  13  52
ATOM     52  O   UNK     1      -8.892   1.799 126.464  0.00  0.00    +0.000 OA
ATOM     53  H   UNK     1      -9.069   0.843 126.589  0.00  0.00    +0.000 HD
ENDBRANCH  13  52
TORSDOF 17
ENDMDL
MODEL 2
REMARK VINA RESULT:      -7.9      1.716      2.085
REMARK  Name = Lymecycline
REMARK  20 active torsions:
REMARK  status: ('A' for Active; 'I' for Inactive)
REMARK    1  A    between atoms: C_10  and  O_11
REMARK    2  A    between atoms: C_16  and  C_17
REMARK    3  A    between atoms: C_16  and  O_18
REMARK    4  A    between atoms: C_19  and  O_20
REMARK    5  A    between atoms: C_21  and  O_22
REMARK    6  A    between atoms: C_25  and  C_26
REMARK    7  A    between atoms: N_28  and  C_29
REMARK    8  A    between atoms: C_29  and  N_30
REMARK    9  A    between atoms: N_30  and  C_31
REMARK   10  A    between atoms: C_31  and  C_32
REMARK   11  A    between atoms: C_32  and  C_33
REMARK   12  A    between atoms: C_33  and  C_34
REMARK   13  A    between atoms: C_34  and  C_35
REMARK   14  A    between atoms: C_35  and  N_36
REMARK   15  A    between atoms: C_35  and  C_37
REMARK   16  A    between atoms: C_37  and  O_38
REMARK   17  A    between atoms: C_40  and  O_41
REMARK   18  A    between atoms: C_42  and  N_43
REMARK   19  A    between atoms: N_43  and  C_44
REMARK   20  A    between atoms: N_43  and  C_45
REMARK                            x       y       z     vdW  Elec       q    Type
REMARK                         _______ _______ _______ _____ _____    ______ ____
ROOT
ATOM      1  C   UNK     1      -4.658   2.731 128.873  0.00  0.00    +0.000 C 
ATOM      2  C   UNK     1      -5.728   2.277 127.575  0.00  0.00    +0.000 C 
ATOM      3  C   UNK     1      -5.417   1.204 126.657  0.00  0.00    +0.000 C 
ATOM      4  C   UNK     1      -5.406   0.016 127.463  0.00  0.00    +0.000 C 
ATOM      5  C   UNK     1      -5.438  -1.274 126.736  0.00  0.00    +0.000 C 
ATOM      6  O   UNK     1      -5.144  -2.337 127.268  0.00  0.00    +0.000 OA
ATOM      7  C   UNK     1      -5.924  -1.177 125.323  0.00  0.00    +0.000 A 
ATOM      8  C   UNK     1      -5.855  -2.235 124.434  0.00  0.00    +0.000 A 
ATOM      9  C   UNK     1      -6.302  -2.064 123.118  0.00  0.00    +0.000 A 
ATOM     10  C   UNK     1      -6.836  -0.861 122.676  0.00  0.00    +0.000 A 
ATOM     11  C   UNK     1      -6.956   0.169 123.556  0.00  0.00    +0.000 A 
ATOM     12  C   UNK     1      -6.487   0.026 124.856  0.00  0.00    +0.000 A 
ATOM     13  C   UNK     1      -6.616   1.211 125.723  0.00  0.00    +0.000 C 
ATOM     14  C   UNK     1      -6.497   2.535 124.936  0.00  0.00    +0.000 C 
ATOM     15  C   UNK     1      -5.515   0.269 128.764  0.00  0.00    +0.000 C 
ATOM     16  C   UNK     1      -5.660   1.951 129.437  0.00  0.00    +0.000 C 
ATOM     17  C   UNK     1      -6.312   3.797 128.853  0.00  0.00    +0.000 C 
ATOM     18  O   UNK     1      -6.027   4.517 127.795  0.00  0.00    +0.000 OA
ATOM     19  C   UNK     1      -6.680   5.023 129.657  0.00  0.00    +0.000 C 
ATOM     20  C   UNK     1      -5.367   4.940 130.095  0.00  0.00    +0.000 C 
ATOM     21  C   UNK     1      -5.039   3.536 130.544  0.00  0.00    +0.000 C 
ENDROOT
BRANCH  19  22
ATOM     22  C   UNK     1      -8.169   4.648 129.845  0.00  0.00    +0.000 C 
ATOM     23  O   UNK     1      -8.721   3.894 129.033  0.00  0.00    +0.000 OA
ATOM     24  N   UNK     1      -8.958   5.129 130.864  0.00  0.00    +0.000 N 
ATOM     25  H   UNK     1      -8.838   6.021 131.325  0.00  0.00    +0.000 HD
BRANCH  24  26
ATOM     26  C   UNK     1     -10.116   4.316 131.132  0.00  0.00    +0.000 C 
BRANCH  26  27
ATOM     27  N   UNK     1     -11.299   4.984 130.655  0.00  0.00    +0.000 NA
ATOM     28  H   UNK     1     -12.104   4.450 130.981  0.00  0.00    +0.000 HD
BRANCH  27  29
ATOM     29  C   UNK     1     -11.358   6.307 131.294  0.00  0.00    +0.000 C 
BRANCH  29  30
ATOM     30  C   UNK     1     -12.736   6.906 131.056  0.00  0.00    +0.000 C 
BRANCH  30  31
ATOM     31  C   UNK     1     -12.688   7.835 129.858  0.00  0.00    +0.000 C 
BRANCH  31  32
ATOM     32  C   UNK     1     -13.006   7.096 128.559  0.00  0.00    +0.000 C 
BRANCH  32  33
ATOM     33  C   UNK     1     -12.094   7.562 127.415  0.00  0.00    +0.000 C 
BRANCH  33  34
ATOM     34  N   UNK     1     -12.292   6.711 126.226  0.00  0.00    +0.000 NA
ATOM     35  H   UNK     1     -12.976   7.101 125.585  0.00  0.00    +0.000 HD
ATOM     36  H   UNK     1     -12.519   5.756 126.484  0.00  0.00    +0.000 HD
ENDBRANCH  33  34
BRANCH  33  37
ATOM     37  C   UNK     1     -10.630   7.575 127.896  0.00  0.00    +0.000 C 
ATOM     38  O   UNK     1     -10.039   8.597 128.217  0.00  0.00    +0.000 OA
BRANCH  37  39
ATOM     39  O   UNK     1     -10.038   6.360 128.004  0.00  0.00    +0.000 OA
ATOM     40  H   UNK     1     -10.351   5.700 127.360  0.00  0.00    +0.000 HD
ENDBRANCH  37  39
ENDBRANCH  33  37
ENDBRANCH  32  33
ENDBRANCH  31  32
ENDBRANCH  30  31
ENDBRANCH  29  30
ENDBRANCH  27  29
ENDBRANCH  26  27
ENDBRANCH  24  26
ENDBRANCH  19  22
BRANCH  21  41
ATOM     41  N   UNK     1      -6.447   3.119 131.313  0.00  0.00    +0.000 NA
ATOM     42  C   UNK     1      -7.226   1.873 131.168  0.00  0.00    +0.000 C 
ATOM     43  C   UNK     1      -6.646   3.691 132.616  0.00  0.00    +0.000 C 
ENDBRANCH  21  41
BRANCH   8  44
ATOM     44  O   UNK     1      -5.354  -3.459 124.765  0.00  0.00    +0.000 OA
ATOM     45  H   UNK     1      -6.037  -4.140 124.586  0.00  0.00    +0.000 HD
ENDBRANCH   8  44
BRANCH  20  46
ATOM     46  O   UNK     1      -4.249   5.516 129.428  0.00  0.00    +0.000 OA
ATOM     47  H   UNK     1      -3.409   5.171 129.802  0.00  0.00    +0.000 HD
ENDBRANCH  20  46
BRANCH  16  48
ATOM     48  O   UNK     1      -4.783   1.368 130.528  0.00  0.00    +0.000 OA
ATOM     49  H   UNK     1      -4.343   2.131 130.964  0.00  0.00    +0.000 HD
ENDBRANCH  16  48
BRANCH  15  50
ATOM     50  O   UNK     1      -5.276  -0.815 129.646  0.00  0.00    +0.000 OA
ATOM     51  H   UNK     1      -4.346  -1.138 129.495  0.00  0.00    +0.000 HD
ENDBRANCH  15  50
BRANCH  13  52
ATOM     52  O   UNK     1      -7.891   1.077 126.379  0.00  0.00    +0.000 OA
ATOM     53  H   UNK     1      -8.606   1.010 125.712  0.00  0.00    +0.000 HD
ENDBRANCH  13  52
TORSDOF 17
ENDMDL
MODEL 3
REMARK VINA RESULT:      -7.8      3.069      5.491
REMARK  Name = Lymecycline
REMARK  20 active torsions:
REMARK  status: ('A' for Active; 'I' for Inactive)
REMARK    1  A    between atoms: C_10  and  O_11
REMARK    2  A    between atoms: C_16  and  C_17
REMARK    3  A    between atoms: C_16  and  O_18
REMARK    4  A    between atoms: C_19  and  O_20
REMARK    5  A    between atoms: C_21  and  O_22
REMARK    6  A    between atoms: C_25  and  C_26
REMARK    7  A    between atoms: N_28  and  C_29
REMARK    8  A    between atoms: C_29  and  N_30
REMARK    9  A    between atoms: N_30  and  C_31
REMARK   10  A    between atoms: C_31  and  C_32
REMARK   11  A    between atoms: C_32  and  C_33
REMARK   12  A    between atoms: C_33  and  C_34
REMARK   13  A    between atoms: C_34  and  C_35
REMARK   14  A    between atoms: C_35  and  N_36
REMARK   15  A    between atoms: C_35  and  C_37
REMARK   16  A    between atoms: C_37  and  O_38
REMARK   17  A    between atoms: C_40  and  O_41
REMARK   18  A    between atoms: C_42  and  N_43
REMARK   19  A    between atoms: N_43  and  C_44
REMARK   20  A    between atoms: N_43  and  C_45
REMARK                            x       y       z     vdW  Elec       q    Type
REMARK                         _______ _______ _______ _____ _____    ______ ____
ROOT
ATOM      1  C   UNK     1      -8.327   0.878 129.494  0.00  0.00    +0.000 C 
ATOM      2  C   UNK     1      -7.010   0.237 128.551  0.00  0.00    +0.000 C 
ATOM      3  C   UNK     1      -7.225  -0.571 127.371  0.00  0.00    +0.000 C 
ATOM      4  C   UNK     1      -7.864   0.307 126.431  0.00  0.00    +0.000 C 
ATOM      5  C   UNK     1      -7.909  -0.153 125.024  0.00  0.00    +0.000 C 
ATOM      6  O   UNK     1      -8.660   0.341 124.193  0.00  0.00    +0.000 OA
ATOM      7  C   UNK     1      -6.915  -1.222 124.691  0.00  0.00    +0.000 A 
ATOM      8  C   UNK     1      -6.924  -1.902 123.485  0.00  0.00    +0.000 A 
ATOM      9  C   UNK     1      -5.980  -2.910 123.252  0.00  0.00    +0.000 A 
ATOM     10  C   UNK     1      -5.013  -3.241 124.192  0.00  0.00    +0.000 A 
ATOM     11  C   UNK     1      -4.964  -2.543 125.359  0.00  0.00    +0.000 A 
ATOM     12  C   UNK     1      -5.912  -1.563 125.619  0.00  0.00    +0.000 A 
ATOM     13  C   UNK     1      -5.808  -0.893 126.928  0.00  0.00    +0.000 C 
ATOM     14  C   UNK     1      -5.254  -1.828 128.027  0.00  0.00    +0.000 C 
ATOM     15  C   UNK     1      -8.196   1.482 126.959  0.00  0.00    +0.000 C 
ATOM     16  C   UNK     1      -7.868   1.916 128.693  0.00  0.00    +0.000 C 
ATOM     17  C   UNK     1      -6.568   1.422 130.190  0.00  0.00    +0.000 C 
ATOM     18  O   UNK     1      -6.221   0.256 130.680  0.00  0.00    +0.000 OA
ATOM     19  C   UNK     1      -6.217   2.130 131.477  0.00  0.00    +0.000 C 
ATOM     20  C   UNK     1      -7.567   1.972 131.753  0.00  0.00    +0.000 C 
ATOM     21  C   UNK     1      -8.409   2.425 130.584  0.00  0.00    +0.000 C 
ENDROOT
BRANCH  19  22
ATOM     22  C   UNK     1      -5.074   2.985 130.881  0.00  0.00    +0.000 C 
ATOM     23  O   UNK     1      -4.605   3.926 131.535  0.00  0.00    +0.000 OA
ATOM     24  N   UNK     1      -4.544   2.789 129.627  0.00  0.00    +0.000 N 
ATOM     25  H   UNK     1      -5.041   2.405 128.835  0.00  0.00    +0.000 HD
BRANCH  24  26
ATOM     26  C   UNK     1      -3.225   3.345 129.464  0.00  0.00    +0.000 C 
BRANCH  26  27
ATOM     27  N   UNK     1      -3.271   4.442 128.532  0.00  0.00    +0.000 NA
ATOM     28  H   UNK     1      -2.940   5.273 129.021  0.00  0.00    +0.000 HD
BRANCH  27  29
ATOM     29  C   UNK     1      -2.318   4.155 127.450  0.00  0.00    +0.000 C 
BRANCH  29  30
ATOM     30  C   UNK     1      -3.073   3.542 126.279  0.00  0.00    +0.000 C 
BRANCH  30  31
ATOM     31  C   UNK     1      -4.470   4.127 126.213  0.00  0.00    +0.000 C 
BRANCH  31  32
ATOM     32  C   UNK     1      -5.372   3.328 125.274  0.00  0.00    +0.000 C 
BRANCH  32  33
ATOM     33  C   UNK     1      -5.959   4.220 124.171  0.00  0.00    +0.000 C 
BRANCH  33  34
ATOM     34  N   UNK     1      -6.500   5.463 124.755  0.00  0.00    +0.000 NA
ATOM     35  H   UNK     1      -6.619   5.392 125.761  0.00  0.00    +0.000 HD
ATOM     36  H   UNK     1      -7.356   5.751 124.294  0.00  0.00    +0.000 HD
ENDBRANCH  33  34
BRANCH  33  37
ATOM     37  C   UNK     1      -7.017   3.430 123.376  0.00  0.00    +0.000 C 
ATOM     38  O   UNK     1      -6.734   2.569 122.555  0.00  0.00    +0.000 OA
BRANCH  37  39
ATOM     39  O   UNK     1      -8.308   3.705 123.687  0.00  0.00    +0.000 OA
ATOM     40  H   UNK     1      -8.429   4.183 124.526  0.00  0.00    +0.000 HD
ENDBRANCH  37  39
ENDBRANCH  33  37
ENDBRANCH  32  33
ENDBRANCH  31  32
ENDBRANCH  30  31
ENDBRANCH  29  30
ENDBRANCH  27  29
ENDBRANCH  26  27
ENDBRANCH  24  26
ENDBRANCH  19  22
BRANCH  21  41
ATOM     41  N   UNK     1      -7.570   3.771 130.099  0.00  0.00    +0.000 NA
ATOM     42  C   UNK     1      -7.258   4.199 128.722  0.00  0.00    +0.000 C 
ATOM     43  C   UNK     1      -7.639   4.905 130.977  0.00  0.00    +0.000 C 
ENDBRANCH  21  41
BRANCH   8  44
ATOM     44  O   UNK     1      -7.825  -1.653 122.492  0.00  0.00    +0.000 OA
ATOM     45  H   UNK     1      -8.140  -0.728 122.575  0.00  0.00    +0.000 HD
ENDBRANCH   8  44
BRANCH  20  46
ATOM     46  O   UNK     1      -8.144   0.820 132.356  0.00  0.00    +0.000 OA
ATOM     47  H   UNK     1      -8.706   1.076 133.120  0.00  0.00    +0.000 HD
ENDBRANCH  20  46
BRANCH  16  48
ATOM     48  O   UNK     1      -9.217   2.597 128.562  0.00  0.00    +0.000 OA
ATOM     49  H   UNK     1      -9.854   2.041 129.062  0.00  0.00    +0.000 HD
ENDBRANCH  16  48
BRANCH  15  50
ATOM     50  O   UNK     1      -9.037   2.316 126.180  0.00  0.00    +0.000 OA
ATOM     51  H   UNK     1      -8.472   2.778 125.502  0.00  0.00    +0.000 HD
ENDBRANCH  15  50
BRANCH  13  52
ATOM     52  O   UNK     1      -4.967   0.256 126.713  0.00  0.00    +0.000 OA
ATOM     53  H   UNK     1      -4.032  -0.025 126.626  0.00  0.00    +0.000 HD
ENDBRANCH  13  52
TORSDOF 17
ENDMDL
MODEL 4
REMARK VINA RESULT:      -7.7      2.581      3.216
REMARK  Name = Lymecycline
REMARK  20 active torsions:
REMARK  status: ('A' for Active; 'I' for Inactive)
REMARK    1  A    between atoms: C_10  and  O_11
REMARK    2  A    between atoms: C_16  and  C_17
REMARK    3  A    between atoms: C_16  and  O_18
REMARK    4  A    between atoms: C_19  and  O_20
REMARK    5  A    between atoms: C_21  and  O_22
REMARK    6  A    between atoms: C_25  and  C_26
REMARK    7  A    between atoms: N_28  and  C_29
REMARK    8  A    between atoms: C_29  and  N_30
REMARK    9  A    between atoms: N_30  and  C_31
REMARK   10  A    between atoms: C_31  and  C_32
REMARK   11  A    between atoms: C_32  and  C_33
REMARK   12  A    between atoms: C_33  and  C_34
REMARK   13  A    between atoms: C_34  and  C_35
REMARK   14  A    between atoms: C_35  and  N_36
REMARK   15  A    between atoms: C_35  and  C_37
REMARK   16  A    between atoms: C_37  and  O_38
REMARK   17  A    between atoms: C_40  and  O_41
REMARK   18  A    between atoms: C_42  and  N_43
REMARK   19  A    between atoms: N_43  and  C_44
REMARK   20  A    between atoms: N_43  and  C_45
REMARK                            x       y       z     vdW  Elec       q    Type
REMARK                         _______ _______ _______ _____ _____    ______ ____
ROOT
ATOM      1  C   UNK     1      -3.811   3.223 127.431  0.00  0.00    +0.000 C 
ATOM      2  C   UNK     1      -5.453   3.307 126.855  0.00  0.00    +0.000 C 
ATOM      3  C   UNK     1      -5.974   2.386 125.870  0.00  0.00    +0.000 C 
ATOM      4  C   UNK     1      -5.949   1.102 126.511  0.00  0.00    +0.000 C 
ATOM      5  C   UNK     1      -6.726   0.023 125.858  0.00  0.00    +0.000 C 
ATOM      6  O   UNK     1      -6.562  -1.161 126.123  0.00  0.00    +0.000 OA
ATOM      7  C   UNK     1      -7.773   0.507 124.902  0.00  0.00    +0.000 A 
ATOM      8  C   UNK     1      -8.474  -0.346 124.067  0.00  0.00    +0.000 A 
ATOM      9  C   UNK     1      -9.419   0.179 123.177  0.00  0.00    +0.000 A 
ATOM     10  C   UNK     1      -9.694   1.540 123.118  0.00  0.00    +0.000 A 
ATOM     11  C   UNK     1      -9.048   2.379 123.971  0.00  0.00    +0.000 A 
ATOM     12  C   UNK     1      -8.084   1.878 124.836  0.00  0.00    +0.000 A 
ATOM     13  C   UNK     1      -7.403   2.870 125.689  0.00  0.00    +0.000 C 
ATOM     14  C   UNK     1      -7.270   4.248 125.002  0.00  0.00    +0.000 C 
ATOM     15  C   UNK     1      -5.334   1.121 127.690  0.00  0.00    +0.000 C 
ATOM     16  C   UNK     1      -4.605   2.625 128.402  0.00  0.00    +0.000 C 
ATOM     17  C   UNK     1      -4.843   4.652 128.306  0.00  0.00    +0.000 C 
ATOM     18  O   UNK     1      -4.894   5.467 127.279  0.00  0.00    +0.000 OA
ATOM     19  C   UNK     1      -4.377   5.754 129.228  0.00  0.00    +0.000 C 
ATOM     20  C   UNK     1      -3.116   5.264 128.923  0.00  0.00    +0.000 C 
ATOM     21  C   UNK     1      -3.069   3.764 129.088  0.00  0.00    +0.000 C 
ENDROOT
BRANCH  19  22
ATOM     22  C   UNK     1      -5.624   5.734 130.143  0.00  0.00    +0.000 C 
ATOM     23  O   UNK     1      -6.694   5.283 129.714  0.00  0.00    +0.000 OA
ATOM     24  N   UNK     1      -5.639   6.222 131.429  0.00  0.00    +0.000 N 
ATOM     25  H   UNK     1      -5.054   6.969 131.778  0.00  0.00    +0.000 HD
BRANCH  24  26
ATOM     26  C   UNK     1      -6.706   5.688 132.237  0.00  0.00    +0.000 C 
BRANCH  26  27
ATOM     27  N   UNK     1      -7.922   6.412 131.976  0.00  0.00    +0.000 NA
ATOM     28  H   UNK     1      -8.107   6.348 130.976  0.00  0.00    +0.000 HD
BRANCH  27  29
ATOM     29  C   UNK     1      -9.017   5.721 132.673  0.00  0.00    +0.000 C 
BRANCH  29  30
ATOM     30  C   UNK     1      -8.421   4.749 133.681  0.00  0.00    +0.000 C 
BRANCH  30  31
ATOM     31  C   UNK     1      -9.199   3.448 133.657  0.00  0.00    +0.000 C 
BRANCH  31  32
ATOM     32  C   UNK     1      -8.505   2.391 132.801  0.00  0.00    +0.000 C 
BRANCH  32  33
ATOM     33  C   UNK     1      -9.431   1.878 131.689  0.00  0.00    +0.000 C 
BRANCH  33  34
ATOM     34  N   UNK     1      -9.675   0.432 131.857  0.00  0.00    +0.000 NA
ATOM     35  H   UNK     1      -8.838  -0.119 131.694  0.00  0.00    +0.000 HD
ATOM     36  H   UNK     1     -10.452   0.115 131.287  0.00  0.00    +0.000 HD
ENDBRANCH  33  34
BRANCH  33  37
ATOM     37  C   UNK     1      -8.824   2.219 130.314  0.00  0.00    +0.000 C 
ATOM     38  O   UNK     1      -8.315   1.384 129.580  0.00  0.00    +0.000 OA
BRANCH  37  39
ATOM     39  O   UNK     1      -8.940   3.514 129.928  0.00  0.00    +0.000 OA
ATOM     40  H   UNK     1      -8.221   4.093 130.234  0.00  0.00    +0.000 HD
ENDBRANCH  37  39
ENDBRANCH  33  37
ENDBRANCH  32  33
ENDBRANCH  31  32
ENDBRANCH  30  31
ENDBRANCH  29  30
ENDBRANCH  27  29
ENDBRANCH  26  27
ENDBRANCH  24  26
ENDBRANCH  19  22
BRANCH  21  41
ATOM     41  N   UNK     1      -3.985   3.572 130.457  0.00  0.00    +0.000 NA
ATOM     42  C   UNK     1      -5.060   2.592 130.700  0.00  0.00    +0.000 C 
ATOM     43  C   UNK     1      -3.356   3.949 131.692  0.00  0.00    +0.000 C 
ENDBRANCH  21  41
BRANCH   8  44
ATOM     44  O   UNK     1      -8.286  -1.696 124.047  0.00  0.00    +0.000 OA
ATOM     45  H   UNK     1      -7.811  -1.938 123.224  0.00  0.00    +0.000 HD
ENDBRANCH   8  44
BRANCH  20  46
ATOM     46  O   UNK     1      -2.340   5.659 127.797  0.00  0.00    +0.000 OA
ATOM     47  H   UNK     1      -2.121   4.881 127.240  0.00  0.00    +0.000 HD
ENDBRANCH  20  46
BRANCH  16  48
ATOM     48  O   UNK     1      -3.544   1.644 128.863  0.00  0.00    +0.000 OA
ATOM     49  H   UNK     1      -3.977   1.064 129.527  0.00  0.00    +0.000 HD
ENDBRANCH  16  48
BRANCH  15  50
ATOM     50  O   UNK     1      -5.053  -0.136 128.282  0.00  0.00    +0.000 OA
ATOM     51  H   UNK     1      -5.526  -0.838 127.757  0.00  0.00    +0.000 HD
ENDBRANCH  15  50
BRANCH  13  52
ATOM     52  O   UNK     1      -8.175   2.936 126.902  0.00  0.00    +0.000 OA
ATOM     53  H   UNK     1      -8.522   2.048 127.128  0.00  0.00    +0.000 HD
ENDBRANCH  13  52
TORSDOF 17
ENDMDL
MODEL 5
REMARK VINA RESULT:      -7.7      3.019      7.827
REMARK  Name = Lymecycline
REMARK  20 active torsions:
REMARK  status: ('A' for Active; 'I' for Inactive)
REMARK    1  A    between atoms: C_10  and  O_11
REMARK    2  A    between atoms: C_16  and  C_17
REMARK    3  A    between atoms: C_16  and  O_18
REMARK    4  A    between atoms: C_19  and  O_20
REMARK    5  A    between atoms: C_21  and  O_22
REMARK    6  A    between atoms: C_25  and  C_26
REMARK    7  A    between atoms: N_28  and  C_29
REMARK    8  A    between atoms: C_29  and  N_30
REMARK    9  A    between atoms: N_30  and  C_31
REMARK   10  A    between atoms: C_31  and  C_32
REMARK   11  A    between atoms: C_32  and  C_33
REMARK   12  A    between atoms: C_33  and  C_34
REMARK   13  A    between atoms: C_34  and  C_35
REMARK   14  A    between atoms: C_35  and  N_36
REMARK   15  A    between atoms: C_35  and  C_37
REMARK   16  A    between atoms: C_37  and  O_38
REMARK   17  A    between atoms: C_40  and  O_41
REMARK   18  A    between atoms: C_42  and  N_43
REMARK   19  A    between atoms: N_43  and  C_44
REMARK   20  A    between atoms: N_43  and  C_45
REMARK                            x       y       z     vdW  Elec       q    Type
REMARK                         _______ _______ _______ _____ _____    ______ ____
ROOT
ATOM      1  C   UNK     1      -6.213   4.472 130.866  0.00  0.00    +0.000 C 
ATOM      2  C   UNK     1      -7.889   4.636 131.311  0.00  0.00    +0.000 C 
ATOM      3  C   UNK     1      -8.710   5.730 130.843  0.00  0.00    +0.000 C 
ATOM      4  C   UNK     1      -8.796   5.549 129.422  0.00  0.00    +0.000 C 
ATOM      5  C   UNK     1      -9.839   6.333 128.719  0.00  0.00    +0.000 C 
ATOM      6  O   UNK     1      -9.834   6.497 127.506  0.00  0.00    +0.000 OA
ATOM      7  C   UNK     1     -10.931   6.845 129.607  0.00  0.00    +0.000 A 
ATOM      8  C   UNK     1     -11.890   7.741 129.170  0.00  0.00    +0.000 A 
ATOM      9  C   UNK     1     -12.866   8.200 130.063  0.00  0.00    +0.000 A 
ATOM     10  C   UNK     1     -12.915   7.767 131.382  0.00  0.00    +0.000 A 
ATOM     11  C   UNK     1     -12.008   6.847 131.807  0.00  0.00    +0.000 A 
ATOM     12  C   UNK     1     -11.014   6.406 130.942  0.00  0.00    +0.000 A 
ATOM     13  C   UNK     1     -10.048   5.446 131.505  0.00  0.00    +0.000 C 
ATOM     14  C   UNK     1      -9.799   5.672 133.013  0.00  0.00    +0.000 C 
ATOM     15  C   UNK     1      -8.004   4.581 128.971  0.00  0.00    +0.000 C 
ATOM     16  C   UNK     1      -6.927   3.598 130.056  0.00  0.00    +0.000 C 
ATOM     17  C   UNK     1      -6.836   2.995 132.006  0.00  0.00    +0.000 C 
ATOM     18  O   UNK     1      -6.915   3.676 133.124  0.00  0.00    +0.000 OA
ATOM     19  C   UNK     1      -6.048   1.890 132.670  0.00  0.00    +0.000 C 
ATOM     20  C   UNK     1      -4.952   2.590 132.187  0.00  0.00    +0.000 C 
ATOM     21  C   UNK     1      -5.132   2.923 130.725  0.00  0.00    +0.000 C 
ENDROOT
BRANCH  19  22
ATOM     22  C   UNK     1      -7.115   0.789 132.467  0.00  0.00    +0.000 C 
ATOM     23  O   UNK     1      -8.306   1.103 132.339  0.00  0.00    +0.000 OA
ATOM     24  N   UNK     1      -6.834  -0.558 132.446  0.00  0.00    +0.000 N 
ATOM     25  H   UNK     1      -6.069  -1.003 132.935  0.00  0.00    +0.000 HD
BRANCH  24  26
ATOM     26  C   UNK     1      -7.841  -1.348 131.786  0.00  0.00    +0.000 C 
BRANCH  26  27
ATOM     27  N   UNK     1      -7.213  -2.315 130.925  0.00  0.00    +0.000 NA
ATOM     28  H   UNK     1      -7.381  -3.237 131.326  0.00  0.00    +0.000 HD
BRANCH  27  29
ATOM     29  C   UNK     1      -7.894  -2.269 129.622  0.00  0.00    +0.000 C 
BRANCH  29  30
ATOM     30  C   UNK     1      -7.829  -3.649 128.985  0.00  0.00    +0.000 C 
BRANCH  30  31
ATOM     31  C   UNK     1      -8.947  -3.795 127.970  0.00  0.00    +0.000 C 
BRANCH  31  32
ATOM     32  C   UNK     1      -8.478  -3.440 126.560  0.00  0.00    +0.000 C 
BRANCH  32  33
ATOM     33  C   UNK     1      -9.526  -2.595 125.821  0.00  0.00    +0.000 C 
BRANCH  33  34
ATOM     34  N   UNK     1      -9.737  -3.124 124.459  0.00  0.00    +0.000 NA
ATOM     35  H   UNK     1      -9.397  -2.487 123.744  0.00  0.00    +0.000 HD
ATOM     36  H   UNK     1     -10.705  -3.383 124.303  0.00  0.00    +0.000 HD
ENDBRANCH  33  34
BRANCH  33  37
ATOM     37  C   UNK     1      -9.089  -1.117 125.820  0.00  0.00    +0.000 C 
ATOM     38  O   UNK     1      -9.818  -0.204 125.460  0.00  0.00    +0.000 OA
BRANCH  37  39
ATOM     39  O   UNK     1      -7.848  -0.873 126.308  0.00  0.00    +0.000 OA
ATOM     40  H   UNK     1      -7.466  -0.022 126.032  0.00  0.00    +0.000 HD
ENDBRANCH  37  39
ENDBRANCH  33  37
ENDBRANCH  32  33
ENDBRANCH  31  32
ENDBRANCH  30  31
ENDBRANCH  29  30
ENDBRANCH  27  29
ENDBRANCH  26  27
ENDBRANCH  24  26
ENDBRANCH  19  22
BRANCH  21  41
ATOM     41  N   UNK     1      -5.832   1.526 130.171  0.00  0.00    +0.000 NA
ATOM     42  C   UNK     1      -7.025   1.386 129.313  0.00  0.00    +0.000 C 
ATOM     43  C   UNK     1      -4.949   0.407 129.996  0.00  0.00    +0.000 C 
ENDBRANCH  21  41
BRANCH   8  44
ATOM     44  O   UNK     1     -11.937   8.227 127.896  0.00  0.00    +0.000 OA
ATOM     45  H   UNK     1     -11.809   9.198 127.923  0.00  0.00    +0.000 HD
ENDBRANCH   8  44
BRANCH  20  46
ATOM     46  O   UNK     1      -4.315   3.669 132.862  0.00  0.00    +0.000 OA
ATOM     47  H   UNK     1      -4.836   3.938 133.650  0.00  0.00    +0.000 HD
ENDBRANCH  20  46
BRANCH  16  48
ATOM     48  O   UNK     1      -5.985   3.703 128.873  0.00  0.00    +0.000 OA
ATOM     49  H   UNK     1      -5.332   4.400 129.103  0.00  0.00    +0.000 HD
ENDBRANCH  16  48
BRANCH  15  50
ATOM     50  O   UNK     1      -7.845   4.490 127.565  0.00  0.00    +0.000 OA
ATOM     51  H   UNK     1      -7.511   3.576 127.350  0.00  0.00    +0.000 HD
ENDBRANCH  15  50
BRANCH  13  52
ATOM     52  O   UNK     1     -10.591   4.140 131.231  0.00  0.00    +0.000 OA
ATOM     53  H   UNK     1     -11.179   4.180 130.448  0.00  0.00    +0.000 HD
ENDBRANCH  13  52
TORSDOF 17
ENDMDL
MODEL 6
REMARK VINA RESULT:      -7.6      4.109      7.534
REMARK  Name = Lymecycline
REMARK  20 active torsions:
REMARK  status: ('A' for Active; 'I' for Inactive)
REMARK    1  A    between atoms: C_10  and  O_11
REMARK    2  A    between atoms: C_16  and  C_17
REMARK    3  A    between atoms: C_16  and  O_18
REMARK    4  A    between atoms: C_19  and  O_20
REMARK    5  A    between atoms: C_21  and  O_22
REMARK    6  A    between atoms: C_25  and  C_26
REMARK    7  A    between atoms: N_28  and  C_29
REMARK    8  A    between atoms: C_29  and  N_30
REMARK    9  A    between atoms: N_30  and  C_31
REMARK   10  A    between atoms: C_31  and  C_32
REMARK   11  A    between atoms: C_32  and  C_33
REMARK   12  A    between atoms: C_33  and  C_34
REMARK   13  A    between atoms: C_34  and  C_35
REMARK   14  A    between atoms: C_35  and  N_36
REMARK   15  A    between atoms: C_35  and  C_37
REMARK   16  A    between atoms: C_37  and  O_38
REMARK   17  A    between atoms: C_40  and  O_41
REMARK   18  A    between atoms: C_42  and  N_43
REMARK   19  A    between atoms: N_43  and  C_44
REMARK   20  A    between atoms: N_43  and  C_45
REMARK                            x       y       z     vdW  Elec       q    Type
REMARK                         _______ _______ _______ _____ _____    ______ ____
ROOT
ATOM      1  C   UNK     1      -9.064   1.912 131.273  0.00  0.00    +0.000 C 
ATOM      2  C   UNK     1      -8.793   3.348 130.325  0.00  0.00    +0.000 C 
ATOM      3  C   UNK     1      -9.838   4.314 130.069  0.00  0.00    +0.000 C 
ATOM      4  C   UNK     1     -10.159   4.864 131.356  0.00  0.00    +0.000 C 
ATOM      5  C   UNK     1     -10.966   6.107 131.359  0.00  0.00    +0.000 C 
ATOM      6  O   UNK     1     -11.546   6.513 132.358  0.00  0.00    +0.000 OA
ATOM      7  C   UNK     1     -10.952   6.856 130.062  0.00  0.00    +0.000 A 
ATOM      8  C   UNK     1     -11.782   7.936 129.815  0.00  0.00    +0.000 A 
ATOM      9  C   UNK     1     -11.736   8.572 128.569  0.00  0.00    +0.000 A 
ATOM     10  C   UNK     1     -10.863   8.164 127.568  0.00  0.00    +0.000 A 
ATOM     11  C   UNK     1     -10.008   7.137 127.820  0.00  0.00    +0.000 A 
ATOM     12  C   UNK     1     -10.063   6.475 129.040  0.00  0.00    +0.000 A 
ATOM     13  C   UNK     1      -9.131   5.344 129.204  0.00  0.00    +0.000 C 
ATOM     14  C   UNK     1      -8.847   4.614 127.872  0.00  0.00    +0.000 C 
ATOM     15  C   UNK     1      -9.550   4.236 132.357  0.00  0.00    +0.000 C 
ATOM     16  C   UNK     1      -8.431   2.826 132.106  0.00  0.00    +0.000 C 
ATOM     17  C   UNK     1      -7.201   2.069 130.661  0.00  0.00    +0.000 C 
ATOM     18  O   UNK     1      -7.422   1.793 129.398  0.00  0.00    +0.000 OA
ATOM     19  C   UNK     1      -6.072   1.068 130.739  0.00  0.00    +0.000 C 
ATOM     20  C   UNK     1      -7.061   0.221 131.216  0.00  0.00    +0.000 C 
ATOM     21  C   UNK     1      -7.856   0.889 132.313  0.00  0.00    +0.000 C 
ENDROOT
BRANCH  19  22
ATOM     22  C   UNK     1      -4.960   2.105 131.025  0.00  0.00    +0.000 C 
ATOM     23  O   UNK     1      -3.887   1.735 131.520  0.00  0.00    +0.000 OA
ATOM     24  N   UNK     1      -5.090   3.454 130.788  0.00  0.00    +0.000 N 
ATOM     25  H   UNK     1      -5.959   3.970 130.809  0.00  0.00    +0.000 HD
BRANCH  24  26
ATOM     26  C   UNK     1      -3.831   4.144 130.666  0.00  0.00    +0.000 C 
BRANCH  26  27
ATOM     27  N   UNK     1      -3.618   4.974 131.823  0.00  0.00    +0.000 NA
ATOM     28  H   UNK     1      -3.839   4.414 132.645  0.00  0.00    +0.000 HD
BRANCH  27  29
ATOM     29  C   UNK     1      -2.186   5.303 131.883  0.00  0.00    +0.000 C 
BRANCH  29  30
ATOM     30  C   UNK     1      -2.033   6.750 132.328  0.00  0.00    +0.000 C 
BRANCH  30  31
ATOM     31  C   UNK     1      -3.328   7.499 132.078  0.00  0.00    +0.000 C 
BRANCH  31  32
ATOM     32  C   UNK     1      -3.216   8.434 130.875  0.00  0.00    +0.000 C 
BRANCH  32  33
ATOM     33  C   UNK     1      -4.199   8.036 129.766  0.00  0.00    +0.000 C 
BRANCH  33  34
ATOM     34  N   UNK     1      -5.369   7.348 130.346  0.00  0.00    +0.000 NA
ATOM     35  H   UNK     1      -5.101   6.647 131.030  0.00  0.00    +0.000 HD
ATOM     36  H   UNK     1      -5.971   6.961 129.626  0.00  0.00    +0.000 HD
ENDBRANCH  33  34
BRANCH  33  37
ATOM     37  C   UNK     1      -3.470   7.177 128.714  0.00  0.00    +0.000 C 
ATOM     38  O   UNK     1      -2.267   6.957 128.746  0.00  0.00    +0.000 OA
BRANCH  37  39
ATOM     39  O   UNK     1      -4.260   6.617 127.765  0.00  0.00    +0.000 OA
ATOM     40  H   UNK     1      -5.056   6.178 128.111  0.00  0.00    +0.000 HD
ENDBRANCH  37  39
ENDBRANCH  33  37
ENDBRANCH  32  33
ENDBRANCH  31  32
ENDBRANCH  30  31
ENDBRANCH  29  30
ENDBRANCH  27  29
ENDBRANCH  26  27
ENDBRANCH  24  26
ENDBRANCH  19  22
BRANCH  21  41
ATOM     41  N   UNK     1      -6.652   1.687 133.128  0.00  0.00    +0.000 NA
ATOM     42  C   UNK     1      -6.664   3.073 133.636  0.00  0.00    +0.000 C 
ATOM     43  C   UNK     1      -5.776   0.867 133.916  0.00  0.00    +0.000 C 
ENDBRANCH  21  41
BRANCH   8  44
ATOM     44  O   UNK     1     -12.671   8.422 130.728  0.00  0.00    +0.000 OA
ATOM     45  H   UNK     1     -13.564   8.076 130.514  0.00  0.00    +0.000 HD
ENDBRANCH   8  44
BRANCH  20  46
ATOM     46  O   UNK     1      -7.919  -0.568 130.400  0.00  0.00    +0.000 OA
ATOM     47  H   UNK     1      -8.654  -0.023 130.044  0.00  0.00    +0.000 HD
ENDBRANCH  20  46
BRANCH  16  48
ATOM     48  O   UNK     1      -9.094   2.338 133.379  0.00  0.00    +0.000 OA
ATOM     49  H   UNK     1      -8.439   2.472 134.099  0.00  0.00    +0.000 HD
ENDBRANCH  16  48
BRANCH  15  50
ATOM     50  O   UNK     1      -9.988   4.553 133.668  0.00  0.00    +0.000 OA
ATOM     51  H   UNK     1     -10.853   4.087 133.827  0.00  0.00    +0.000 HD
ENDBRANCH  15  50
BRANCH  13  52
ATOM     52  O   UNK     1      -7.939   5.904 129.786  0.00  0.00    +0.000 OA
ATOM     53  H   UNK     1      -8.095   6.838 130.038  0.00  0.00    +0.000 HD
ENDBRANCH  13  52
TORSDOF 17
ENDMDL
MODEL 7
REMARK VINA RESULT:      -7.6      3.736      5.833
REMARK  Name = Lymecycline
REMARK  20 active torsions:
REMARK  status: ('A' for Active; 'I' for Inactive)
REMARK    1  A    between atoms: C_10  and  O_11
REMARK    2  A    between atoms: C_16  and  C_17
REMARK    3  A    between atoms: C_16  and  O_18
REMARK    4  A    between atoms: C_19  and  O_20
REMARK    5  A    between atoms: C_21  and  O_22
REMARK    6  A    between atoms: C_25  and  C_26
REMARK    7  A    between atoms: N_28  and  C_29
REMARK    8  A    between atoms: C_29  and  N_30
REMARK    9  A    between atoms: N_30  and  C_31
REMARK   10  A    between atoms: C_31  and  C_32
REMARK   11  A    between atoms: C_32  and  C_33
REMARK   12  A    between atoms: C_33  and  C_34
REMARK   13  A    between atoms: C_34  and  C_35
REMARK   14  A    between atoms: C_35  and  N_36
REMARK   15  A    between atoms: C_35  and  C_37
REMARK   16  A    between atoms: C_37  and  O_38
REMARK   17  A    between atoms: C_40  and  O_41
REMARK   18  A    between atoms: C_42  and  N_43
REMARK   19  A    between atoms: N_43  and  C_44
REMARK   20  A    between atoms: N_43  and  C_45
REMARK                            x       y       z     vdW  Elec       q    Type
REMARK                         _______ _______ _______ _____ _____    ______ ____
ROOT
ATOM      1  C   UNK     1      -5.377  -2.687 129.736  0.00  0.00    +0.000 C 
ATOM      2  C   UNK     1      -5.834  -1.629 128.430  0.00  0.00    +0.000 C 
ATOM      3  C   UNK     1      -6.410  -2.124 127.199  0.00  0.00    +0.000 C 
ATOM      4  C   UNK     1      -7.673  -2.688 127.581  0.00  0.00    +0.000 C 
ATOM      5  C   UNK     1      -8.624  -2.978 126.482  0.00  0.00    +0.000 C 
ATOM      6  O   UNK     1      -9.594  -3.712 126.627  0.00  0.00    +0.000 OA
ATOM      7  C   UNK     1      -8.339  -2.246 125.207  0.00  0.00    +0.000 A 
ATOM      8  C   UNK     1      -9.003  -2.519 124.024  0.00  0.00    +0.000 A 
ATOM      9  C   UNK     1      -8.664  -1.814 122.863  0.00  0.00    +0.000 A 
ATOM     10  C   UNK     1      -7.687  -0.826 122.862  0.00  0.00    +0.000 A 
ATOM     11  C   UNK     1      -7.066  -0.515 124.032  0.00  0.00    +0.000 A 
ATOM     12  C   UNK     1      -7.368  -1.227 125.185  0.00  0.00    +0.000 A 
ATOM     13  C   UNK     1      -6.609  -0.852 126.393  0.00  0.00    +0.000 C 
ATOM     14  C   UNK     1      -5.181  -0.362 126.065  0.00  0.00    +0.000 C 
ATOM     15  C   UNK     1      -7.848  -2.732 128.898  0.00  0.00    +0.000 C 
ATOM     16  C   UNK     1      -6.605  -2.135 130.081  0.00  0.00    +0.000 C 
ATOM     17  C   UNK     1      -5.068  -0.790 130.161  0.00  0.00    +0.000 C 
ATOM     18  O   UNK     1      -4.034  -0.615 129.373  0.00  0.00    +0.000 OA
ATOM     19  C   UNK     1      -4.349  -0.169 131.335  0.00  0.00    +0.000 C 
ATOM     20  C   UNK     1      -4.036  -1.485 131.642  0.00  0.00    +0.000 C 
ATOM     21  C   UNK     1      -5.271  -2.353 131.598  0.00  0.00    +0.000 C 
ENDROOT
BRANCH  19  22
ATOM     22  C   UNK     1      -5.303   1.039 131.485  0.00  0.00    +0.000 C 
ATOM     23  O   UNK     1      -5.317   1.685 132.541  0.00  0.00    +0.000 OA
ATOM     24  N   UNK     1      -6.185   1.445 130.510  0.00  0.00    +0.000 N 
ATOM     25  H   UNK     1      -6.611   0.842 129.819  0.00  0.00    +0.000 HD
BRANCH  24  26
ATOM     26  C   UNK     1      -6.609   2.815 130.648  0.00  0.00    +0.000 C 
BRANCH  26  27
ATOM     27  N   UNK     1      -6.245   3.556 129.468  0.00  0.00    +0.000 NA
ATOM     28  H   UNK     1      -5.361   3.179 129.130  0.00  0.00    +0.000 HD
BRANCH  27  29
ATOM     29  C   UNK     1      -7.262   3.291 128.438  0.00  0.00    +0.000 C 
BRANCH  29  30
ATOM     30  C   UNK     1      -6.896   4.061 127.178  0.00  0.00    +0.000 C 
BRANCH  30  31
ATOM     31  C   UNK     1      -5.901   3.258 126.361  0.00  0.00    +0.000 C 
BRANCH  31  32
ATOM     32  C   UNK     1      -4.483   3.808 126.501  0.00  0.00    +0.000 C 
BRANCH  32  33
ATOM     33  C   UNK     1      -3.498   2.708 126.923  0.00  0.00    +0.000 C 
BRANCH  33  34
ATOM     34  N   UNK     1      -3.890   2.150 128.233  0.00  0.00    +0.000 NA
ATOM     35  H   UNK     1      -3.141   2.215 128.916  0.00  0.00    +0.000 HD
ATOM     36  H   UNK     1      -4.240   1.202 128.146  0.00  0.00    +0.000 HD
ENDBRANCH  33  34
BRANCH  33  37
ATOM     37  C   UNK     1      -2.064   3.273 126.926  0.00  0.00    +0.000 C 
ATOM     38  O   UNK     1      -1.090   2.629 126.562  0.00  0.00    +0.000 OA
BRANCH  37  39
ATOM     39  O   UNK     1      -1.946   4.569 127.306  0.00  0.00    +0.000 OA
ATOM     40  H   UNK     1      -1.390   4.710 128.092  0.00  0.00    +0.000 HD
ENDBRANCH  37  39
ENDBRANCH  33  37
ENDBRANCH  32  33
ENDBRANCH  31  32
ENDBRANCH  30  31
ENDBRANCH  29  30
ENDBRANCH  27  29
ENDBRANCH  26  27
ENDBRANCH  24  26
ENDBRANCH  19  22
BRANCH  21  41
ATOM     41  N   UNK     1      -6.391  -1.337 132.278  0.00  0.00    +0.000 NA
ATOM     42  C   UNK     1      -7.775  -1.084 131.834  0.00  0.00    +0.000 C 
ATOM     43  C   UNK     1      -6.266  -1.120 133.692  0.00  0.00    +0.000 C 
ENDBRANCH  21  41
BRANCH   8  44
ATOM     44  O   UNK     1      -9.980  -3.464 123.915  0.00  0.00    +0.000 OA
ATOM     45  H   UNK     1     -10.508  -3.281 123.109  0.00  0.00    +0.000 HD
ENDBRANCH   8  44
BRANCH  20  46
ATOM     46  O   UNK     1      -2.917  -2.196 131.127  0.00  0.00    +0.000 OA
ATOM     47  H   UNK     1      -3.123  -2.569 130.242  0.00  0.00    +0.000 HD
ENDBRANCH  20  46
BRANCH  16  48
ATOM     48  O   UNK     1      -7.080  -3.338 130.873  0.00  0.00    +0.000 OA
ATOM     49  H   UNK     1      -6.361  -3.550 131.507  0.00  0.00    +0.000 HD
ENDBRANCH  16  48
BRANCH  15  50
ATOM     50  O   UNK     1      -8.953  -3.484 129.370  0.00  0.00    +0.000 OA
ATOM     51  H   UNK     1      -8.782  -4.444 129.170  0.00  0.00    +0.000 HD
ENDBRANCH  15  50
BRANCH  13  52
ATOM     52  O   UNK     1      -7.397   0.161 127.048  0.00  0.00    +0.000 OA
ATOM     53  H   UNK     1      -8.179   0.383 126.502  0.00  0.00    +0.000 HD
ENDBRANCH  13  52
TORSDOF 17
ENDMDL
MODEL 8
REMARK VINA RESULT:      -7.6      3.213      4.803
REMARK  Name = Lymecycline
REMARK  20 active torsions:
REMARK  status: ('A' for Active; 'I' for Inactive)
REMARK    1  A    between atoms: C_10  and  O_11
REMARK    2  A    between atoms: C_16  and  C_17
REMARK    3  A    between atoms: C_16  and  O_18
REMARK    4  A    between atoms: C_19  and  O_20
REMARK    5  A    between atoms: C_21  and  O_22
REMARK    6  A    between atoms: C_25  and  C_26
REMARK    7  A    between atoms: N_28  and  C_29
REMARK    8  A    between atoms: C_29  and  N_30
REMARK    9  A    between atoms: N_30  and  C_31
REMARK   10  A    between atoms: C_31  and  C_32
REMARK   11  A    between atoms: C_32  and  C_33
REMARK   12  A    between atoms: C_33  and  C_34
REMARK   13  A    between atoms: C_34  and  C_35
REMARK   14  A    between atoms: C_35  and  N_36
REMARK   15  A    between atoms: C_35  and  C_37
REMARK   16  A    between atoms: C_37  and  O_38
REMARK   17  A    between atoms: C_40  and  O_41
REMARK   18  A    between atoms: C_42  and  N_43
REMARK   19  A    between atoms: N_43  and  C_44
REMARK   20  A    between atoms: N_43  and  C_45
REMARK                            x       y       z     vdW  Elec       q    Type
REMARK                         _______ _______ _______ _____ _____    ______ ____
ROOT
ATOM      1  C   UNK     1      -5.350  -2.776 129.690  0.00  0.00    +0.000 C 
ATOM      2  C   UNK     1      -5.802  -1.627 128.461  0.00  0.00    +0.000 C 
ATOM      3  C   UNK     1      -6.371  -2.033 127.195  0.00  0.00    +0.000 C 
ATOM      4  C   UNK     1      -7.635  -2.625 127.529  0.00  0.00    +0.000 C 
ATOM      5  C   UNK     1      -8.581  -2.837 126.408  0.00  0.00    +0.000 C 
ATOM      6  O   UNK     1      -9.550  -3.580 126.494  0.00  0.00    +0.000 OA
ATOM      7  C   UNK     1      -8.290  -2.015 125.190  0.00  0.00    +0.000 A 
ATOM      8  C   UNK     1      -8.948  -2.203 123.987  0.00  0.00    +0.000 A 
ATOM      9  C   UNK     1      -8.604  -1.416 122.881  0.00  0.00    +0.000 A 
ATOM     10  C   UNK     1      -7.629  -0.429 122.956  0.00  0.00    +0.000 A 
ATOM     11  C   UNK     1      -7.014  -0.202 124.148  0.00  0.00    +0.000 A 
ATOM     12  C   UNK     1      -7.320  -0.996 125.246  0.00  0.00    +0.000 A 
ATOM     13  C   UNK     1      -6.568  -0.707 126.481  0.00  0.00    +0.000 C 
ATOM     14  C   UNK     1      -5.139  -0.194 126.197  0.00  0.00    +0.000 C 
ATOM     15  C   UNK     1      -7.816  -2.764 128.839  0.00  0.00    +0.000 C 
ATOM     16  C   UNK     1      -6.580  -2.252 130.068  0.00  0.00    +0.000 C 
ATOM     17  C   UNK     1      -5.046  -0.915 130.251  0.00  0.00    +0.000 C 
ATOM     18  O   UNK     1      -4.008  -0.682 129.483  0.00  0.00    +0.000 OA
ATOM     19  C   UNK     1      -4.333  -0.378 131.471  0.00  0.00    +0.000 C 
ATOM     20  C   UNK     1      -4.020  -1.712 131.684  0.00  0.00    +0.000 C 
ATOM     21  C   UNK     1      -5.253  -2.577 131.571  0.00  0.00    +0.000 C 
ENDROOT
BRANCH  19  22
ATOM     22  C   UNK     1      -5.289   0.815 131.702  0.00  0.00    +0.000 C 
ATOM     23  O   UNK     1      -5.300   1.392 132.798  0.00  0.00    +0.000 OA
ATOM     24  N   UNK     1      -6.178   1.279 130.760  0.00  0.00    +0.000 N 
ATOM     25  H   UNK     1      -6.606   0.721 130.034  0.00  0.00    +0.000 HD
BRANCH  24  26
ATOM     26  C   UNK     1      -6.604   2.637 130.987  0.00  0.00    +0.000 C 
BRANCH  26  27
ATOM     27  N   UNK     1      -8.007   2.657 131.311  0.00  0.00    +0.000 NA
ATOM     28  H   UNK     1      -8.091   2.951 132.283  0.00  0.00    +0.000 HD
BRANCH  27  29
ATOM     29  C   UNK     1      -8.646   3.689 130.481  0.00  0.00    +0.000 C 
BRANCH  29  30
ATOM     30  C   UNK     1      -8.557   3.270 129.021  0.00  0.00    +0.000 C 
BRANCH  30  31
ATOM     31  C   UNK     1      -8.099   4.447 128.180  0.00  0.00    +0.000 C 
BRANCH  31  32
ATOM     32  C   UNK     1      -7.256   3.995 126.989  0.00  0.00    +0.000 C 
BRANCH  32  33
ATOM     33  C   UNK     1      -7.831   4.522 125.667  0.00  0.00    +0.000 C 
BRANCH  33  34
ATOM     34  N   UNK     1      -8.808   5.598 125.929  0.00  0.00    +0.000 NA
ATOM     35  H   UNK     1      -9.050   5.662 126.913  0.00  0.00    +0.000 HD
ATOM     36  H   UNK     1      -9.630   5.508 125.343  0.00  0.00    +0.000 HD
ENDBRANCH  33  34
BRANCH  33  37
ATOM     37  C   UNK     1      -8.440   3.353 124.868  0.00  0.00    +0.000 C 
ATOM     38  O   UNK     1      -8.942   2.370 125.395  0.00  0.00    +0.000 OA
BRANCH  37  39
ATOM     39  O   UNK     1      -8.443   3.504 123.520  0.00  0.00    +0.000 OA
ATOM     40  H   UNK     1      -8.079   2.748 123.028  0.00  0.00    +0.000 HD
ENDBRANCH  37  39
ENDBRANCH  33  37
ENDBRANCH  32  33
ENDBRANCH  31  32
ENDBRANCH  30  31
ENDBRANCH  29  30
ENDBRANCH  27  29
ENDBRANCH  26  27
ENDBRANCH  24  26
ENDBRANCH  19  22
BRANCH  21  41
ATOM     41  N   UNK     1      -6.378  -1.613 132.317  0.00  0.00    +0.000 NA
ATOM     42  C   UNK     1      -7.752  -1.311 131.872  0.00  0.00    +0.000 C 
ATOM     43  C   UNK     1      -6.278  -1.520 133.747  0.00  0.00    +0.000 C 
ENDBRANCH  21  41
BRANCH   8  44
ATOM     44  O   UNK     1      -9.923  -3.138 123.805  0.00  0.00    +0.000 OA
ATOM     45  H   UNK     1     -10.001  -3.677 124.621  0.00  0.00    +0.000 HD
ENDBRANCH   8  44
BRANCH  20  46
ATOM     46  O   UNK     1      -2.897  -2.384 131.125  0.00  0.00    +0.000 OA
ATOM     47  H   UNK     1      -2.061  -2.025 131.495  0.00  0.00    +0.000 HD
ENDBRANCH  20  46
BRANCH  16  48
ATOM     48  O   UNK     1      -7.057  -3.509 130.769  0.00  0.00    +0.000 OA
ATOM     49  H   UNK     1      -7.750  -3.899 130.190  0.00  0.00    +0.000 HD
ENDBRANCH  16  48
BRANCH  15  50
ATOM     50  O   UNK     1      -8.923  -3.549 129.250  0.00  0.00    +0.000 OA
ATOM     51  H   UNK     1      -9.355  -3.093 130.023  0.00  0.00    +0.000 HD
ENDBRANCH  15  50
BRANCH  13  52
ATOM     52  O   UNK     1      -7.361   0.255 127.204  0.00  0.00    +0.000 OA
ATOM     53  H   UNK     1      -8.307   0.002 127.171  0.00  0.00    +0.000 HD
ENDBRANCH  13  52
TORSDOF 17
ENDMDL
MODEL 9
REMARK VINA RESULT:      -7.6      3.683      7.583
REMARK  Name = Lymecycline
REMARK  20 active torsions:
REMARK  status: ('A' for Active; 'I' for Inactive)
REMARK    1  A    between atoms: C_10  and  O_11
REMARK    2  A    between atoms: C_16  and  C_17
REMARK    3  A    between atoms: C_16  and  O_18
REMARK    4  A    between atoms: C_19  and  O_20
REMARK    5  A    between atoms: C_21  and  O_22
REMARK    6  A    between atoms: C_25  and  C_26
REMARK    7  A    between atoms: N_28  and  C_29
REMARK    8  A    between atoms: C_29  and  N_30
REMARK    9  A    between atoms: N_30  and  C_31
REMARK   10  A    between atoms: C_31  and  C_32
REMARK   11  A    between atoms: C_32  and  C_33
REMARK   12  A    between atoms: C_33  and  C_34
REMARK   13  A    between atoms: C_34  and  C_35
REMARK   14  A    between atoms: C_35  and  N_36
REMARK   15  A    between atoms: C_35  and  C_37
REMARK   16  A    between atoms: C_37  and  O_38
REMARK   17  A    between atoms: C_40  and  O_41
REMARK   18  A    between atoms: C_42  and  N_43
REMARK   19  A    between atoms: N_43  and  C_44
REMARK   20  A    between atoms: N_43  and  C_45
REMARK                            x       y       z     vdW  Elec       q    Type
REMARK                         _______ _______ _______ _____ _____    ______ ____
ROOT
ATOM      1  C   UNK     1      -8.902   2.083 131.278  0.00  0.00    +0.000 C 
ATOM      2  C   UNK     1      -8.695   3.573 130.399  0.00  0.00    +0.000 C 
ATOM      3  C   UNK     1      -9.800   4.458 130.107  0.00  0.00    +0.000 C 
ATOM      4  C   UNK     1     -10.248   4.928 131.387  0.00  0.00    +0.000 C 
ATOM      5  C   UNK     1     -11.156   6.099 131.380  0.00  0.00    +0.000 C 
ATOM      6  O   UNK     1     -11.831   6.416 132.351  0.00  0.00    +0.000 OA
ATOM      7  C   UNK     1     -11.125   6.898 130.113  0.00  0.00    +0.000 A 
ATOM      8  C   UNK     1     -12.026   7.914 129.848  0.00  0.00    +0.000 A 
ATOM      9  C   UNK     1     -11.956   8.600 128.629  0.00  0.00    +0.000 A 
ATOM     10  C   UNK     1     -10.990   8.306 127.676  0.00  0.00    +0.000 A 
ATOM     11  C   UNK     1     -10.067   7.344 127.949  0.00  0.00    +0.000 A 
ATOM     12  C   UNK     1     -10.143   6.632 129.139  0.00  0.00    +0.000 A 
ATOM     13  C   UNK     1      -9.131   5.577 129.326  0.00  0.00    +0.000 C 
ATOM     14  C   UNK     1      -8.702   4.926 127.992  0.00  0.00    +0.000 C 
ATOM     15  C   UNK     1      -9.652   4.314 132.405  0.00  0.00    +0.000 C 
ATOM     16  C   UNK     1      -8.403   3.013 132.182  0.00  0.00    +0.000 C 
ATOM     17  C   UNK     1      -7.024   2.418 130.797  0.00  0.00    +0.000 C 
ATOM     18  O   UNK     1      -7.140   2.175 129.513  0.00  0.00    +0.000 OA
ATOM     19  C   UNK     1      -5.821   1.512 130.915  0.00  0.00    +0.000 C 
ATOM     20  C   UNK     1      -6.762   0.568 131.297  0.00  0.00    +0.000 C 
ATOM     21  C   UNK     1      -7.679   1.124 132.360  0.00  0.00    +0.000 C 
ENDROOT
BRANCH  19  22
ATOM     22  C   UNK     1      -4.822   2.625 131.309  0.00  0.00    +0.000 C 
ATOM     23  O   UNK     1      -3.729   2.323 131.806  0.00  0.00    +0.000 OA
ATOM     24  N   UNK     1      -5.078   3.970 131.170  0.00  0.00    +0.000 N 
ATOM     25  H   UNK     1      -5.993   4.397 131.204  0.00  0.00    +0.000 HD
BRANCH  24  26
ATOM     26  C   UNK     1      -3.890   4.784 131.136  0.00  0.00    +0.000 C 
BRANCH  26  27
ATOM     27  N   UNK     1      -3.109   4.456 129.972  0.00  0.00    +0.000 NA
ATOM     28  H   UNK     1      -3.741   4.045 129.286  0.00  0.00    +0.000 HD
BRANCH  27  29
ATOM     29  C   UNK     1      -2.595   5.712 129.405  0.00  0.00    +0.000 C 
BRANCH  29  30
ATOM     30  C   UNK     1      -2.514   5.570 127.892  0.00  0.00    +0.000 C 
BRANCH  30  31
ATOM     31  C   UNK     1      -2.440   4.102 127.521  0.00  0.00    +0.000 C 
BRANCH  31  32
ATOM     32  C   UNK     1      -3.337   3.775 126.328  0.00  0.00    +0.000 C 
BRANCH  32  33
ATOM     33  C   UNK     1      -4.785   4.214 126.583  0.00  0.00    +0.000 C 
BRANCH  33  34
ATOM     34  N   UNK     1      -5.293   3.596 127.824  0.00  0.00    +0.000 NA
ATOM     35  H   UNK     1      -4.616   3.644 128.580  0.00  0.00    +0.000 HD
ATOM     36  H   UNK     1      -5.615   2.648 127.666  0.00  0.00    +0.000 HD
ENDBRANCH  33  34
BRANCH  33  37
ATOM     37  C   UNK     1      -5.652   3.872 125.356  0.00  0.00    +0.000 C 
ATOM     38  O   UNK     1      -5.360   4.205 124.216  0.00  0.00    +0.000 OA
BRANCH  37  39
ATOM     39  O   UNK     1      -6.749   3.114 125.605  0.00  0.00    +0.000 OA
ATOM     40  H   UNK     1      -7.590   3.603 125.585  0.00  0.00    +0.000 HD
ENDBRANCH  37  39
ENDBRANCH  33  37
ENDBRANCH  32  33
ENDBRANCH  31  32
ENDBRANCH  30  31
ENDBRANCH  29  30
ENDBRANCH  27  29
ENDBRANCH  26  27
ENDBRANCH  24  26
ENDBRANCH  19  22
BRANCH  21  41
ATOM     41  N   UNK     1      -6.602   1.986 133.280  0.00  0.00    +0.000 NA
ATOM     42  C   UNK     1      -6.776   3.332 133.858  0.00  0.00    +0.000 C 
ATOM     43  C   UNK     1      -5.689   1.210 134.072  0.00  0.00    +0.000 C 
ENDBRANCH  21  41
BRANCH   8  44
ATOM     44  O   UNK     1     -13.010   8.287 130.715  0.00  0.00    +0.000 OA
ATOM     45  H   UNK     1     -13.404   9.130 130.403  0.00  0.00    +0.000 HD
ENDBRANCH   8  44
BRANCH  20  46
ATOM     46  O   UNK     1      -7.496  -0.257 130.398  0.00  0.00    +0.000 OA
ATOM     47  H   UNK     1      -7.164  -1.181 130.429  0.00  0.00    +0.000 HD
ENDBRANCH  20  46
BRANCH  16  48
ATOM     48  O   UNK     1      -9.102   2.421 133.390  0.00  0.00    +0.000 OA
ATOM     49  H   UNK     1      -8.654   2.799 134.178  0.00  0.00    +0.000 HD
ENDBRANCH  16  48
BRANCH  15  50
ATOM     50  O   UNK     1     -10.197   4.541 133.694  0.00  0.00    +0.000 OA
ATOM     51  H   UNK     1      -9.443   4.673 134.330  0.00  0.00    +0.000 HD
ENDBRANCH  15  50
BRANCH  13  52
ATOM     52  O   UNK     1      -8.029   6.210 130.005  0.00  0.00    +0.000 OA
ATOM     53  H   UNK     1      -8.263   7.133 130.235  0.00  0.00    +0.000 HD
ENDBRANCH  13  52
TORSDOF 17
ENDMDL
