MODEL 1
REMARK VINA RESULT:      -7.2      0.000      0.000
REMARK  Name = Lynestrenol
REMARK  3 active torsions:
REMARK  status: ('A' for Active; 'I' for Inactive)
REMARK    1  A    between atoms: C_1  and  C_2
REMARK    2  A    between atoms: C_18  and  O_19
REMARK    3  A    between atoms: C_18  and  C_20
REMARK                            x       y       z     vdW  Elec       q    Type
REMARK                         _______ _______ _______ _____ _____    ______ ____
ROOT
ATOM      1  C   UNL     1      -7.497  -3.759 124.348  0.00  0.00    +0.000 C 
ATOM      2  C   UNL     1      -7.800  -2.344 124.729  0.00  0.00    +0.000 C 
ATOM      3  C   UNL     1      -9.018  -2.408 126.100  0.00  0.00    +0.000 C 
ATOM      4  C   UNL     1      -8.630  -3.129 127.341  0.00  0.00    +0.000 C 
ATOM      5  C   UNL     1      -7.424  -2.484 127.970  0.00  0.00    +0.000 C 
ATOM      6  C   UNL     1      -6.492  -2.279 126.744  0.00  0.00    +0.000 C 
ATOM      7  C   UNL     1      -5.008  -1.982 127.299  0.00  0.00    +0.000 C 
ATOM      8  C   UNL     1      -4.562  -2.913 128.475  0.00  0.00    +0.000 C 
ATOM      9  C   UNL     1      -5.548  -2.949 129.571  0.00  0.00    +0.000 C 
ATOM     10  C   UNL     1      -5.166  -2.698 130.824  0.00  0.00    +0.000 C 
ATOM     11  C   UNL     1      -6.171  -2.887 131.819  0.00  0.00    +0.000 C 
ATOM     12  C   UNL     1      -7.512  -2.713 132.335  0.00  0.00    +0.000 C 
ATOM     13  C   UNL     1      -8.128  -3.150 130.695  0.00  0.00    +0.000 C 
ATOM     14  C   UNL     1      -6.999  -3.299 129.273  0.00  0.00    +0.000 C 
ATOM     15  C   UNL     1      -7.403  -1.211 125.500  0.00  0.00    +0.000 C 
ATOM     16  C   UNL     1      -9.101  -0.978 124.439  0.00  0.00    +0.000 C 
ATOM     17  C   UNL     1      -8.928  -1.390 122.918  0.00  0.00    +0.000 C 
ATOM     18  C   UNL     1      -7.550  -1.258 123.299  0.00  0.00    +0.000 C 
ENDROOT
BRANCH  18  19
ATOM     19  O   UNL     1      -6.535  -1.719 122.471  0.00  0.00    +0.000 OA
ATOM     20  H   UNL     1      -6.968  -1.838 121.614  0.00  0.00    +0.000 HD
ENDBRANCH  18  19
BRANCH  18  21
ATOM     21  C   UNL     1      -7.344   0.314 123.355  0.00  0.00    +0.000 C 
ATOM     22  C   UNL     1      -7.137   1.466 123.316  0.00  0.00    +0.000 C 
ENDBRANCH  18  21
TORSDOF 2
ENDMDL
MODEL 2
REMARK VINA RESULT:      -7.1      8.384      9.419
REMARK  Name = Lynestrenol
REMARK  3 active torsions:
REMARK  status: ('A' for Active; 'I' for Inactive)
REMARK    1  A    between atoms: C_1  and  C_2
REMARK    2  A    between atoms: C_18  and  O_19
REMARK    3  A    between atoms: C_18  and  C_20
REMARK                            x       y       z     vdW  Elec       q    Type
REMARK                         _______ _______ _______ _____ _____    ______ ____
ROOT
ATOM      1  C   UNL     1     -11.799   7.097 131.656  0.00  0.00    +0.000 C 
ATOM      2  C   UNL     1     -11.183   7.019 130.294  0.00  0.00    +0.000 C 
ATOM      3  C   UNL     1      -9.382   7.300 130.505  0.00  0.00    +0.000 C 
ATOM      4  C   UNL     1      -8.631   6.367 131.385  0.00  0.00    +0.000 C 
ATOM      5  C   UNL     1      -8.710   4.961 130.851  0.00  0.00    +0.000 C 
ATOM      6  C   UNL     1     -10.221   4.829 130.513  0.00  0.00    +0.000 C 
ATOM      7  C   UNL     1     -10.546   3.261 130.321  0.00  0.00    +0.000 C 
ATOM      8  C   UNL     1      -9.900   2.332 131.403  0.00  0.00    +0.000 C 
ATOM      9  C   UNL     1      -8.453   2.566 131.556  0.00  0.00    +0.000 C 
ATOM     10  C   UNL     1      -7.598   1.546 131.474  0.00  0.00    +0.000 C 
ATOM     11  C   UNL     1      -6.237   1.862 131.766  0.00  0.00    +0.000 C 
ATOM     12  C   UNL     1      -5.057   2.689 131.628  0.00  0.00    +0.000 C 
ATOM     13  C   UNL     1      -6.122   4.131 131.841  0.00  0.00    +0.000 C 
ATOM     14  C   UNL     1      -7.938   3.971 131.834  0.00  0.00    +0.000 C 
ATOM     15  C   UNL     1     -10.654   6.171 129.277  0.00  0.00    +0.000 C 
ATOM     16  C   UNL     1     -10.582   8.145 128.875  0.00  0.00    +0.000 C 
ATOM     17  C   UNL     1     -11.980   8.860 129.094  0.00  0.00    +0.000 C 
ATOM     18  C   UNL     1     -12.406   7.491 129.042  0.00  0.00    +0.000 C 
ENDROOT
BRANCH  18  19
ATOM     19  O   UNL     1     -13.694   7.131 129.416  0.00  0.00    +0.000 OA
ATOM     20  H   UNL     1     -14.105   7.968 129.674  0.00  0.00    +0.000 HD
ENDBRANCH  18  19
BRANCH  18  21
ATOM     21  C   UNL     1     -12.325   7.151 127.495  0.00  0.00    +0.000 C 
ATOM     22  C   UNL     1     -12.361   6.917 126.348  0.00  0.00    +0.000 C 
ENDBRANCH  18  21
TORSDOF 2
ENDMDL
MODEL 3
REMARK VINA RESULT:      -7.1      2.499      6.650
REMARK  Name = Lynestrenol
REMARK  3 active torsions:
REMARK  status: ('A' for Active; 'I' for Inactive)
REMARK    1  A    between atoms: C_1  and  C_2
REMARK    2  A    between atoms: C_18  and  O_19
REMARK    3  A    between atoms: C_18  and  C_20
REMARK                            x       y       z     vdW  Elec       q    Type
REMARK                         _______ _______ _______ _____ _____    ______ ____
ROOT
ATOM      1  C   UNL     1      -8.254  -1.694 130.749  0.00  0.00    +0.000 C 
ATOM      2  C   UNL     1      -7.045  -2.298 130.106  0.00  0.00    +0.000 C 
ATOM      3  C   UNL     1      -7.636  -3.672 129.042  0.00  0.00    +0.000 C 
ATOM      4  C   UNL     1      -8.600  -3.346 127.958  0.00  0.00    +0.000 C 
ATOM      5  C   UNL     1      -7.986  -2.381 126.980  0.00  0.00    +0.000 C 
ATOM      6  C   UNL     1      -7.338  -1.332 127.925  0.00  0.00    +0.000 C 
ATOM      7  C   UNL     1      -6.999  -0.022 127.048  0.00  0.00    +0.000 C 
ATOM      8  C   UNL     1      -8.137   0.407 126.064  0.00  0.00    +0.000 C 
ATOM      9  C   UNL     1      -8.597  -0.705 125.213  0.00  0.00    +0.000 C 
ATOM     10  C   UNL     1      -8.637  -0.562 123.888  0.00  0.00    +0.000 C 
ATOM     11  C   UNL     1      -9.219  -1.651 123.172  0.00  0.00    +0.000 C 
ATOM     12  C   UNL     1      -9.372  -3.063 122.890  0.00  0.00    +0.000 C 
ATOM     13  C   UNL     1      -9.440  -3.344 124.672  0.00  0.00    +0.000 C 
ATOM     14  C   UNL     1      -9.051  -2.011 125.852  0.00  0.00    +0.000 C 
ATOM     15  C   UNL     1      -6.114  -2.229 129.028  0.00  0.00    +0.000 C 
ATOM     16  C   UNL     1      -5.843  -3.768 130.301  0.00  0.00    +0.000 C 
ATOM     17  C   UNL     1      -5.809  -3.303 131.816  0.00  0.00    +0.000 C 
ATOM     18  C   UNL     1      -5.596  -2.042 131.164  0.00  0.00    +0.000 C 
ENDROOT
BRANCH  18  19
ATOM     19  O   UNL     1      -5.677  -0.851 131.873  0.00  0.00    +0.000 OA
ATOM     20  H   UNL     1      -4.770  -0.517 131.873  0.00  0.00    +0.000 HD
ENDBRANCH  18  19
BRANCH  18  21
ATOM     21  C   UNL     1      -4.082  -2.133 130.698  0.00  0.00    +0.000 C 
ATOM     22  C   UNL     1      -2.962  -2.102 130.358  0.00  0.00    +0.000 C 
ENDBRANCH  18  21
TORSDOF 2
ENDMDL
MODEL 4
REMARK VINA RESULT:      -7.1      1.678      3.115
REMARK  Name = Lynestrenol
REMARK  3 active torsions:
REMARK  status: ('A' for Active; 'I' for Inactive)
REMARK    1  A    between atoms: C_1  and  C_2
REMARK    2  A    between atoms: C_18  and  O_19
REMARK    3  A    between atoms: C_18  and  C_20
REMARK                            x       y       z     vdW  Elec       q    Type
REMARK                         _______ _______ _______ _____ _____    ______ ____
ROOT
ATOM      1  C   UNL     1      -8.551   1.013 126.529  0.00  0.00    +0.000 C 
ATOM      2  C   UNL     1      -7.852   0.043 125.629  0.00  0.00    +0.000 C 
ATOM      3  C   UNL     1      -6.081   0.046 126.111  0.00  0.00    +0.000 C 
ATOM      4  C   UNL     1      -5.741  -0.323 127.510  0.00  0.00    +0.000 C 
ATOM      5  C   UNL     1      -6.186  -1.730 127.806  0.00  0.00    +0.000 C 
ATOM      6  C   UNL     1      -7.623  -1.745 127.217  0.00  0.00    +0.000 C 
ATOM      7  C   UNL     1      -8.385  -3.036 127.812  0.00  0.00    +0.000 C 
ATOM      8  C   UNL     1      -8.164  -3.264 129.345  0.00  0.00    +0.000 C 
ATOM      9  C   UNL     1      -6.737  -3.265 129.715  0.00  0.00    +0.000 C 
ATOM     10  C   UNL     1      -6.226  -4.282 130.410  0.00  0.00    +0.000 C 
ATOM     11  C   UNL     1      -4.871  -4.119 130.826  0.00  0.00    +0.000 C 
ATOM     12  C   UNL     1      -3.488  -3.769 130.578  0.00  0.00    +0.000 C 
ATOM     13  C   UNL     1      -4.084  -2.303 129.710  0.00  0.00    +0.000 C 
ATOM     14  C   UNL     1      -5.853  -2.089 129.324  0.00  0.00    +0.000 C 
ATOM     15  C   UNL     1      -7.503  -1.320 125.394  0.00  0.00    +0.000 C 
ATOM     16  C   UNL     1      -6.798  -0.006 124.039  0.00  0.00    +0.000 C 
ATOM     17  C   UNL     1      -7.929   0.953 123.477  0.00  0.00    +0.000 C 
ATOM     18  C   UNL     1      -8.741  -0.080 124.054  0.00  0.00    +0.000 C 
ENDROOT
BRANCH  18  19
ATOM     19  O   UNL     1     -10.109   0.097 124.217  0.00  0.00    +0.000 OA
ATOM     20  H   UNL     1     -10.320   0.836 123.631  0.00  0.00    +0.000 HD
ENDBRANCH  18  19
BRANCH  18  21
ATOM     21  C   UNL     1      -8.609  -1.265 123.007  0.00  0.00    +0.000 C 
ATOM     22  C   UNL     1      -8.588  -2.181 122.279  0.00  0.00    +0.000 C 
ENDBRANCH  18  21
TORSDOF 2
ENDMDL
MODEL 5
REMARK VINA RESULT:      -7.1      2.701      6.772
REMARK  Name = Lynestrenol
REMARK  3 active torsions:
REMARK  status: ('A' for Active; 'I' for Inactive)
REMARK    1  A    between atoms: C_1  and  C_2
REMARK    2  A    between atoms: C_18  and  O_19
REMARK    3  A    between atoms: C_18  and  C_20
REMARK                            x       y       z     vdW  Elec       q    Type
REMARK                         _______ _______ _______ _____ _____    ______ ____
ROOT
ATOM      1  C   UNL     1      -5.809  -3.587 130.355  0.00  0.00    +0.000 C 
ATOM      2  C   UNL     1      -6.368  -2.209 130.181  0.00  0.00    +0.000 C 
ATOM      3  C   UNL     1      -5.329  -1.365 128.925  0.00  0.00    +0.000 C 
ATOM      4  C   UNL     1      -5.236  -1.980 127.575  0.00  0.00    +0.000 C 
ATOM      5  C   UNL     1      -6.595  -2.040 126.929  0.00  0.00    +0.000 C 
ATOM      6  C   UNL     1      -7.478  -2.586 128.084  0.00  0.00    +0.000 C 
ATOM      7  C   UNL     1      -8.866  -3.097 127.443  0.00  0.00    +0.000 C 
ATOM      8  C   UNL     1      -8.701  -3.924 126.125  0.00  0.00    +0.000 C 
ATOM      9  C   UNL     1      -7.870  -3.231 125.124  0.00  0.00    +0.000 C 
ATOM     10  C   UNL     1      -8.326  -3.051 123.884  0.00  0.00    +0.000 C 
ATOM     11  C   UNL     1      -7.393  -2.486 122.964  0.00  0.00    +0.000 C 
ATOM     12  C   UNL     1      -6.390  -1.510 122.594  0.00  0.00    +0.000 C 
ATOM     13  C   UNL     1      -5.636  -1.768 124.213  0.00  0.00    +0.000 C 
ATOM     14  C   UNL     1      -6.479  -2.743 125.502  0.00  0.00    +0.000 C 
ATOM     15  C   UNL     1      -7.339  -1.396 129.527  0.00  0.00    +0.000 C 
ATOM     16  C   UNL     1      -6.077  -0.411 130.753  0.00  0.00    +0.000 C 
ATOM     17  C   UNL     1      -5.986  -1.076 132.190  0.00  0.00    +0.000 C 
ATOM     18  C   UNL     1      -7.192  -1.687 131.709  0.00  0.00    +0.000 C 
ENDROOT
BRANCH  18  19
ATOM     19  O   UNL     1      -7.764  -2.759 132.381  0.00  0.00    +0.000 OA
ATOM     20  H   UNL     1      -7.339  -2.744 133.249  0.00  0.00    +0.000 HD
ENDBRANCH  18  19
BRANCH  18  21
ATOM     21  C   UNL     1      -8.258  -0.518 131.832  0.00  0.00    +0.000 C 
ATOM     22  C   UNL     1      -9.090   0.290 131.991  0.00  0.00    +0.000 C 
ENDBRANCH  18  21
TORSDOF 2
ENDMDL
MODEL 6
REMARK VINA RESULT:      -7.0      2.167      3.136
REMARK  Name = Lynestrenol
REMARK  3 active torsions:
REMARK  status: ('A' for Active; 'I' for Inactive)
REMARK    1  A    between atoms: C_1  and  C_2
REMARK    2  A    between atoms: C_18  and  O_19
REMARK    3  A    between atoms: C_18  and  C_20
REMARK                            x       y       z     vdW  Elec       q    Type
REMARK                         _______ _______ _______ _____ _____    ______ ____
ROOT
ATOM      1  C   UNL     1      -9.423  -2.362 125.848  0.00  0.00    +0.000 C 
ATOM      2  C   UNL     1      -7.955  -2.106 125.707  0.00  0.00    +0.000 C 
ATOM      3  C   UNL     1      -7.661  -0.373 126.238  0.00  0.00    +0.000 C 
ATOM      4  C   UNL     1      -8.046   0.003 127.624  0.00  0.00    +0.000 C 
ATOM      5  C   UNL     1      -7.271  -0.811 128.625  0.00  0.00    +0.000 C 
ATOM      6  C   UNL     1      -7.390  -2.244 128.038  0.00  0.00    +0.000 C 
ATOM      7  C   UNL     1      -6.972  -3.286 129.195  0.00  0.00    +0.000 C 
ATOM      8  C   UNL     1      -7.576  -2.963 130.602  0.00  0.00    +0.000 C 
ATOM      9  C   UNL     1      -7.327  -1.571 131.017  0.00  0.00    +0.000 C 
ATOM     10  C   UNL     1      -6.769  -1.314 132.201  0.00  0.00    +0.000 C 
ATOM     11  C   UNL     1      -6.692   0.066 132.556  0.00  0.00    +0.000 C 
ATOM     12  C   UNL     1      -6.383   1.449 132.261  0.00  0.00    +0.000 C 
ATOM     13  C   UNL     1      -7.218   1.228 130.676  0.00  0.00    +0.000 C 
ATOM     14  C   UNL     1      -7.732  -0.423 130.102  0.00  0.00    +0.000 C 
ATOM     15  C   UNL     1      -6.666  -2.220 126.308  0.00  0.00    +0.000 C 
ATOM     16  C   UNL     1      -6.699  -1.315 124.507  0.00  0.00    +0.000 C 
ATOM     17  C   UNL     1      -7.484  -2.159 123.418  0.00  0.00    +0.000 C 
ATOM     18  C   UNL     1      -7.269  -3.172 124.411  0.00  0.00    +0.000 C 
ENDROOT
BRANCH  18  19
ATOM     19  O   UNL     1      -7.932  -4.391 124.341  0.00  0.00    +0.000 OA
ATOM     20  H   UNL     1      -7.913  -4.720 125.250  0.00  0.00    +0.000 HD
ENDBRANCH  18  19
BRANCH  18  21
ATOM     21  C   UNL     1      -5.736  -3.535 124.226  0.00  0.00    +0.000 C 
ATOM     22  C   UNL     1      -4.629  -3.844 124.005  0.00  0.00    +0.000 C 
ENDBRANCH  18  21
TORSDOF 2
ENDMDL
MODEL 7
REMARK VINA RESULT:      -7.0      2.962      4.003
REMARK  Name = Lynestrenol
REMARK  3 active torsions:
REMARK  status: ('A' for Active; 'I' for Inactive)
REMARK    1  A    between atoms: C_1  and  C_2
REMARK    2  A    between atoms: C_18  and  O_19
REMARK    3  A    between atoms: C_18  and  C_20
REMARK                            x       y       z     vdW  Elec       q    Type
REMARK                         _______ _______ _______ _____ _____    ______ ____
ROOT
ATOM      1  C   UNL     1      -5.477  -1.598 125.828  0.00  0.00    +0.000 C 
ATOM      2  C   UNL     1      -6.912  -2.022 125.782  0.00  0.00    +0.000 C 
ATOM      3  C   UNL     1      -7.370  -2.544 127.482  0.00  0.00    +0.000 C 
ATOM      4  C   UNL     1      -7.235  -1.546 128.575  0.00  0.00    +0.000 C 
ATOM      5  C   UNL     1      -8.126  -0.360 128.317  0.00  0.00    +0.000 C 
ATOM      6  C   UNL     1      -7.847  -0.065 126.818  0.00  0.00    +0.000 C 
ATOM      7  C   UNL     1      -8.401   1.414 126.495  0.00  0.00    +0.000 C 
ATOM      8  C   UNL     1      -8.052   2.484 127.583  0.00  0.00    +0.000 C 
ATOM      9  C   UNL     1      -8.430   2.053 128.941  0.00  0.00    +0.000 C 
ATOM     10  C   UNL     1      -9.187   2.839 129.707  0.00  0.00    +0.000 C 
ATOM     11  C   UNL     1      -9.384   2.385 131.045  0.00  0.00    +0.000 C 
ATOM     12  C   UNL     1      -9.703   1.358 132.015  0.00  0.00    +0.000 C 
ATOM     13  C   UNL     1      -8.610   0.249 131.104  0.00  0.00    +0.000 C 
ATOM     14  C   UNL     1      -7.933   0.717 129.477  0.00  0.00    +0.000 C 
ATOM     15  C   UNL     1      -8.276  -1.606 125.838  0.00  0.00    +0.000 C 
ATOM     16  C   UNL     1      -7.989  -3.593 125.658  0.00  0.00    +0.000 C 
ATOM     17  C   UNL     1      -6.997  -3.958 124.476  0.00  0.00    +0.000 C 
ATOM     18  C   UNL     1      -7.325  -2.608 124.117  0.00  0.00    +0.000 C 
ENDROOT
BRANCH  18  19
ATOM     19  O   UNL     1      -6.605  -1.935 123.139  0.00  0.00    +0.000 OA
ATOM     20  H   UNL     1      -6.086  -2.631 122.712  0.00  0.00    +0.000 HD
ENDBRANCH  18  19
BRANCH  18  21
ATOM     21  C   UNL     1      -8.789  -2.743 123.521  0.00  0.00    +0.000 C 
ATOM     22  C   UNL     1      -9.833  -2.908 123.017  0.00  0.00    +0.000 C 
ENDBRANCH  18  21
TORSDOF 2
ENDMDL
MODEL 8
REMARK VINA RESULT:      -7.0      3.354      5.079
REMARK  Name = Lynestrenol
REMARK  3 active torsions:
REMARK  status: ('A' for Active; 'I' for Inactive)
REMARK    1  A    between atoms: C_1  and  C_2
REMARK    2  A    between atoms: C_18  and  O_19
REMARK    3  A    between atoms: C_18  and  C_20
REMARK                            x       y       z     vdW  Elec       q    Type
REMARK                         _______ _______ _______ _____ _____    ______ ____
ROOT
ATOM      1  C   UNL     1      -8.581  -0.755 125.417  0.00  0.00    +0.000 C 
ATOM      2  C   UNL     1      -7.236  -1.026 124.819  0.00  0.00    +0.000 C 
ATOM      3  C   UNL     1      -6.616   0.570 124.156  0.00  0.00    +0.000 C 
ATOM      4  C   UNL     1      -6.460   1.703 125.105  0.00  0.00    +0.000 C 
ATOM      5  C   UNL     1      -5.466   1.356 126.180  0.00  0.00    +0.000 C 
ATOM      6  C   UNL     1      -5.914  -0.075 126.585  0.00  0.00    +0.000 C 
ATOM      7  C   UNL     1      -5.220  -0.426 127.998  0.00  0.00    +0.000 C 
ATOM      8  C   UNL     1      -5.267   0.735 129.045  0.00  0.00    +0.000 C 
ATOM      9  C   UNL     1      -4.760   2.008 128.500  0.00  0.00    +0.000 C 
ATOM     10  C   UNL     1      -3.805   2.680 129.144  0.00  0.00    +0.000 C 
ATOM     11  C   UNL     1      -3.482   3.958 128.599  0.00  0.00    +0.000 C 
ATOM     12  C   UNL     1      -3.166   4.836 127.491  0.00  0.00    +0.000 C 
ATOM     13  C   UNL     1      -4.515   4.059 126.578  0.00  0.00    +0.000 C 
ATOM     14  C   UNL     1      -5.348   2.567 127.212  0.00  0.00    +0.000 C 
ATOM     15  C   UNL     1      -5.836  -1.158 125.056  0.00  0.00    +0.000 C 
ATOM     16  C   UNL     1      -6.406  -1.359 123.133  0.00  0.00    +0.000 C 
ATOM     17  C   UNL     1      -7.595  -2.393 122.958  0.00  0.00    +0.000 C 
ATOM     18  C   UNL     1      -7.145  -2.752 124.273  0.00  0.00    +0.000 C 
ENDROOT
BRANCH  18  19
ATOM     19  O   UNL     1      -7.901  -3.590 125.081  0.00  0.00    +0.000 OA
ATOM     20  H   UNL     1      -8.089  -4.352 124.516  0.00  0.00    +0.000 HD
ENDBRANCH  18  19
BRANCH  18  21
ATOM     21  C   UNL     1      -5.812  -3.562 123.986  0.00  0.00    +0.000 C 
ATOM     22  C   UNL     1      -4.876  -4.241 123.799  0.00  0.00    +0.000 C 
ENDBRANCH  18  21
TORSDOF 2
ENDMDL
MODEL 9
REMARK VINA RESULT:      -6.9      9.731     10.930
REMARK  Name = Lynestrenol
REMARK  3 active torsions:
REMARK  status: ('A' for Active; 'I' for Inactive)
REMARK    1  A    between atoms: C_1  and  C_2
REMARK    2  A    between atoms: C_18  and  O_19
REMARK    3  A    between atoms: C_18  and  C_20
REMARK                            x       y       z     vdW  Elec       q    Type
REMARK                         _______ _______ _______ _____ _____    ______ ____
ROOT
ATOM      1  C   UNL     1      -5.046   4.494 130.930  0.00  0.00    +0.000 C 
ATOM      2  C   UNL     1      -4.125   4.950 129.841  0.00  0.00    +0.000 C 
ATOM      3  C   UNL     1      -4.317   6.770 129.705  0.00  0.00    +0.000 C 
ATOM      4  C   UNL     1      -4.024   7.592 130.908  0.00  0.00    +0.000 C 
ATOM      5  C   UNL     1      -2.589   7.419 131.327  0.00  0.00    +0.000 C 
ATOM      6  C   UNL     1      -2.414   5.877 131.251  0.00  0.00    +0.000 C 
ATOM      7  C   UNL     1      -1.072   5.493 132.058  0.00  0.00    +0.000 C 
ATOM      8  C   UNL     1      -0.910   6.234 133.427  0.00  0.00    +0.000 C 
ATOM      9  C   UNL     1      -1.062   7.695 133.300  0.00  0.00    +0.000 C 
ATOM     10  C   UNL     1      -0.121   8.510 133.778  0.00  0.00    +0.000 C 
ATOM     11  C   UNL     1      -0.429   9.902 133.719  0.00  0.00    +0.000 C 
ATOM     12  C   UNL     1      -0.907  11.079 133.025  0.00  0.00    +0.000 C 
ATOM     13  C   UNL     1      -2.282  10.081 132.416  0.00  0.00    +0.000 C 
ATOM     14  C   UNL     1      -2.308   8.273 132.644  0.00  0.00    +0.000 C 
ATOM     15  C   UNL     1      -2.797   5.339 129.495  0.00  0.00    +0.000 C 
ATOM     16  C   UNL     1      -4.136   5.414 127.990  0.00  0.00    +0.000 C 
ATOM     17  C   UNL     1      -4.962   4.068 127.845  0.00  0.00    +0.000 C 
ATOM     18  C   UNL     1      -3.870   3.604 128.653  0.00  0.00    +0.000 C 
ENDROOT
BRANCH  18  19
ATOM     19  O   UNL     1      -3.915   2.359 129.265  0.00  0.00    +0.000 OA
ATOM     20  H   UNL     1      -3.486   2.503 130.120  0.00  0.00    +0.000 HD
ENDBRANCH  18  19
BRANCH  18  21
ATOM     21  C   UNL     1      -2.675   3.502 127.615  0.00  0.00    +0.000 C 
ATOM     22  C   UNL     1      -1.830   3.339 126.821  0.00  0.00    +0.000 C 
ENDBRANCH  18  21
TORSDOF 2
ENDMDL
