MODEL 1
REMARK VINA RESULT:      -4.6      0.000      0.000
REMARK  Name = Lysine
REMARK  8 active torsions:
REMARK  status: ('A' for Active; 'I' for Inactive)
REMARK    1  A    between atoms: NZ_1  and  CE_2
REMARK    2  A    between atoms: CE_2  and  CD_3
REMARK    3  A    between atoms: CD_3  and  CG_4
REMARK    4  A    between atoms: CG_4  and  CB_5
REMARK    5  A    between atoms: CB_5  and  CA_6
REMARK    6  A    between atoms: CA_6  and  N_7
REMARK    7  A    between atoms: CA_6  and  C_8
REMARK    8  A    between atoms: C_8  and  O_9
REMARK                            x       y       z     vdW  Elec       q    Type
REMARK                         _______ _______ _______ _____ _____    ______ ____
ROOT
ATOM      1  CA  LYS A   1     -11.728   6.618 129.883  0.00  0.00    +0.000 C 
ENDROOT
BRANCH   1   2
ATOM      2  N   LYS A   1     -11.271   5.263 129.522  0.00  0.00    +0.000 NA
ATOM      3  H1  LYS A   1     -11.603   4.963 128.611  0.00  0.00    +0.000 HD
ATOM      4  H2  LYS A   1     -11.426   4.588 130.265  0.00  0.00    +0.000 HD
ENDBRANCH   1   2
BRANCH   1   5
ATOM      5  C   LYS A   1     -12.233   6.690 131.337  0.00  0.00    +0.000 C 
ATOM      6  OXT LYS A   1     -13.211   7.340 131.684  0.00  0.00    +0.000 OA
BRANCH   5   7
ATOM      7  O   LYS A   1     -11.518   5.959 132.227  0.00  0.00    +0.000 OA
ATOM      8  H   LYS A   1     -10.673   6.383 132.461  0.00  0.00    +0.000 HD
ENDBRANCH   5   7
ENDBRANCH   1   5
BRANCH   1   9
ATOM      9  CB  LYS A   1     -12.846   7.058 128.924  0.00  0.00    +0.000 C 
BRANCH   9  10
ATOM     10  CG  LYS A   1     -12.499   8.379 128.233  0.00  0.00    +0.000 C 
BRANCH  10  11
ATOM     11  CD  LYS A   1     -11.049   8.379 127.747  0.00  0.00    +0.000 C 
BRANCH  11  12
ATOM     12  CE  LYS A   1     -10.915   7.601 126.442  0.00  0.00    +0.000 C 
BRANCH  12  13
ATOM     13  NZ  LYS A   1     -10.014   6.471 126.630  0.00  0.00    +0.000 NA
ATOM     14  HZ1 LYS A   1     -10.530   5.603 126.495  0.00  0.00    +0.000 HD
ATOM     15  HZ2 LYS A   1      -9.681   6.459 127.593  0.00  0.00    +0.000 HD
ENDBRANCH  12  13
ENDBRANCH  11  12
ENDBRANCH  10  11
ENDBRANCH   9  10
ENDBRANCH   1   9
TORSDOF 8
ENDMDL
MODEL 2
REMARK VINA RESULT:      -4.6      2.382      3.767
REMARK  Name = Lysine
REMARK  8 active torsions:
REMARK  status: ('A' for Active; 'I' for Inactive)
REMARK    1  A    between atoms: NZ_1  and  CE_2
REMARK    2  A    between atoms: CE_2  and  CD_3
REMARK    3  A    between atoms: CD_3  and  CG_4
REMARK    4  A    between atoms: CG_4  and  CB_5
REMARK    5  A    between atoms: CB_5  and  CA_6
REMARK    6  A    between atoms: CA_6  and  N_7
REMARK    7  A    between atoms: CA_6  and  C_8
REMARK    8  A    between atoms: C_8  and  O_9
REMARK                            x       y       z     vdW  Elec       q    Type
REMARK                         _______ _______ _______ _____ _____    ______ ____
ROOT
ATOM      1  CA  LYS A   1     -11.830   7.829 127.042  0.00  0.00    +0.000 C 
ENDROOT
BRANCH   1   2
ATOM      2  N   LYS A   1     -12.171   6.654 126.217  0.00  0.00    +0.000 NA
ATOM      3  H1  LYS A   1     -11.356   6.121 125.931  0.00  0.00    +0.000 HD
ATOM      4  H2  LYS A   1     -12.807   6.881 125.459  0.00  0.00    +0.000 HD
ENDBRANCH   1   2
BRANCH   1   5
ATOM      5  C   LYS A   1     -10.475   7.661 127.755  0.00  0.00    +0.000 C 
ATOM      6  OXT LYS A   1      -9.957   8.535 128.441  0.00  0.00    +0.000 OA
BRANCH   5   7
ATOM      7  O   LYS A   1      -9.885   6.453 127.584  0.00  0.00    +0.000 OA
ATOM      8  H   LYS A   1      -9.292   6.223 128.322  0.00  0.00    +0.000 HD
ENDBRANCH   5   7
ENDBRANCH   1   5
BRANCH   1   9
ATOM      9  CB  LYS A   1     -12.937   8.069 128.080  0.00  0.00    +0.000 C 
BRANCH   9  10
ATOM     10  CG  LYS A   1     -13.163   6.829 128.950  0.00  0.00    +0.000 C 
BRANCH  10  11
ATOM     11  CD  LYS A   1     -12.822   7.116 130.412  0.00  0.00    +0.000 C 
BRANCH  11  12
ATOM     12  CE  LYS A   1     -11.772   6.137 130.926  0.00  0.00    +0.000 C 
BRANCH  12  13
ATOM     13  NZ  LYS A   1     -11.515   5.113 129.921  0.00  0.00    +0.000 NA
ATOM     14  HZ1 LYS A   1     -12.237   4.397 129.977  0.00  0.00    +0.000 HD
ATOM     15  HZ2 LYS A   1     -10.633   4.647 130.129  0.00  0.00    +0.000 HD
ENDBRANCH  12  13
ENDBRANCH  11  12
ENDBRANCH  10  11
ENDBRANCH   9  10
ENDBRANCH   1   9
TORSDOF 8
ENDMDL
MODEL 3
REMARK VINA RESULT:      -4.6      3.431      4.164
REMARK  Name = Lysine
REMARK  8 active torsions:
REMARK  status: ('A' for Active; 'I' for Inactive)
REMARK    1  A    between atoms: NZ_1  and  CE_2
REMARK    2  A    between atoms: CE_2  and  CD_3
REMARK    3  A    between atoms: CD_3  and  CG_4
REMARK    4  A    between atoms: CG_4  and  CB_5
REMARK    5  A    between atoms: CB_5  and  CA_6
REMARK    6  A    between atoms: CA_6  and  N_7
REMARK    7  A    between atoms: CA_6  and  C_8
REMARK    8  A    between atoms: C_8  and  O_9
REMARK                            x       y       z     vdW  Elec       q    Type
REMARK                         _______ _______ _______ _____ _____    ______ ____
ROOT
ATOM      1  CA  LYS A   1     -11.930   7.485 127.332  0.00  0.00    +0.000 C 
ENDROOT
BRANCH   1   2
ATOM      2  N   LYS A   1     -12.277   6.792 126.077  0.00  0.00    +0.000 NA
ATOM      3  H1  LYS A   1     -11.483   6.328 125.647  0.00  0.00    +0.000 HD
ATOM      4  H2  LYS A   1     -12.809   7.379 125.441  0.00  0.00    +0.000 HD
ENDBRANCH   1   2
BRANCH   1   5
ATOM      5  C   LYS A   1     -10.437   7.335 127.680  0.00  0.00    +0.000 C 
ATOM      6  OXT LYS A   1      -9.872   7.996 128.544  0.00  0.00    +0.000 OA
BRANCH   5   7
ATOM      7  O   LYS A   1      -9.774   6.394 126.965  0.00  0.00    +0.000 OA
ATOM      8  H   LYS A   1      -9.710   6.623 126.020  0.00  0.00    +0.000 HD
ENDBRANCH   5   7
ENDBRANCH   1   5
BRANCH   1   9
ATOM      9  CB  LYS A   1     -12.788   6.933 128.480  0.00  0.00    +0.000 C 
BRANCH   9  10
ATOM     10  CG  LYS A   1     -13.111   8.022 129.507  0.00  0.00    +0.000 C 
BRANCH  10  11
ATOM     11  CD  LYS A   1     -13.230   9.390 128.836  0.00  0.00    +0.000 C 
BRANCH  11  12
ATOM     12  CE  LYS A   1     -13.296  10.501 129.878  0.00  0.00    +0.000 C 
BRANCH  12  13
ATOM     13  NZ  LYS A   1     -13.362  11.798 129.217  0.00  0.00    +0.000 NA
ATOM     14  HZ1 LYS A   1     -13.141  11.683 128.228  0.00  0.00    +0.000 HD
ATOM     15  HZ2 LYS A   1     -12.645  12.412 129.600  0.00  0.00    +0.000 HD
ENDBRANCH  12  13
ENDBRANCH  11  12
ENDBRANCH  10  11
ENDBRANCH   9  10
ENDBRANCH   1   9
TORSDOF 8
ENDMDL
MODEL 4
REMARK VINA RESULT:      -4.5      1.988      2.361
REMARK  Name = Lysine
REMARK  8 active torsions:
REMARK  status: ('A' for Active; 'I' for Inactive)
REMARK    1  A    between atoms: NZ_1  and  CE_2
REMARK    2  A    between atoms: CE_2  and  CD_3
REMARK    3  A    between atoms: CD_3  and  CG_4
REMARK    4  A    between atoms: CG_4  and  CB_5
REMARK    5  A    between atoms: CB_5  and  CA_6
REMARK    6  A    between atoms: CA_6  and  N_7
REMARK    7  A    between atoms: CA_6  and  C_8
REMARK    8  A    between atoms: C_8  and  O_9
REMARK                            x       y       z     vdW  Elec       q    Type
REMARK                         _______ _______ _______ _____ _____    ______ ____
ROOT
ATOM      1  CA  LYS A   1     -11.702   6.852 130.328  0.00  0.00    +0.000 C 
ENDROOT
BRANCH   1   2
ATOM      2  N   LYS A   1     -12.127   6.224 131.593  0.00  0.00    +0.000 NA
ATOM      3  H1  LYS A   1     -11.351   5.860 132.135  0.00  0.00    +0.000 HD
ATOM      4  H2  LYS A   1     -12.890   5.566 131.465  0.00  0.00    +0.000 HD
ENDBRANCH   1   2
BRANCH   1   5
ATOM      5  C   LYS A   1     -10.180   7.090 130.284  0.00  0.00    +0.000 C 
ATOM      6  OXT LYS A   1      -9.447   6.974 131.259  0.00  0.00    +0.000 OA
BRANCH   5   7
ATOM      7  O   LYS A   1      -9.690   7.431 129.067  0.00  0.00    +0.000 OA
ATOM      8  H   LYS A   1      -8.951   8.063 129.129  0.00  0.00    +0.000 HD
ENDBRANCH   5   7
ENDBRANCH   1   5
BRANCH   1   9
ATOM      9  CB  LYS A   1     -12.441   8.185 130.139  0.00  0.00    +0.000 C 
BRANCH   9  10
ATOM     10  CG  LYS A   1     -13.072   8.280 128.747  0.00  0.00    +0.000 C 
BRANCH  10  11
ATOM     11  CD  LYS A   1     -13.039   6.927 128.037  0.00  0.00    +0.000 C 
BRANCH  11  12
ATOM     12  CE  LYS A   1     -12.565   7.082 126.596  0.00  0.00    +0.000 C 
BRANCH  12  13
ATOM     13  NZ  LYS A   1     -11.188   6.622 126.475  0.00  0.00    +0.000 NA
ATOM     14  HZ1 LYS A   1     -11.105   6.014 125.661  0.00  0.00    +0.000 HD
ATOM     15  HZ2 LYS A   1     -10.948   6.051 127.284  0.00  0.00    +0.000 HD
ENDBRANCH  12  13
ENDBRANCH  11  12
ENDBRANCH  10  11
ENDBRANCH   9  10
ENDBRANCH   1   9
TORSDOF 8
ENDMDL
MODEL 5
REMARK VINA RESULT:      -4.4      1.735      2.168
REMARK  Name = Lysine
REMARK  8 active torsions:
REMARK  status: ('A' for Active; 'I' for Inactive)
REMARK    1  A    between atoms: NZ_1  and  CE_2
REMARK    2  A    between atoms: CE_2  and  CD_3
REMARK    3  A    between atoms: CD_3  and  CG_4
REMARK    4  A    between atoms: CG_4  and  CB_5
REMARK    5  A    between atoms: CB_5  and  CA_6
REMARK    6  A    between atoms: CA_6  and  N_7
REMARK    7  A    between atoms: CA_6  and  C_8
REMARK    8  A    between atoms: C_8  and  O_9
REMARK                            x       y       z     vdW  Elec       q    Type
REMARK                         _______ _______ _______ _____ _____    ______ ____
ROOT
ATOM      1  CA  LYS A   1      -9.832   6.314 129.526  0.00  0.00    +0.000 C 
ENDROOT
BRANCH   1   2
ATOM      2  N   LYS A   1      -9.488   5.826 128.177  0.00  0.00    +0.000 NA
ATOM      3  H1  LYS A   1      -9.611   4.824 128.075  0.00  0.00    +0.000 HD
ATOM      4  H2  LYS A   1      -8.588   6.170 127.856  0.00  0.00    +0.000 HD
ENDBRANCH   1   2
BRANCH   1   5
ATOM      5  C   LYS A   1     -11.017   5.541 130.135  0.00  0.00    +0.000 C 
ATOM      6  OXT LYS A   1     -11.917   6.073 130.776  0.00  0.00    +0.000 OA
BRANCH   5   7
ATOM      7  O   LYS A   1     -11.011   4.206 129.901  0.00  0.00    +0.000 OA
ATOM      8  H   LYS A   1     -11.898   3.812 129.978  0.00  0.00    +0.000 HD
ENDBRANCH   5   7
ENDBRANCH   1   5
BRANCH   1   9
ATOM      9  CB  LYS A   1     -10.167   7.812 129.463  0.00  0.00    +0.000 C 
BRANCH   9  10
ATOM     10  CG  LYS A   1     -10.637   8.219 128.064  0.00  0.00    +0.000 C 
BRANCH  10  11
ATOM     11  CD  LYS A   1     -12.157   8.381 128.022  0.00  0.00    +0.000 C 
BRANCH  11  12
ATOM     12  CE  LYS A   1     -12.804   7.227 127.262  0.00  0.00    +0.000 C 
BRANCH  12  13
ATOM     13  NZ  LYS A   1     -11.863   6.683 126.292  0.00  0.00    +0.000 NA
ATOM     14  HZ1 LYS A   1     -12.144   5.735 126.045  0.00  0.00    +0.000 HD
ATOM     15  HZ2 LYS A   1     -10.941   6.606 126.720  0.00  0.00    +0.000 HD
ENDBRANCH  12  13
ENDBRANCH  11  12
ENDBRANCH  10  11
ENDBRANCH   9  10
ENDBRANCH   1   9
TORSDOF 8
ENDMDL
MODEL 6
REMARK VINA RESULT:      -4.3      3.464      4.859
REMARK  Name = Lysine
REMARK  8 active torsions:
REMARK  status: ('A' for Active; 'I' for Inactive)
REMARK    1  A    between atoms: NZ_1  and  CE_2
REMARK    2  A    between atoms: CE_2  and  CD_3
REMARK    3  A    between atoms: CD_3  and  CG_4
REMARK    4  A    between atoms: CG_4  and  CB_5
REMARK    5  A    between atoms: CB_5  and  CA_6
REMARK    6  A    between atoms: CA_6  and  N_7
REMARK    7  A    between atoms: CA_6  and  C_8
REMARK    8  A    between atoms: C_8  and  O_9
REMARK                            x       y       z     vdW  Elec       q    Type
REMARK                         _______ _______ _______ _____ _____    ______ ____
ROOT
ATOM      1  CA  LYS A   1     -11.476   7.763 127.489  0.00  0.00    +0.000 C 
ENDROOT
BRANCH   1   2
ATOM      2  N   LYS A   1     -12.412   6.692 127.877  0.00  0.00    +0.000 NA
ATOM      3  H1  LYS A   1     -12.452   6.544 128.880  0.00  0.00    +0.000 HD
ATOM      4  H2  LYS A   1     -12.278   5.842 127.336  0.00  0.00    +0.000 HD
ENDBRANCH   1   2
BRANCH   1   5
ATOM      5  C   LYS A   1     -10.578   7.348 126.308  0.00  0.00    +0.000 C 
ATOM      6  OXT LYS A   1      -9.798   6.404 126.348  0.00  0.00    +0.000 OA
BRANCH   5   7
ATOM      7  O   LYS A   1     -10.720   8.100 125.190  0.00  0.00    +0.000 OA
ATOM      8  H   LYS A   1     -10.707   7.563 124.377  0.00  0.00    +0.000 HD
ENDBRANCH   5   7
ENDBRANCH   1   5
BRANCH   1   9
ATOM      9  CB  LYS A   1     -10.603   8.145 128.694  0.00  0.00    +0.000 C 
BRANCH   9  10
ATOM     10  CG  LYS A   1     -11.072   7.438 129.969  0.00  0.00    +0.000 C 
BRANCH  10  11
ATOM     11  CD  LYS A   1      -9.895   6.793 130.702  0.00  0.00    +0.000 C 
BRANCH  11  12
ATOM     12  CE  LYS A   1     -10.388   5.867 131.809  0.00  0.00    +0.000 C 
BRANCH  12  13
ATOM     13  NZ  LYS A   1      -9.905   6.338 133.100  0.00  0.00    +0.000 NA
ATOM     14  HZ1 LYS A   1      -9.226   7.084 132.954  0.00  0.00    +0.000 HD
ATOM     15  HZ2 LYS A   1      -9.406   5.585 133.571  0.00  0.00    +0.000 HD
ENDBRANCH  12  13
ENDBRANCH  11  12
ENDBRANCH  10  11
ENDBRANCH   9  10
ENDBRANCH   1   9
TORSDOF 8
ENDMDL
MODEL 7
REMARK VINA RESULT:      -4.3      1.932      2.214
REMARK  Name = Lysine
REMARK  8 active torsions:
REMARK  status: ('A' for Active; 'I' for Inactive)
REMARK    1  A    between atoms: NZ_1  and  CE_2
REMARK    2  A    between atoms: CE_2  and  CD_3
REMARK    3  A    between atoms: CD_3  and  CG_4
REMARK    4  A    between atoms: CG_4  and  CB_5
REMARK    5  A    between atoms: CB_5  and  CA_6
REMARK    6  A    between atoms: CA_6  and  N_7
REMARK    7  A    between atoms: CA_6  and  C_8
REMARK    8  A    between atoms: C_8  and  O_9
REMARK                            x       y       z     vdW  Elec       q    Type
REMARK                         _______ _______ _______ _____ _____    ______ ____
ROOT
ATOM      1  CA  LYS A   1     -11.825   6.184 130.429  0.00  0.00    +0.000 C 
ENDROOT
BRANCH   1   2
ATOM      2  N   LYS A   1     -12.114   6.295 131.872  0.00  0.00    +0.000 NA
ATOM      3  H1  LYS A   1     -11.736   7.141 132.287  0.00  0.00    +0.000 HD
ATOM      4  H2  LYS A   1     -11.889   5.446 132.381  0.00  0.00    +0.000 HD
ENDBRANCH   1   2
BRANCH   1   5
ATOM      5  C   LYS A   1     -10.899   4.994 130.115  0.00  0.00    +0.000 C 
ATOM      6  OXT LYS A   1      -9.916   5.073 129.388  0.00  0.00    +0.000 OA
BRANCH   5   7
ATOM      7  O   LYS A   1     -11.241   3.829 130.717  0.00  0.00    +0.000 OA
ATOM      8  H   LYS A   1     -12.144   3.851 131.082  0.00  0.00    +0.000 HD
ENDBRANCH   5   7
ENDBRANCH   1   5
BRANCH   1   9
ATOM      9  CB  LYS A   1     -11.182   7.487 129.931  0.00  0.00    +0.000 C 
BRANCH   9  10
ATOM     10  CG  LYS A   1     -12.060   8.176 128.881  0.00  0.00    +0.000 C 
BRANCH  10  11
ATOM     11  CD  LYS A   1     -12.124   7.352 127.596  0.00  0.00    +0.000 C 
BRANCH  11  12
ATOM     12  CE  LYS A   1     -10.940   7.670 126.688  0.00  0.00    +0.000 C 
BRANCH  12  13
ATOM     13  NZ  LYS A   1     -10.057   6.515 126.604  0.00  0.00    +0.000 NA
ATOM     14  HZ1 LYS A   1     -10.361   5.912 125.840  0.00  0.00    +0.000 HD
ATOM     15  HZ2 LYS A   1     -10.140   5.961 127.455  0.00  0.00    +0.000 HD
ENDBRANCH  12  13
ENDBRANCH  11  12
ENDBRANCH  10  11
ENDBRANCH   9  10
ENDBRANCH   1   9
TORSDOF 8
ENDMDL
MODEL 8
REMARK VINA RESULT:      -4.3      9.701     11.195
REMARK  Name = Lysine
REMARK  8 active torsions:
REMARK  status: ('A' for Active; 'I' for Inactive)
REMARK    1  A    between atoms: NZ_1  and  CE_2
REMARK    2  A    between atoms: CE_2  and  CD_3
REMARK    3  A    between atoms: CD_3  and  CG_4
REMARK    4  A    between atoms: CG_4  and  CB_5
REMARK    5  A    between atoms: CB_5  and  CA_6
REMARK    6  A    between atoms: CA_6  and  N_7
REMARK    7  A    between atoms: CA_6  and  C_8
REMARK    8  A    between atoms: C_8  and  O_9
REMARK                            x       y       z     vdW  Elec       q    Type
REMARK                         _______ _______ _______ _____ _____    ______ ____
ROOT
ATOM      1  CA  LYS A   1      -4.796   5.018 120.152  0.00  0.00    +0.000 C 
ENDROOT
BRANCH   1   2
ATOM      2  N   LYS A   1      -4.385   6.208 120.921  0.00  0.00    +0.000 NA
ATOM      3  H1  LYS A   1      -3.542   6.641 120.560  0.00  0.00    +0.000 HD
ATOM      4  H2  LYS A   1      -4.369   6.039 121.923  0.00  0.00    +0.000 HD
ENDBRANCH   1   2
BRANCH   1   5
ATOM      5  C   LYS A   1      -5.940   5.331 119.170  0.00  0.00    +0.000 C 
ATOM      6  OXT LYS A   1      -5.891   6.225 118.334  0.00  0.00    +0.000 OA
BRANCH   5   7
ATOM      7  O   LYS A   1      -7.025   4.526 119.281  0.00  0.00    +0.000 OA
ATOM      8  H   LYS A   1      -6.874   3.644 118.897  0.00  0.00    +0.000 HD
ENDBRANCH   5   7
ENDBRANCH   1   5
BRANCH   1   9
ATOM      9  CB  LYS A   1      -5.232   3.905 121.119  0.00  0.00    +0.000 C 
BRANCH   9  10
ATOM     10  CG  LYS A   1      -5.186   4.381 122.573  0.00  0.00    +0.000 C 
BRANCH  10  11
ATOM     11  CD  LYS A   1      -6.317   3.757 123.389  0.00  0.00    +0.000 C 
BRANCH  11  12
ATOM     12  CE  LYS A   1      -7.211   2.893 122.505  0.00  0.00    +0.000 C 
BRANCH  12  13
ATOM     13  NZ  LYS A   1      -8.545   3.474 122.430  0.00  0.00    +0.000 NA
ATOM     14  HZ1 LYS A   1      -8.487   4.396 121.999  0.00  0.00    +0.000 HD
ATOM     15  HZ2 LYS A   1      -8.904   3.621 123.373  0.00  0.00    +0.000 HD
ENDBRANCH  12  13
ENDBRANCH  11  12
ENDBRANCH  10  11
ENDBRANCH   9  10
ENDBRANCH   1   9
TORSDOF 8
ENDMDL
MODEL 9
REMARK VINA RESULT:      -4.3     12.075     12.937
REMARK  Name = Lysine
REMARK  8 active torsions:
REMARK  status: ('A' for Active; 'I' for Inactive)
REMARK    1  A    between atoms: NZ_1  and  CE_2
REMARK    2  A    between atoms: CE_2  and  CD_3
REMARK    3  A    between atoms: CD_3  and  CG_4
REMARK    4  A    between atoms: CG_4  and  CB_5
REMARK    5  A    between atoms: CB_5  and  CA_6
REMARK    6  A    between atoms: CA_6  and  N_7
REMARK    7  A    between atoms: CA_6  and  C_8
REMARK    8  A    between atoms: C_8  and  O_9
REMARK                            x       y       z     vdW  Elec       q    Type
REMARK                         _______ _______ _______ _____ _____    ______ ____
ROOT
ATOM      1  CA  LYS A   1      -8.207  -2.215 123.120  0.00  0.00    +0.000 C 
ENDROOT
BRANCH   1   2
ATOM      2  N   LYS A   1      -8.989  -0.980 122.916  0.00  0.00    +0.000 NA
ATOM      3  H1  LYS A   1      -8.765  -0.254 123.588  0.00  0.00    +0.000 HD
ATOM      4  H2  LYS A   1      -9.983  -1.161 122.814  0.00  0.00    +0.000 HD
ENDBRANCH   1   2
BRANCH   1   5
ATOM      5  C   LYS A   1      -9.016  -3.296 123.860  0.00  0.00    +0.000 C 
ATOM      6  OXT LYS A   1      -8.605  -3.896 124.846  0.00  0.00    +0.000 OA
BRANCH   5   7
ATOM      7  O   LYS A   1     -10.248  -3.539 123.348  0.00  0.00    +0.000 OA
ATOM      8  H   LYS A   1     -10.285  -4.376 122.852  0.00  0.00    +0.000 HD
ENDBRANCH   5   7
ENDBRANCH   1   5
BRANCH   1   9
ATOM      9  CB  LYS A   1      -6.930  -1.891 123.911  0.00  0.00    +0.000 C 
BRANCH   9  10
ATOM     10  CG  LYS A   1      -5.697  -2.526 123.262  0.00  0.00    +0.000 C 
BRANCH  10  11
ATOM     11  CD  LYS A   1      -5.220  -3.737 124.064  0.00  0.00    +0.000 C 
BRANCH  11  12
ATOM     12  CE  LYS A   1      -3.932  -4.304 123.475  0.00  0.00    +0.000 C 
BRANCH  12  13
ATOM     13  NZ  LYS A   1      -4.141  -5.687 123.067  0.00  0.00    +0.000 NA
ATOM     14  HZ1 LYS A   1      -3.410  -5.959 122.411  0.00  0.00    +0.000 HD
ATOM     15  HZ2 LYS A   1      -5.022  -5.763 122.561  0.00  0.00    +0.000 HD
ENDBRANCH  12  13
ENDBRANCH  11  12
ENDBRANCH  10  11
ENDBRANCH   9  10
ENDBRANCH   1   9
TORSDOF 8
ENDMDL
