MODEL 1
REMARK VINA RESULT:      -9.2      0.000      0.000
REMARK  Name = Macimorelin
REMARK  12 active torsions:
REMARK  status: ('A' for Active; 'I' for Inactive)
REMARK    1  A    between atoms: C_1  and  C_2
REMARK    2  A    between atoms: C_2  and  C_3
REMARK    3  A    between atoms: C_2  and  N_4
REMARK    4  A    between atoms: C_2  and  C_5
REMARK    5  A    between atoms: N_7  and  C_8
REMARK    6  A    between atoms: C_8  and  C_9
REMARK    7  A    between atoms: C_8  and  C_19
REMARK    8  A    between atoms: C_9  and  C_10
REMARK    9  A    between atoms: N_21  and  C_22
REMARK   10  A    between atoms: C_22  and  C_23
REMARK   11  A    between atoms: C_22  and  N_33
REMARK   12  A    between atoms: C_23  and  C_24
REMARK                            x       y       z     vdW  Elec       q    Type
REMARK                         _______ _______ _______ _____ _____    ______ ____
ROOT
ATOM      1  C   UNL     1      -7.577   1.531 124.040  0.00  0.00    +0.000 C 
ENDROOT
BRANCH   1   4
ATOM      2  C   UNL     1      -7.444  -0.885 123.173  0.00  0.00    +0.000 C 
ATOM      3  O   UNL     1      -6.670  -1.702 122.672  0.00  0.00    +0.000 OA
ATOM      4  N   UNL     1      -6.978   0.375 123.318  0.00  0.00    +0.000 N 
ATOM      5  H   UNL     1      -6.035   0.409 122.929  0.00  0.00    +0.000 HD
BRANCH   2   7
ATOM      6  C   UNL     1      -9.200  -2.625 123.324  0.00  0.00    +0.000 C 
ATOM      7  C   UNL     1      -8.911  -1.162 123.516  0.00  0.00    +0.000 C 
ATOM      8  C   UNL     1      -9.778  -0.280 122.608  0.00  0.00    +0.000 C 
BRANCH   7   9
ATOM      9  N   UNL     1      -9.260  -1.107 124.937  0.00  0.00    +0.000 NA
ATOM     10  H   UNL     1      -8.546  -0.675 125.513  0.00  0.00    +0.000 HD
ATOM     11  H   UNL     1      -9.642  -1.953 125.335  0.00  0.00    +0.000 HD
ENDBRANCH   7   9
ENDBRANCH   2   7
ENDBRANCH   1   4
BRANCH   1  12
ATOM     12  C   UNL     1      -7.863   1.467 125.575  0.00  0.00    +0.000 C 
ATOM     13  O   UNL     1      -8.858   2.017 126.055  0.00  0.00    +0.000 OA
ATOM     14  N   UNL     1      -7.116   0.674 126.418  0.00  0.00    +0.000 N 
ATOM     15  H   UNL     1      -7.529   0.613 127.341  0.00  0.00    +0.000 HD
BRANCH  14  16
ATOM     16  C   UNL     1      -5.719   0.247 126.341  0.00  0.00    +0.000 C 
BRANCH  16  17
ATOM     17  N   UNL     1      -5.027   0.851 127.458  0.00  0.00    +0.000 N 
ATOM     18  C   UNL     1      -4.553   2.145 127.484  0.00  0.00    +0.000 C 
ATOM     19  O   UNL     1      -3.833   2.558 128.344  0.00  0.00    +0.000 OA
ATOM     20  H   UNL     1      -4.557   0.259 128.133  0.00  0.00    +0.000 HD
ENDBRANCH  16  17
BRANCH  16  21
ATOM     21  C   UNL     1      -5.488  -1.356 126.314  0.00  0.00    +0.000 C 
BRANCH  21  22
ATOM     22  C   UNL     1      -5.906  -2.130 127.543  0.00  0.00    +0.000 A 
ATOM     23  C   UNL     1      -7.188  -2.428 127.717  0.00  0.00    +0.000 A 
ATOM     24  N   UNL     1      -7.584  -3.007 128.841  0.00  0.00    +0.000 N 
ATOM     25  C   UNL     1      -6.424  -3.305 129.469  0.00  0.00    +0.000 A 
ATOM     26  C   UNL     1      -6.253  -3.990 130.656  0.00  0.00    +0.000 A 
ATOM     27  C   UNL     1      -4.929  -4.156 131.031  0.00  0.00    +0.000 A 
ATOM     28  C   UNL     1      -3.869  -3.663 130.254  0.00  0.00    +0.000 A 
ATOM     29  C   UNL     1      -4.073  -2.970 129.069  0.00  0.00    +0.000 A 
ATOM     30  C   UNL     1      -5.376  -2.779 128.666  0.00  0.00    +0.000 A 
ATOM     31  H   UNL     1      -8.537  -3.190 129.160  0.00  0.00    +0.000 HD
ENDBRANCH  21  22
ENDBRANCH  16  21
ENDBRANCH  14  16
ENDBRANCH   1  12
BRANCH   1  32
ATOM     32  C   UNL     1      -7.252   2.843 123.450  0.00  0.00    +0.000 C 
BRANCH  32  33
ATOM     33  C   UNL     1      -7.744   3.146 122.110  0.00  0.00    +0.000 A 
ATOM     34  C   UNL     1      -8.982   2.979 121.537  0.00  0.00    +0.000 A 
ATOM     35  N   UNL     1      -8.940   3.651 120.350  0.00  0.00    +0.000 N 
ATOM     36  C   UNL     1      -7.667   4.123 120.117  0.00  0.00    +0.000 A 
ATOM     37  C   UNL     1      -7.135   4.840 119.054  0.00  0.00    +0.000 A 
ATOM     38  C   UNL     1      -5.770   5.165 119.116  0.00  0.00    +0.000 A 
ATOM     39  C   UNL     1      -4.972   4.826 120.207  0.00  0.00    +0.000 A 
ATOM     40  C   UNL     1      -5.525   4.142 121.275  0.00  0.00    +0.000 A 
ATOM     41  C   UNL     1      -6.884   3.784 121.205  0.00  0.00    +0.000 A 
ATOM     42  H   UNL     1      -9.739   3.799 119.752  0.00  0.00    +0.000 HD
ENDBRANCH  32  33
ENDBRANCH   1  32
TORSDOF 10
ENDMDL
MODEL 2
REMARK VINA RESULT:      -9.0      8.067     10.279
REMARK  Name = Macimorelin
REMARK  12 active torsions:
REMARK  status: ('A' for Active; 'I' for Inactive)
REMARK    1  A    between atoms: C_1  and  C_2
REMARK    2  A    between atoms: C_2  and  C_3
REMARK    3  A    between atoms: C_2  and  N_4
REMARK    4  A    between atoms: C_2  and  C_5
REMARK    5  A    between atoms: N_7  and  C_8
REMARK    6  A    between atoms: C_8  and  C_9
REMARK    7  A    between atoms: C_8  and  C_19
REMARK    8  A    between atoms: C_9  and  C_10
REMARK    9  A    between atoms: N_21  and  C_22
REMARK   10  A    between atoms: C_22  and  C_23
REMARK   11  A    between atoms: C_22  and  N_33
REMARK   12  A    between atoms: C_23  and  C_24
REMARK                            x       y       z     vdW  Elec       q    Type
REMARK                         _______ _______ _______ _____ _____    ______ ____
ROOT
ATOM      1  C   UNL     1      -7.744   4.020 132.067  0.00  0.00    +0.000 C 
ENDROOT
BRANCH   1   4
ATOM      2  C   UNL     1      -9.778   4.770 130.685  0.00  0.00    +0.000 C 
ATOM      3  O   UNL     1     -10.534   4.406 129.783  0.00  0.00    +0.000 OA
ATOM      4  N   UNL     1      -8.722   3.968 130.946  0.00  0.00    +0.000 N 
ATOM      5  H   UNL     1      -8.743   3.193 130.281  0.00  0.00    +0.000 HD
BRANCH   2   7
ATOM      6  C   UNL     1     -11.311   6.559 131.449  0.00  0.00    +0.000 C 
ATOM      7  C   UNL     1      -9.877   6.105 131.429  0.00  0.00    +0.000 C 
ATOM      8  C   UNL     1      -8.966   7.109 130.712  0.00  0.00    +0.000 C 
BRANCH   7   9
ATOM      9  N   UNL     1      -9.701   6.047 132.882  0.00  0.00    +0.000 NA
ATOM     10  H   UNL     1      -8.756   5.810 133.165  0.00  0.00    +0.000 HD
ATOM     11  H   UNL     1     -10.413   5.551 133.398  0.00  0.00    +0.000 HD
ENDBRANCH   7   9
ENDBRANCH   2   7
ENDBRANCH   1   4
BRANCH   1  12
ATOM     12  C   UNL     1      -8.095   3.435 133.474  0.00  0.00    +0.000 C 
ATOM     13  O   UNL     1      -8.801   2.428 133.581  0.00  0.00    +0.000 OA
ATOM     14  N   UNL     1      -7.510   3.916 134.624  0.00  0.00    +0.000 N 
ATOM     15  H   UNL     1      -7.712   3.328 135.423  0.00  0.00    +0.000 HD
BRANCH  14  16
ATOM     16  C   UNL     1      -7.006   5.250 134.955  0.00  0.00    +0.000 C 
BRANCH  16  17
ATOM     17  N   UNL     1      -8.035   5.915 135.723  0.00  0.00    +0.000 N 
ATOM     18  C   UNL     1      -7.826   6.576 136.915  0.00  0.00    +0.000 C 
ATOM     19  O   UNL     1      -8.717   6.959 137.613  0.00  0.00    +0.000 OA
ATOM     20  H   UNL     1      -9.002   5.639 135.605  0.00  0.00    +0.000 HD
ENDBRANCH  16  17
BRANCH  16  21
ATOM     21  C   UNL     1      -5.588   5.277 135.739  0.00  0.00    +0.000 C 
BRANCH  21  22
ATOM     22  C   UNL     1      -4.386   5.765 134.965  0.00  0.00    +0.000 A 
ATOM     23  C   UNL     1      -3.989   7.025 135.109  0.00  0.00    +0.000 A 
ATOM     24  N   UNL     1      -3.008   7.498 134.355  0.00  0.00    +0.000 N 
ATOM     25  C   UNL     1      -2.543   6.400 133.717  0.00  0.00    +0.000 A 
ATOM     26  C   UNL     1      -1.463   6.311 132.859  0.00  0.00    +0.000 A 
ATOM     27  C   UNL     1      -1.224   5.033 132.379  0.00  0.00    +0.000 A 
ATOM     28  C   UNL     1      -2.021   3.938 132.747  0.00  0.00    +0.000 A 
ATOM     29  C   UNL     1      -3.105   4.061 133.605  0.00  0.00    +0.000 A 
ATOM     30  C   UNL     1      -3.381   5.317 134.099  0.00  0.00    +0.000 A 
ATOM     31  H   UNL     1      -2.676   8.460 134.275  0.00  0.00    +0.000 HD
ENDBRANCH  21  22
ENDBRANCH  16  21
ENDBRANCH  14  16
ENDBRANCH   1  12
BRANCH   1  32
ATOM     32  C   UNL     1      -6.334   3.995 131.638  0.00  0.00    +0.000 C 
BRANCH  32  33
ATOM     33  C   UNL     1      -5.705   5.249 131.240  0.00  0.00    +0.000 A 
ATOM     34  C   UNL     1      -5.918   6.544 131.647  0.00  0.00    +0.000 A 
ATOM     35  N   UNL     1      -4.893   7.277 131.126  0.00  0.00    +0.000 N 
ATOM     36  C   UNL     1      -4.118   6.490 130.302  0.00  0.00    +0.000 A 
ATOM     37  C   UNL     1      -2.992   6.783 129.546  0.00  0.00    +0.000 A 
ATOM     38  C   UNL     1      -2.433   5.739 128.791  0.00  0.00    +0.000 A 
ATOM     39  C   UNL     1      -2.949   4.446 128.813  0.00  0.00    +0.000 A 
ATOM     40  C   UNL     1      -4.051   4.159 129.598  0.00  0.00    +0.000 A 
ATOM     41  C   UNL     1      -4.636   5.208 130.332  0.00  0.00    +0.000 A 
ATOM     42  H   UNL     1      -4.719   8.247 131.343  0.00  0.00    +0.000 HD
ENDBRANCH  32  33
ENDBRANCH   1  32
TORSDOF 10
ENDMDL
MODEL 3
REMARK VINA RESULT:      -9.0      2.556      7.390
REMARK  Name = Macimorelin
REMARK  12 active torsions:
REMARK  status: ('A' for Active; 'I' for Inactive)
REMARK    1  A    between atoms: C_1  and  C_2
REMARK    2  A    between atoms: C_2  and  C_3
REMARK    3  A    between atoms: C_2  and  N_4
REMARK    4  A    between atoms: C_2  and  C_5
REMARK    5  A    between atoms: N_7  and  C_8
REMARK    6  A    between atoms: C_8  and  C_9
REMARK    7  A    between atoms: C_8  and  C_19
REMARK    8  A    between atoms: C_9  and  C_10
REMARK    9  A    between atoms: N_21  and  C_22
REMARK   10  A    between atoms: C_22  and  C_23
REMARK   11  A    between atoms: C_22  and  N_33
REMARK   12  A    between atoms: C_23  and  C_24
REMARK                            x       y       z     vdW  Elec       q    Type
REMARK                         _______ _______ _______ _____ _____    ______ ____
ROOT
ATOM      1  C   UNL     1      -7.216   2.970 126.604  0.00  0.00    +0.000 C 
ENDROOT
BRANCH   1   4
ATOM      2  C   UNL     1      -4.650   2.916 126.743  0.00  0.00    +0.000 C 
ATOM      3  O   UNL     1      -3.665   2.273 126.376  0.00  0.00    +0.000 OA
ATOM      4  N   UNL     1      -5.858   2.377 126.466  0.00  0.00    +0.000 N 
ATOM      5  H   UNL     1      -5.704   1.475 126.014  0.00  0.00    +0.000 HD
BRANCH   2   7
ATOM      6  C   UNL     1      -3.166   4.564 127.845  0.00  0.00    +0.000 C 
ATOM      7  C   UNL     1      -4.600   4.193 127.586  0.00  0.00    +0.000 C 
ATOM      8  C   UNL     1      -5.369   3.925 128.886  0.00  0.00    +0.000 C 
BRANCH   7   9
ATOM      9  N   UNL     1      -4.971   5.433 126.899  0.00  0.00    +0.000 NA
ATOM     10  H   UNL     1      -5.860   5.375 126.413  0.00  0.00    +0.000 HD
ATOM     11  H   UNL     1      -4.244   5.878 126.359  0.00  0.00    +0.000 HD
ENDBRANCH   7   9
ENDBRANCH   2   7
ENDBRANCH   1   4
BRANCH   1  12
ATOM     12  C   UNL     1      -7.667   4.175 125.716  0.00  0.00    +0.000 C 
ATOM     13  O   UNL     1      -7.798   5.302 126.201  0.00  0.00    +0.000 OA
ATOM     14  N   UNL     1      -7.782   4.062 124.348  0.00  0.00    +0.000 N 
ATOM     15  H   UNL     1      -7.917   4.964 123.907  0.00  0.00    +0.000 HD
BRANCH  14  16
ATOM     16  C   UNL     1      -8.112   2.911 123.507  0.00  0.00    +0.000 C 
BRANCH  16  17
ATOM     17  N   UNL     1      -8.357   3.414 122.174  0.00  0.00    +0.000 N 
ATOM     18  C   UNL     1      -7.398   3.542 121.192  0.00  0.00    +0.000 C 
ATOM     19  O   UNL     1      -7.589   4.124 120.165  0.00  0.00    +0.000 OA
ATOM     20  H   UNL     1      -9.157   4.012 122.006  0.00  0.00    +0.000 HD
ENDBRANCH  16  17
BRANCH  16  21
ATOM     21  C   UNL     1      -7.004   1.730 123.487  0.00  0.00    +0.000 C 
BRANCH  21  22
ATOM     22  C   UNL     1      -7.512   0.311 123.591  0.00  0.00    +0.000 A 
ATOM     23  C   UNL     1      -8.778   0.051 123.286  0.00  0.00    +0.000 A 
ATOM     24  N   UNL     1      -9.267  -1.166 123.478  0.00  0.00    +0.000 N 
ATOM     25  C   UNL     1      -8.175  -1.897 123.801  0.00  0.00    +0.000 A 
ATOM     26  C   UNL     1      -8.103  -3.257 124.031  0.00  0.00    +0.000 A 
ATOM     27  C   UNL     1      -6.829  -3.717 124.323  0.00  0.00    +0.000 A 
ATOM     28  C   UNL     1      -5.721  -2.856 124.373  0.00  0.00    +0.000 A 
ATOM     29  C   UNL     1      -5.827  -1.492 124.146  0.00  0.00    +0.000 A 
ATOM     30  C   UNL     1      -7.079  -0.994 123.859  0.00  0.00    +0.000 A 
ATOM     31  H   UNL     1     -10.235  -1.481 123.399  0.00  0.00    +0.000 HD
ENDBRANCH  21  22
ENDBRANCH  16  21
ENDBRANCH  14  16
ENDBRANCH   1  12
BRANCH   1  32
ATOM     32  C   UNL     1      -8.247   2.017 127.054  0.00  0.00    +0.000 C 
BRANCH  32  33
ATOM     33  C   UNL     1      -8.073   1.359 128.345  0.00  0.00    +0.000 A 
ATOM     34  C   UNL     1      -8.127   1.847 129.628  0.00  0.00    +0.000 A 
ATOM     35  N   UNL     1      -8.130   0.755 130.446  0.00  0.00    +0.000 N 
ATOM     36  C   UNL     1      -7.952  -0.393 129.705  0.00  0.00    +0.000 A 
ATOM     37  C   UNL     1      -7.870  -1.726 130.083  0.00  0.00    +0.000 A 
ATOM     38  C   UNL     1      -7.671  -2.673 129.065  0.00  0.00    +0.000 A 
ATOM     39  C   UNL     1      -7.593  -2.317 127.721  0.00  0.00    +0.000 A 
ATOM     40  C   UNL     1      -7.712  -0.987 127.355  0.00  0.00    +0.000 A 
ATOM     41  C   UNL     1      -7.879  -0.029 128.373  0.00  0.00    +0.000 A 
ATOM     42  H   UNL     1      -8.272   0.792 131.444  0.00  0.00    +0.000 HD
ENDBRANCH  32  33
ENDBRANCH   1  32
TORSDOF 10
ENDMDL
MODEL 4
REMARK VINA RESULT:      -9.0      2.307      5.098
REMARK  Name = Macimorelin
REMARK  12 active torsions:
REMARK  status: ('A' for Active; 'I' for Inactive)
REMARK    1  A    between atoms: C_1  and  C_2
REMARK    2  A    between atoms: C_2  and  C_3
REMARK    3  A    between atoms: C_2  and  N_4
REMARK    4  A    between atoms: C_2  and  C_5
REMARK    5  A    between atoms: N_7  and  C_8
REMARK    6  A    between atoms: C_8  and  C_9
REMARK    7  A    between atoms: C_8  and  C_19
REMARK    8  A    between atoms: C_9  and  C_10
REMARK    9  A    between atoms: N_21  and  C_22
REMARK   10  A    between atoms: C_22  and  C_23
REMARK   11  A    between atoms: C_22  and  N_33
REMARK   12  A    between atoms: C_23  and  C_24
REMARK                            x       y       z     vdW  Elec       q    Type
REMARK                         _______ _______ _______ _____ _____    ______ ____
ROOT
ATOM      1  C   UNL     1      -6.100   2.481 126.380  0.00  0.00    +0.000 C 
ENDROOT
BRANCH   1   4
ATOM      2  C   UNL     1      -4.786   4.590 127.039  0.00  0.00    +0.000 C 
ATOM      3  O   UNL     1      -4.857   5.820 127.057  0.00  0.00    +0.000 OA
ATOM      4  N   UNL     1      -5.794   3.937 126.419  0.00  0.00    +0.000 N 
ATOM      5  H   UNL     1      -6.432   4.636 126.036  0.00  0.00    +0.000 HD
BRANCH   2   7
ATOM      6  C   UNL     1      -2.761   4.623 128.465  0.00  0.00    +0.000 C 
ATOM      7  C   UNL     1      -3.595   3.772 127.548  0.00  0.00    +0.000 C 
ATOM      8  C   UNL     1      -2.800   3.293 126.326  0.00  0.00    +0.000 C 
BRANCH   7   9
ATOM      9  N   UNL     1      -3.904   2.726 128.526  0.00  0.00    +0.000 NA
ATOM     10  H   UNL     1      -4.147   1.836 128.104  0.00  0.00    +0.000 HD
ATOM     11  H   UNL     1      -4.513   2.992 129.285  0.00  0.00    +0.000 HD
ENDBRANCH   7   9
ENDBRANCH   2   7
ENDBRANCH   1   4
BRANCH   1  12
ATOM     12  C   UNL     1      -6.997   1.813 127.473  0.00  0.00    +0.000 C 
ATOM     13  O   UNL     1      -7.951   2.422 127.965  0.00  0.00    +0.000 OA
ATOM     14  N   UNL     1      -6.857   0.486 127.812  0.00  0.00    +0.000 N 
ATOM     15  H   UNL     1      -7.614   0.168 128.405  0.00  0.00    +0.000 HD
BRANCH  14  16
ATOM     16  C   UNL     1      -5.684  -0.389 127.791  0.00  0.00    +0.000 C 
BRANCH  16  17
ATOM     17  N   UNL     1      -4.971  -0.175 129.030  0.00  0.00    +0.000 N 
ATOM     18  C   UNL     1      -4.316  -1.157 129.742  0.00  0.00    +0.000 C 
ATOM     19  O   UNL     1      -3.891  -0.988 130.847  0.00  0.00    +0.000 OA
ATOM     20  H   UNL     1      -5.204   0.624 129.608  0.00  0.00    +0.000 HD
ENDBRANCH  16  17
BRANCH  16  21
ATOM     21  C   UNL     1      -6.000  -1.962 127.567  0.00  0.00    +0.000 C 
BRANCH  21  22
ATOM     22  C   UNL     1      -7.059  -2.310 126.547  0.00  0.00    +0.000 A 
ATOM     23  C   UNL     1      -8.187  -2.880 126.952  0.00  0.00    +0.000 A 
ATOM     24  N   UNL     1      -9.076  -3.292 126.060  0.00  0.00    +0.000 N 
ATOM     25  C   UNL     1      -8.597  -2.808 124.891  0.00  0.00    +0.000 A 
ATOM     26  C   UNL     1      -9.180  -2.882 123.640  0.00  0.00    +0.000 A 
ATOM     27  C   UNL     1      -8.448  -2.267 122.636  0.00  0.00    +0.000 A 
ATOM     28  C   UNL     1      -7.225  -1.628 122.892  0.00  0.00    +0.000 A 
ATOM     29  C   UNL     1      -6.661  -1.578 124.159  0.00  0.00    +0.000 A 
ATOM     30  C   UNL     1      -7.354  -2.184 125.183  0.00  0.00    +0.000 A 
ATOM     31  H   UNL     1      -9.923  -3.841 126.214  0.00  0.00    +0.000 HD
ENDBRANCH  21  22
ENDBRANCH  16  21
ENDBRANCH  14  16
ENDBRANCH   1  12
BRANCH   1  32
ATOM     32  C   UNL     1      -6.118   1.905 125.023  0.00  0.00    +0.000 C 
BRANCH  32  33
ATOM     33  C   UNL     1      -7.318   2.071 124.211  0.00  0.00    +0.000 A 
ATOM     34  C   UNL     1      -8.641   1.814 124.480  0.00  0.00    +0.000 A 
ATOM     35  N   UNL     1      -9.349   2.377 123.460  0.00  0.00    +0.000 N 
ATOM     36  C   UNL     1      -8.491   2.867 122.500  0.00  0.00    +0.000 A 
ATOM     37  C   UNL     1      -8.733   3.502 121.290  0.00  0.00    +0.000 A 
ATOM     38  C   UNL     1      -7.616   3.875 120.523  0.00  0.00    +0.000 A 
ATOM     39  C   UNL     1      -6.310   3.661 120.957  0.00  0.00    +0.000 A 
ATOM     40  C   UNL     1      -6.084   3.058 122.182  0.00  0.00    +0.000 A 
ATOM     41  C   UNL     1      -7.198   2.652 122.941  0.00  0.00    +0.000 A 
ATOM     42  H   UNL     1     -10.356   2.445 123.435  0.00  0.00    +0.000 HD
ENDBRANCH  32  33
ENDBRANCH   1  32
TORSDOF 10
ENDMDL
MODEL 5
REMARK VINA RESULT:      -8.8      3.243      7.684
REMARK  Name = Macimorelin
REMARK  12 active torsions:
REMARK  status: ('A' for Active; 'I' for Inactive)
REMARK    1  A    between atoms: C_1  and  C_2
REMARK    2  A    between atoms: C_2  and  C_3
REMARK    3  A    between atoms: C_2  and  N_4
REMARK    4  A    between atoms: C_2  and  C_5
REMARK    5  A    between atoms: N_7  and  C_8
REMARK    6  A    between atoms: C_8  and  C_9
REMARK    7  A    between atoms: C_8  and  C_19
REMARK    8  A    between atoms: C_9  and  C_10
REMARK    9  A    between atoms: N_21  and  C_22
REMARK   10  A    between atoms: C_22  and  C_23
REMARK   11  A    between atoms: C_22  and  N_33
REMARK   12  A    between atoms: C_23  and  C_24
REMARK                            x       y       z     vdW  Elec       q    Type
REMARK                         _______ _______ _______ _____ _____    ______ ____
ROOT
ATOM      1  C   UNL     1      -6.558   3.362 126.450  0.00  0.00    +0.000 C 
ENDROOT
BRANCH   1   4
ATOM      2  C   UNL     1      -4.009   3.249 126.757  0.00  0.00    +0.000 C 
ATOM      3  O   UNL     1      -2.999   2.675 126.346  0.00  0.00    +0.000 OA
ATOM      4  N   UNL     1      -5.193   2.788 126.298  0.00  0.00    +0.000 N 
ATOM      5  H   UNL     1      -5.006   1.987 125.694  0.00  0.00    +0.000 HD
BRANCH   2   7
ATOM      6  C   UNL     1      -2.644   4.934 127.954  0.00  0.00    +0.000 C 
ATOM      7  C   UNL     1      -4.021   4.343 127.830  0.00  0.00    +0.000 C 
ATOM      8  C   UNL     1      -4.494   3.705 129.143  0.00  0.00    +0.000 C 
BRANCH   7   9
ATOM      9  N   UNL     1      -4.705   5.588 127.472  0.00  0.00    +0.000 NA
ATOM     10  H   UNL     1      -4.201   6.422 127.754  0.00  0.00    +0.000 HD
ATOM     11  H   UNL     1      -5.694   5.626 127.673  0.00  0.00    +0.000 HD
ENDBRANCH   7   9
ENDBRANCH   2   7
ENDBRANCH   1   4
BRANCH   1  12
ATOM     12  C   UNL     1      -7.160   4.317 125.367  0.00  0.00    +0.000 C 
ATOM     13  O   UNL     1      -7.199   5.536 125.552  0.00  0.00    +0.000 OA
ATOM     14  N   UNL     1      -7.519   3.859 124.119  0.00  0.00    +0.000 N 
ATOM     15  H   UNL     1      -7.730   4.621 123.486  0.00  0.00    +0.000 HD
BRANCH  14  16
ATOM     16  C   UNL     1      -7.997   2.547 123.681  0.00  0.00    +0.000 C 
BRANCH  16  17
ATOM     17  N   UNL     1      -8.810   2.761 122.505  0.00  0.00    +0.000 N 
ATOM     18  C   UNL     1      -8.410   3.461 121.387  0.00  0.00    +0.000 C 
ATOM     19  O   UNL     1      -9.160   3.774 120.510  0.00  0.00    +0.000 OA
ATOM     20  H   UNL     1      -9.819   2.706 122.580  0.00  0.00    +0.000 HD
ENDBRANCH  16  17
BRANCH  16  21
ATOM     21  C   UNL     1      -6.839   1.452 123.394  0.00  0.00    +0.000 C 
BRANCH  21  22
ATOM     22  C   UNL     1      -7.036   0.075 123.984  0.00  0.00    +0.000 A 
ATOM     23  C   UNL     1      -6.330  -0.282 125.050  0.00  0.00    +0.000 A 
ATOM     24  N   UNL     1      -6.410  -1.523 125.510  0.00  0.00    +0.000 N 
ATOM     25  C   UNL     1      -7.417  -2.063 124.787  0.00  0.00    +0.000 A 
ATOM     26  C   UNL     1      -7.972  -3.322 124.913  0.00  0.00    +0.000 A 
ATOM     27  C   UNL     1      -9.012  -3.575 124.033  0.00  0.00    +0.000 A 
ATOM     28  C   UNL     1      -9.449  -2.619 123.103  0.00  0.00    +0.000 A 
ATOM     29  C   UNL     1      -8.866  -1.364 122.994  0.00  0.00    +0.000 A 
ATOM     30  C   UNL     1      -7.823  -1.076 123.847  0.00  0.00    +0.000 A 
ATOM     31  H   UNL     1      -5.850  -1.967 126.239  0.00  0.00    +0.000 HD
ENDBRANCH  21  22
ENDBRANCH  16  21
ENDBRANCH  14  16
ENDBRANCH   1  12
BRANCH   1  32
ATOM     32  C   UNL     1      -7.487   2.513 127.217  0.00  0.00    +0.000 C 
BRANCH  32  33
ATOM     33  C   UNL     1      -8.032   3.029 128.468  0.00  0.00    +0.000 A 
ATOM     34  C   UNL     1      -8.421   4.294 128.837  0.00  0.00    +0.000 A 
ATOM     35  N   UNL     1      -9.073   4.156 130.027  0.00  0.00    +0.000 N 
ATOM     36  C   UNL     1      -8.988   2.853 130.466  0.00  0.00    +0.000 A 
ATOM     37  C   UNL     1      -9.471   2.237 131.612  0.00  0.00    +0.000 A 
ATOM     38  C   UNL     1      -9.199   0.867 131.771  0.00  0.00    +0.000 A 
ATOM     39  C   UNL     1      -8.507   0.130 130.813  0.00  0.00    +0.000 A 
ATOM     40  C   UNL     1      -8.061   0.750 129.659  0.00  0.00    +0.000 A 
ATOM     41  C   UNL     1      -8.301   2.128 129.509  0.00  0.00    +0.000 A 
ATOM     42  H   UNL     1      -9.568   4.900 130.495  0.00  0.00    +0.000 HD
ENDBRANCH  32  33
ENDBRANCH   1  32
TORSDOF 10
ENDMDL
MODEL 6
REMARK VINA RESULT:      -8.8      2.076      8.439
REMARK  Name = Macimorelin
REMARK  12 active torsions:
REMARK  status: ('A' for Active; 'I' for Inactive)
REMARK    1  A    between atoms: C_1  and  C_2
REMARK    2  A    between atoms: C_2  and  C_3
REMARK    3  A    between atoms: C_2  and  N_4
REMARK    4  A    between atoms: C_2  and  C_5
REMARK    5  A    between atoms: N_7  and  C_8
REMARK    6  A    between atoms: C_8  and  C_9
REMARK    7  A    between atoms: C_8  and  C_19
REMARK    8  A    between atoms: C_9  and  C_10
REMARK    9  A    between atoms: N_21  and  C_22
REMARK   10  A    between atoms: C_22  and  C_23
REMARK   11  A    between atoms: C_22  and  N_33
REMARK   12  A    between atoms: C_23  and  C_24
REMARK                            x       y       z     vdW  Elec       q    Type
REMARK                         _______ _______ _______ _____ _____    ______ ____
ROOT
ATOM      1  C   UNL     1      -7.410  -0.597 126.514  0.00  0.00    +0.000 C 
ENDROOT
BRANCH   1   4
ATOM      2  C   UNL     1      -9.007  -0.929 124.527  0.00  0.00    +0.000 C 
ATOM      3  O   UNL     1      -9.725  -0.313 123.737  0.00  0.00    +0.000 OA
ATOM      4  N   UNL     1      -8.451  -0.206 125.524  0.00  0.00    +0.000 N 
ATOM      5  H   UNL     1      -8.784   0.756 125.439  0.00  0.00    +0.000 HD
BRANCH   2   7
ATOM      6  C   UNL     1      -9.332  -3.023 123.246  0.00  0.00    +0.000 C 
ATOM      7  C   UNL     1      -8.809  -2.448 124.532  0.00  0.00    +0.000 C 
ATOM      8  C   UNL     1      -9.545  -3.010 125.755  0.00  0.00    +0.000 C 
BRANCH   7   9
ATOM      9  N   UNL     1      -7.430  -2.917 124.378  0.00  0.00    +0.000 NA
ATOM     10  H   UNL     1      -7.269  -3.420 123.511  0.00  0.00    +0.000 HD
ATOM     11  H   UNL     1      -7.018  -3.361 125.185  0.00  0.00    +0.000 HD
ENDBRANCH   7   9
ENDBRANCH   2   7
ENDBRANCH   1   4
BRANCH   1  12
ATOM     12  C   UNL     1      -5.888  -0.421 126.201  0.00  0.00    +0.000 C 
ATOM     13  O   UNL     1      -5.142  -1.400 126.127  0.00  0.00    +0.000 OA
ATOM     14  N   UNL     1      -5.360   0.801 125.847  0.00  0.00    +0.000 N 
ATOM     15  H   UNL     1      -4.406   0.715 125.516  0.00  0.00    +0.000 HD
BRANCH  14  16
ATOM     16  C   UNL     1      -5.767   2.160 126.205  0.00  0.00    +0.000 C 
BRANCH  16  17
ATOM     17  N   UNL     1      -5.170   2.459 127.488  0.00  0.00    +0.000 N 
ATOM     18  C   UNL     1      -5.610   3.439 128.351  0.00  0.00    +0.000 C 
ATOM     19  O   UNL     1      -4.993   3.782 129.317  0.00  0.00    +0.000 OA
ATOM     20  H   UNL     1      -4.206   2.202 127.661  0.00  0.00    +0.000 HD
ENDBRANCH  16  17
BRANCH  16  21
ATOM     21  C   UNL     1      -5.400   3.300 125.114  0.00  0.00    +0.000 C 
BRANCH  21  22
ATOM     22  C   UNL     1      -6.262   3.367 123.875  0.00  0.00    +0.000 A 
ATOM     23  C   UNL     1      -7.552   3.062 123.965  0.00  0.00    +0.000 A 
ATOM     24  N   UNL     1      -8.295   3.008 122.869  0.00  0.00    +0.000 N 
ATOM     25  C   UNL     1      -7.476   3.494 121.909  0.00  0.00    +0.000 A 
ATOM     26  C   UNL     1      -7.774   3.728 120.580  0.00  0.00    +0.000 A 
ATOM     27  C   UNL     1      -6.721   4.253 119.847  0.00  0.00    +0.000 A 
ATOM     28  C   UNL     1      -5.470   4.517 120.426  0.00  0.00    +0.000 A 
ATOM     29  C   UNL     1      -5.199   4.262 121.763  0.00  0.00    +0.000 A 
ATOM     30  C   UNL     1      -6.218   3.733 122.524  0.00  0.00    +0.000 A 
ATOM     31  H   UNL     1      -9.258   2.682 122.771  0.00  0.00    +0.000 HD
ENDBRANCH  21  22
ENDBRANCH  16  21
ENDBRANCH  14  16
ENDBRANCH   1  12
BRANCH   1  32
ATOM     32  C   UNL     1      -7.846  -0.493 127.918  0.00  0.00    +0.000 C 
BRANCH  32  33
ATOM     33  C   UNL     1      -7.668  -1.649 128.791  0.00  0.00    +0.000 A 
ATOM     34  C   UNL     1      -7.296  -2.944 128.521  0.00  0.00    +0.000 A 
ATOM     35  N   UNL     1      -7.059  -3.527 129.731  0.00  0.00    +0.000 N 
ATOM     36  C   UNL     1      -7.396  -2.662 130.749  0.00  0.00    +0.000 A 
ATOM     37  C   UNL     1      -7.348  -2.806 132.129  0.00  0.00    +0.000 A 
ATOM     38  C   UNL     1      -7.781  -1.718 132.905  0.00  0.00    +0.000 A 
ATOM     39  C   UNL     1      -8.209  -0.521 132.336  0.00  0.00    +0.000 A 
ATOM     40  C   UNL     1      -8.218  -0.380 130.960  0.00  0.00    +0.000 A 
ATOM     41  C   UNL     1      -7.817  -1.477 130.175  0.00  0.00    +0.000 A 
ATOM     42  H   UNL     1      -6.666  -4.449 129.851  0.00  0.00    +0.000 HD
ENDBRANCH  32  33
ENDBRANCH   1  32
TORSDOF 10
ENDMDL
MODEL 7
REMARK VINA RESULT:      -8.7      1.445      8.734
REMARK  Name = Macimorelin
REMARK  12 active torsions:
REMARK  status: ('A' for Active; 'I' for Inactive)
REMARK    1  A    between atoms: C_1  and  C_2
REMARK    2  A    between atoms: C_2  and  C_3
REMARK    3  A    between atoms: C_2  and  N_4
REMARK    4  A    between atoms: C_2  and  C_5
REMARK    5  A    between atoms: N_7  and  C_8
REMARK    6  A    between atoms: C_8  and  C_9
REMARK    7  A    between atoms: C_8  and  C_19
REMARK    8  A    between atoms: C_9  and  C_10
REMARK    9  A    between atoms: N_21  and  C_22
REMARK   10  A    between atoms: C_22  and  C_23
REMARK   11  A    between atoms: C_22  and  N_33
REMARK   12  A    between atoms: C_23  and  C_24
REMARK                            x       y       z     vdW  Elec       q    Type
REMARK                         _______ _______ _______ _____ _____    ______ ____
ROOT
ATOM      1  C   UNL     1      -6.689   0.044 126.390  0.00  0.00    +0.000 C 
ENDROOT
BRANCH   1   4
ATOM      2  C   UNL     1      -9.043   0.129 125.360  0.00  0.00    +0.000 C 
ATOM      3  O   UNL     1     -10.201   0.478 125.595  0.00  0.00    +0.000 OA
ATOM      4  N   UNL     1      -8.169   0.209 126.387  0.00  0.00    +0.000 N 
ATOM      5  H   UNL     1      -8.680   0.529 127.211  0.00  0.00    +0.000 HD
BRANCH   2   7
ATOM      6  C   UNL     1      -9.418   0.003 122.915  0.00  0.00    +0.000 C 
ATOM      7  C   UNL     1      -8.565  -0.499 124.047  0.00  0.00    +0.000 C 
ATOM      8  C   UNL     1      -8.650  -2.023 124.199  0.00  0.00    +0.000 C 
BRANCH   7   9
ATOM      9  N   UNL     1      -7.288  -0.006 123.525  0.00  0.00    +0.000 NA
ATOM     10  H   UNL     1      -6.735   0.491 124.215  0.00  0.00    +0.000 HD
ATOM     11  H   UNL     1      -7.322   0.453 122.627  0.00  0.00    +0.000 HD
ENDBRANCH   7   9
ENDBRANCH   2   7
ENDBRANCH   1   4
BRANCH   1  12
ATOM     12  C   UNL     1      -5.748   1.189 126.888  0.00  0.00    +0.000 C 
ATOM     13  O   UNL     1      -5.079   1.053 127.916  0.00  0.00    +0.000 OA
ATOM     14  N   UNL     1      -5.511   2.312 126.128  0.00  0.00    +0.000 N 
ATOM     15  H   UNL     1      -4.758   2.872 126.509  0.00  0.00    +0.000 HD
BRANCH  14  16
ATOM     16  C   UNL     1      -6.354   3.002 125.151  0.00  0.00    +0.000 C 
BRANCH  16  17
ATOM     17  N   UNL     1      -7.004   4.093 125.843  0.00  0.00    +0.000 N 
ATOM     18  C   UNL     1      -8.324   4.454 125.680  0.00  0.00    +0.000 C 
ATOM     19  O   UNL     1      -8.783   5.463 126.127  0.00  0.00    +0.000 OA
ATOM     20  H   UNL     1      -6.444   4.850 126.216  0.00  0.00    +0.000 HD
ENDBRANCH  16  17
BRANCH  16  21
ATOM     21  C   UNL     1      -5.585   3.531 123.827  0.00  0.00    +0.000 C 
BRANCH  21  22
ATOM     22  C   UNL     1      -6.406   3.674 122.567  0.00  0.00    +0.000 A 
ATOM     23  C   UNL     1      -7.687   3.322 122.584  0.00  0.00    +0.000 A 
ATOM     24  N   UNL     1      -8.391   3.336 121.461  0.00  0.00    +0.000 N 
ATOM     25  C   UNL     1      -7.556   3.925 120.574  0.00  0.00    +0.000 A 
ATOM     26  C   UNL     1      -7.816   4.260 119.259  0.00  0.00    +0.000 A 
ATOM     27  C   UNL     1      -6.758   4.876 118.610  0.00  0.00    +0.000 A 
ATOM     28  C   UNL     1      -5.537   5.130 119.255  0.00  0.00    +0.000 A 
ATOM     29  C   UNL     1      -5.303   4.774 120.575  0.00  0.00    +0.000 A 
ATOM     30  C   UNL     1      -6.328   4.152 121.253  0.00  0.00    +0.000 A 
ATOM     31  H   UNL     1      -9.337   2.989 121.301  0.00  0.00    +0.000 HD
ENDBRANCH  21  22
ENDBRANCH  16  21
ENDBRANCH  14  16
ENDBRANCH   1  12
BRANCH   1  32
ATOM     32  C   UNL     1      -6.240  -1.349 126.567  0.00  0.00    +0.000 C 
BRANCH  32  33
ATOM     33  C   UNL     1      -6.794  -2.126 127.671  0.00  0.00    +0.000 A 
ATOM     34  C   UNL     1      -8.081  -2.514 127.954  0.00  0.00    +0.000 A 
ATOM     35  N   UNL     1      -7.986  -3.418 128.971  0.00  0.00    +0.000 N 
ATOM     36  C   UNL     1      -6.683  -3.505 129.409  0.00  0.00    +0.000 A 
ATOM     37  C   UNL     1      -6.102  -4.262 130.416  0.00  0.00    +0.000 A 
ATOM     38  C   UNL     1      -4.721  -4.110 130.622  0.00  0.00    +0.000 A 
ATOM     39  C   UNL     1      -3.940  -3.267 129.835  0.00  0.00    +0.000 A 
ATOM     40  C   UNL     1      -4.526  -2.544 128.811  0.00  0.00    +0.000 A 
ATOM     41  C   UNL     1      -5.916  -2.667 128.621  0.00  0.00    +0.000 A 
ATOM     42  H   UNL     1      -8.761  -3.961 129.323  0.00  0.00    +0.000 HD
ENDBRANCH  32  33
ENDBRANCH   1  32
TORSDOF 10
ENDMDL
MODEL 8
REMARK VINA RESULT:      -8.7      1.946      2.394
REMARK  Name = Macimorelin
REMARK  12 active torsions:
REMARK  status: ('A' for Active; 'I' for Inactive)
REMARK    1  A    between atoms: C_1  and  C_2
REMARK    2  A    between atoms: C_2  and  C_3
REMARK    3  A    between atoms: C_2  and  N_4
REMARK    4  A    between atoms: C_2  and  C_5
REMARK    5  A    between atoms: N_7  and  C_8
REMARK    6  A    between atoms: C_8  and  C_9
REMARK    7  A    between atoms: C_8  and  C_19
REMARK    8  A    between atoms: C_9  and  C_10
REMARK    9  A    between atoms: N_21  and  C_22
REMARK   10  A    between atoms: C_22  and  C_23
REMARK   11  A    between atoms: C_22  and  N_33
REMARK   12  A    between atoms: C_23  and  C_24
REMARK                            x       y       z     vdW  Elec       q    Type
REMARK                         _______ _______ _______ _____ _____    ______ ____
ROOT
ATOM      1  C   UNL     1      -7.695   1.322 124.568  0.00  0.00    +0.000 C 
ENDROOT
BRANCH   1   4
ATOM      2  C   UNL     1      -6.970  -1.140 124.727  0.00  0.00    +0.000 C 
ATOM      3  O   UNL     1      -6.022  -1.861 125.039  0.00  0.00    +0.000 OA
ATOM      4  N   UNL     1      -6.737   0.192 124.717  0.00  0.00    +0.000 N 
ATOM      5  H   UNL     1      -5.755   0.341 124.950  0.00  0.00    +0.000 HD
BRANCH   2   7
ATOM      6  C   UNL     1      -8.319  -3.146 124.189  0.00  0.00    +0.000 C 
ATOM      7  C   UNL     1      -8.331  -1.643 124.234  0.00  0.00    +0.000 C 
ATOM      8  C   UNL     1      -8.584  -1.028 122.852  0.00  0.00    +0.000 C 
BRANCH   7   9
ATOM      9  N   UNL     1      -9.445  -1.512 125.177  0.00  0.00    +0.000 NA
ATOM     10  H   UNL     1     -10.353  -1.482 124.727  0.00  0.00    +0.000 HD
ATOM     11  H   UNL     1      -9.332  -0.824 125.906  0.00  0.00    +0.000 HD
ENDBRANCH   7   9
ENDBRANCH   2   7
ENDBRANCH   1   4
BRANCH   1  12
ATOM     12  C   UNL     1      -8.826   1.568 125.618  0.00  0.00    +0.000 C 
ATOM     13  O   UNL     1     -10.013   1.545 125.284  0.00  0.00    +0.000 OA
ATOM     14  N   UNL     1      -8.554   1.662 126.965  0.00  0.00    +0.000 N 
ATOM     15  H   UNL     1      -9.401   1.653 127.521  0.00  0.00    +0.000 HD
BRANCH  14  16
ATOM     16  C   UNL     1      -7.362   2.135 127.671  0.00  0.00    +0.000 C 
BRANCH  16  17
ATOM     17  N   UNL     1      -7.156   3.513 127.281  0.00  0.00    +0.000 N 
ATOM     18  C   UNL     1      -5.942   4.054 126.916  0.00  0.00    +0.000 C 
ATOM     19  O   UNL     1      -5.768   5.229 126.774  0.00  0.00    +0.000 OA
ATOM     20  H   UNL     1      -7.814   4.220 127.584  0.00  0.00    +0.000 HD
ENDBRANCH  16  17
BRANCH  16  21
ATOM     21  C   UNL     1      -7.411   1.989 129.283  0.00  0.00    +0.000 C 
BRANCH  21  22
ATOM     22  C   UNL     1      -7.552   0.592 129.841  0.00  0.00    +0.000 A 
ATOM     23  C   UNL     1      -7.812   0.433 131.134  0.00  0.00    +0.000 A 
ATOM     24  N   UNL     1      -7.828  -0.784 131.659  0.00  0.00    +0.000 N 
ATOM     25  C   UNL     1      -7.733  -1.594 130.580  0.00  0.00    +0.000 A 
ATOM     26  C   UNL     1      -7.780  -2.974 130.549  0.00  0.00    +0.000 A 
ATOM     27  C   UNL     1      -7.675  -3.518 129.278  0.00  0.00    +0.000 A 
ATOM     28  C   UNL     1      -7.536  -2.715 128.135  0.00  0.00    +0.000 A 
ATOM     29  C   UNL     1      -7.483  -1.330 128.199  0.00  0.00    +0.000 A 
ATOM     30  C   UNL     1      -7.576  -0.751 129.446  0.00  0.00    +0.000 A 
ATOM     31  H   UNL     1      -7.899  -1.050 132.642  0.00  0.00    +0.000 HD
ENDBRANCH  21  22
ENDBRANCH  16  21
ENDBRANCH  14  16
ENDBRANCH   1  12
BRANCH   1  32
ATOM     32  C   UNL     1      -7.142   2.490 123.858  0.00  0.00    +0.000 C 
BRANCH  32  33
ATOM     33  C   UNL     1      -7.691   2.836 122.552  0.00  0.00    +0.000 A 
ATOM     34  C   UNL     1      -8.959   2.717 122.038  0.00  0.00    +0.000 A 
ATOM     35  N   UNL     1      -8.957   3.413 120.865  0.00  0.00    +0.000 N 
ATOM     36  C   UNL     1      -7.684   3.855 120.577  0.00  0.00    +0.000 A 
ATOM     37  C   UNL     1      -7.185   4.580 119.505  0.00  0.00    +0.000 A 
ATOM     38  C   UNL     1      -5.809   4.866 119.505  0.00  0.00    +0.000 A 
ATOM     39  C   UNL     1      -4.969   4.481 120.547  0.00  0.00    +0.000 A 
ATOM     40  C   UNL     1      -5.487   3.789 121.627  0.00  0.00    +0.000 A 
ATOM     41  C   UNL     1      -6.859   3.470 121.618  0.00  0.00    +0.000 A 
ATOM     42  H   UNL     1      -9.780   3.597 120.311  0.00  0.00    +0.000 HD
ENDBRANCH  32  33
ENDBRANCH   1  32
TORSDOF 10
ENDMDL
MODEL 9
REMARK VINA RESULT:      -8.6      3.261      5.859
REMARK  Name = Macimorelin
REMARK  12 active torsions:
REMARK  status: ('A' for Active; 'I' for Inactive)
REMARK    1  A    between atoms: C_1  and  C_2
REMARK    2  A    between atoms: C_2  and  C_3
REMARK    3  A    between atoms: C_2  and  N_4
REMARK    4  A    between atoms: C_2  and  C_5
REMARK    5  A    between atoms: N_7  and  C_8
REMARK    6  A    between atoms: C_8  and  C_9
REMARK    7  A    between atoms: C_8  and  C_19
REMARK    8  A    between atoms: C_9  and  C_10
REMARK    9  A    between atoms: N_21  and  C_22
REMARK   10  A    between atoms: C_22  and  C_23
REMARK   11  A    between atoms: C_22  and  N_33
REMARK   12  A    between atoms: C_23  and  C_24
REMARK                            x       y       z     vdW  Elec       q    Type
REMARK                         _______ _______ _______ _____ _____    ______ ____
ROOT
ATOM      1  C   UNL     1      -5.997   2.762 127.289  0.00  0.00    +0.000 C 
ENDROOT
BRANCH   1   4
ATOM      2  C   UNL     1      -4.552   4.882 127.454  0.00  0.00    +0.000 C 
ATOM      3  O   UNL     1      -4.501   6.060 127.100  0.00  0.00    +0.000 OA
ATOM      4  N   UNL     1      -5.553   4.138 126.934  0.00  0.00    +0.000 N 
ATOM      5  H   UNL     1      -6.077   4.726 126.285  0.00  0.00    +0.000 HD
BRANCH   2   7
ATOM      6  C   UNL     1      -2.825   5.198 129.201  0.00  0.00    +0.000 C 
ATOM      7  C   UNL     1      -3.504   4.182 128.326  0.00  0.00    +0.000 C 
ATOM      8  C   UNL     1      -2.515   3.475 127.391  0.00  0.00    +0.000 C 
BRANCH   7   9
ATOM      9  N   UNL     1      -4.024   3.348 129.412  0.00  0.00    +0.000 NA
ATOM     10  H   UNL     1      -4.711   2.666 129.105  0.00  0.00    +0.000 HD
ATOM     11  H   UNL     1      -4.286   3.831 130.259  0.00  0.00    +0.000 HD
ENDBRANCH   7   9
ENDBRANCH   2   7
ENDBRANCH   1   4
BRANCH   1  12
ATOM     12  C   UNL     1      -7.379   2.510 127.974  0.00  0.00    +0.000 C 
ATOM     13  O   UNL     1      -8.401   3.061 127.556  0.00  0.00    +0.000 OA
ATOM     14  N   UNL     1      -7.537   1.557 128.956  0.00  0.00    +0.000 N 
ATOM     15  H   UNL     1      -8.513   1.401 129.175  0.00  0.00    +0.000 HD
BRANCH  14  16
ATOM     16  C   UNL     1      -6.594   1.042 129.951  0.00  0.00    +0.000 C 
BRANCH  16  17
ATOM     17  N   UNL     1      -7.330   0.867 131.183  0.00  0.00    +0.000 N 
ATOM     18  C   UNL     1      -6.838   1.144 132.440  0.00  0.00    +0.000 C 
ATOM     19  O   UNL     1      -7.399   0.822 133.446  0.00  0.00    +0.000 OA
ATOM     20  H   UNL     1      -8.106   0.217 131.212  0.00  0.00    +0.000 HD
ENDBRANCH  16  17
BRANCH  16  21
ATOM     21  C   UNL     1      -5.827  -0.322 129.533  0.00  0.00    +0.000 C 
BRANCH  21  22
ATOM     22  C   UNL     1      -6.688  -1.518 129.200  0.00  0.00    +0.000 A 
ATOM     23  C   UNL     1      -6.776  -2.517 130.071  0.00  0.00    +0.000 A 
ATOM     24  N   UNL     1      -7.436  -3.619 129.746  0.00  0.00    +0.000 N 
ATOM     25  C   UNL     1      -8.025  -3.299 128.571  0.00  0.00    +0.000 A 
ATOM     26  C   UNL     1      -8.898  -4.066 127.824  0.00  0.00    +0.000 A 
ATOM     27  C   UNL     1      -9.350  -3.449 126.668  0.00  0.00    +0.000 A 
ATOM     28  C   UNL     1      -8.944  -2.154 126.309  0.00  0.00    +0.000 A 
ATOM     29  C   UNL     1      -8.058  -1.411 127.077  0.00  0.00    +0.000 A 
ATOM     30  C   UNL     1      -7.580  -1.993 128.230  0.00  0.00    +0.000 A 
ATOM     31  H   UNL     1      -7.492  -4.500 130.259  0.00  0.00    +0.000 HD
ENDBRANCH  21  22
ENDBRANCH  16  21
ENDBRANCH  14  16
ENDBRANCH   1  12
BRANCH   1  32
ATOM     32  C   UNL     1      -5.457   1.709 126.409  0.00  0.00    +0.000 C 
BRANCH  32  33
ATOM     33  C   UNL     1      -6.271   1.254 125.287  0.00  0.00    +0.000 A 
ATOM     34  C   UNL     1      -7.178   1.914 124.494  0.00  0.00    +0.000 A 
ATOM     35  N   UNL     1      -7.456   1.071 123.458  0.00  0.00    +0.000 N 
ATOM     36  C   UNL     1      -6.839  -0.144 123.656  0.00  0.00    +0.000 A 
ATOM     37  C   UNL     1      -6.837  -1.307 122.899  0.00  0.00    +0.000 A 
ATOM     38  C   UNL     1      -6.102  -2.397 123.393  0.00  0.00    +0.000 A 
ATOM     39  C   UNL     1      -5.366  -2.325 124.574  0.00  0.00    +0.000 A 
ATOM     40  C   UNL     1      -5.349  -1.148 125.301  0.00  0.00    +0.000 A 
ATOM     41  C   UNL     1      -6.110  -0.062 124.829  0.00  0.00    +0.000 A 
ATOM     42  H   UNL     1      -8.011   1.323 122.654  0.00  0.00    +0.000 HD
ENDBRANCH  32  33
ENDBRANCH   1  32
TORSDOF 10
ENDMDL
