MODEL 1
REMARK VINA RESULT:      -7.9      0.000      0.000
REMARK  Name = Macitentan
REMARK  12 active torsions:
REMARK  status: ('A' for Active; 'I' for Inactive)
REMARK    1  A    between atoms: C_1  and  C_2
REMARK    2  A    between atoms: C_2  and  C_3
REMARK    3  A    between atoms: C_3  and  N_4
REMARK    4  A    between atoms: N_4  and  S_5
REMARK    5  A    between atoms: S_5  and  N_8
REMARK    6  A    between atoms: N_8  and  C_9
REMARK    7  A    between atoms: C_10  and  C_26
REMARK    8  A    between atoms: C_11  and  O_12
REMARK    9  A    between atoms: O_12  and  C_13
REMARK   10  A    between atoms: C_13  and  C_14
REMARK   11  A    between atoms: C_14  and  O_15
REMARK   12  A    between atoms: O_15  and  C_16
REMARK                            x       y       z     vdW  Elec       q    Type
REMARK                         _______ _______ _______ _____ _____    ______ ____
ROOT
ATOM      1  C   UNL     1      -8.591   2.764 124.879  0.00  0.00    +0.000 A 
ATOM      2  C   UNL     1      -8.530   2.066 123.665  0.00  0.00    +0.000 A 
ATOM      3  C   UNL     1      -8.948   0.722 123.680  0.00  0.00    +0.000 A 
ATOM      4  N   UNL     1      -9.369   0.142 124.820  0.00  0.00    +0.000 NA
ATOM      5  C   UNL     1      -9.348   0.894 125.936  0.00  0.00    +0.000 A 
ATOM      6  N   UNL     1      -8.962   2.187 126.037  0.00  0.00    +0.000 NA
ENDROOT
BRANCH   2   7
ATOM      7  C   UNL     1      -8.018   2.745 122.489  0.00  0.00    +0.000 A 
ATOM      8  C   UNL     1      -8.881   3.276 121.516  0.00  0.00    +0.000 A 
ATOM      9  C   UNL     1      -8.337   3.923 120.408  0.00  0.00    +0.000 A 
ATOM     10  C   UNL     1      -6.952   4.102 120.315  0.00  0.00    +0.000 A 
ATOM     11 BR   UNL     1      -6.221   5.019 118.838  0.00  0.00    +0.000 Br
ATOM     12  C   UNL     1      -6.089   3.574 121.268  0.00  0.00    +0.000 A 
ATOM     13  C   UNL     1      -6.620   2.815 122.297  0.00  0.00    +0.000 A 
ENDBRANCH   2   7
BRANCH   1  14
ATOM     14  N   UNL     1      -8.160   4.153 124.990  0.00  0.00    +0.000 N 
ATOM     15  H   UNL     1      -8.239   4.683 124.130  0.00  0.00    +0.000 HD
BRANCH  14  16
ATOM     16  S   UNL     1      -6.861   4.475 126.005  0.00  0.00    +0.000 S 
ATOM     17  O   UNL     1      -7.301   4.618 127.363  0.00  0.00    +0.000 OA
ATOM     18  O   UNL     1      -5.982   5.451 125.406  0.00  0.00    +0.000 OA
BRANCH  16  19
ATOM     19  N   UNL     1      -5.847   3.136 125.930  0.00  0.00    +0.000 NA
ATOM     20  H   UNL     1      -6.007   2.517 126.718  0.00  0.00    +0.000 HD
BRANCH  19  21
ATOM     21  C   UNL     1      -4.417   3.652 125.919  0.00  0.00    +0.000 C 
BRANCH  21  23
ATOM     22  C   UNL     1      -2.046   3.237 126.563  0.00  0.00    +0.000 C 
ATOM     23  C   UNL     1      -3.474   2.704 126.623  0.00  0.00    +0.000 C 
ENDBRANCH  21  23
ENDBRANCH  19  21
ENDBRANCH  16  19
ENDBRANCH  14  16
ENDBRANCH   1  14
BRANCH   3  24
ATOM     24  O   UNL     1      -8.964  -0.177 122.615  0.00  0.00    +0.000 OA
BRANCH  24  25
ATOM     25  C   UNL     1      -8.508  -1.500 122.875  0.00  0.00    +0.000 C 
BRANCH  25  26
ATOM     26  C   UNL     1      -7.050  -1.785 123.169  0.00  0.00    +0.000 C 
BRANCH  26  27
ATOM     27  O   UNL     1      -7.032  -3.039 123.883  0.00  0.00    +0.000 OA
BRANCH  27  28
ATOM     28  C   UNL     1      -7.219  -2.868 125.230  0.00  0.00    +0.000 A 
ATOM     29  N   UNL     1      -8.344  -3.400 125.733  0.00  0.00    +0.000 NA
ATOM     30  C   UNL     1      -8.527  -3.247 127.063  0.00  0.00    +0.000 A 
ATOM     31  C   UNL     1      -7.648  -2.570 127.875  0.00  0.00    +0.000 A 
ATOM     32 BR   UNL     1      -7.911  -2.411 129.726  0.00  0.00    +0.000 Br
ATOM     33  C   UNL     1      -6.552  -2.027 127.241  0.00  0.00    +0.000 A 
ATOM     34  N   UNL     1      -6.308  -2.162 125.919  0.00  0.00    +0.000 NA
ENDBRANCH  27  28
ENDBRANCH  26  27
ENDBRANCH  25  26
ENDBRANCH  24  25
ENDBRANCH   3  24
TORSDOF 11
ENDMDL
MODEL 2
REMARK VINA RESULT:      -7.5      4.262      8.510
REMARK  Name = Macitentan
REMARK  12 active torsions:
REMARK  status: ('A' for Active; 'I' for Inactive)
REMARK    1  A    between atoms: C_1  and  C_2
REMARK    2  A    between atoms: C_2  and  C_3
REMARK    3  A    between atoms: C_3  and  N_4
REMARK    4  A    between atoms: N_4  and  S_5
REMARK    5  A    between atoms: S_5  and  N_8
REMARK    6  A    between atoms: N_8  and  C_9
REMARK    7  A    between atoms: C_10  and  C_26
REMARK    8  A    between atoms: C_11  and  O_12
REMARK    9  A    between atoms: O_12  and  C_13
REMARK   10  A    between atoms: C_13  and  C_14
REMARK   11  A    between atoms: C_14  and  O_15
REMARK   12  A    between atoms: O_15  and  C_16
REMARK                            x       y       z     vdW  Elec       q    Type
REMARK                         _______ _______ _______ _____ _____    ______ ____
ROOT
ATOM      1  C   UNL     1      -8.834  -1.011 126.027  0.00  0.00    +0.000 A 
ATOM      2  C   UNL     1      -8.007  -0.482 127.026  0.00  0.00    +0.000 A 
ATOM      3  C   UNL     1      -7.835   0.915 127.038  0.00  0.00    +0.000 A 
ATOM      4  N   UNL     1      -8.431   1.693 126.115  0.00  0.00    +0.000 NA
ATOM      5  C   UNL     1      -9.172   1.075 125.177  0.00  0.00    +0.000 A 
ATOM      6  N   UNL     1      -9.398  -0.255 125.067  0.00  0.00    +0.000 NA
ENDROOT
BRANCH   2   7
ATOM      7  C   UNL     1      -7.359  -1.388 127.956  0.00  0.00    +0.000 A 
ATOM      8  C   UNL     1      -8.042  -1.913 129.065  0.00  0.00    +0.000 A 
ATOM      9  C   UNL     1      -7.375  -2.783 129.924  0.00  0.00    +0.000 A 
ATOM     10  C   UNL     1      -6.065  -3.181 129.633  0.00  0.00    +0.000 A 
ATOM     11 BR   UNL     1      -5.178  -4.397 130.770  0.00  0.00    +0.000 Br
ATOM     12  C   UNL     1      -5.376  -2.663 128.542  0.00  0.00    +0.000 A 
ATOM     13  C   UNL     1      -5.993  -1.695 127.767  0.00  0.00    +0.000 A 
ENDBRANCH   2   7
BRANCH   1  14
ATOM     14  N   UNL     1      -9.065  -2.446 125.900  0.00  0.00    +0.000 N 
ATOM     15  H   UNL     1      -8.886  -2.972 126.746  0.00  0.00    +0.000 HD
BRANCH  14  16
ATOM     16  S   UNL     1      -8.684  -3.158 124.427  0.00  0.00    +0.000 S 
ATOM     17  O   UNL     1      -9.761  -2.998 123.492  0.00  0.00    +0.000 OA
ATOM     18  O   UNL     1      -8.069  -4.447 124.633  0.00  0.00    +0.000 OA
BRANCH  16  19
ATOM     19  N   UNL     1      -7.350  -2.331 123.822  0.00  0.00    +0.000 NA
ATOM     20  H   UNL     1      -7.302  -2.414 122.812  0.00  0.00    +0.000 HD
BRANCH  19  21
ATOM     21  C   UNL     1      -6.115  -2.923 124.481  0.00  0.00    +0.000 C 
BRANCH  21  23
ATOM     22  C   UNL     1      -4.416  -4.516 123.596  0.00  0.00    +0.000 C 
ATOM     23  C   UNL     1      -4.986  -3.105 123.492  0.00  0.00    +0.000 C 
ENDBRANCH  21  23
ENDBRANCH  19  21
ENDBRANCH  16  19
ENDBRANCH  14  16
ENDBRANCH   1  14
BRANCH   3  24
ATOM     24  O   UNL     1      -7.055   1.671 127.913  0.00  0.00    +0.000 OA
BRANCH  24  25
ATOM     25  C   UNL     1      -7.347   3.060 128.009  0.00  0.00    +0.000 C 
BRANCH  25  26
ATOM     26  C   UNL     1      -8.225   3.604 129.116  0.00  0.00    +0.000 C 
BRANCH  26  27
ATOM     27  O   UNL     1      -8.159   5.041 129.000  0.00  0.00    +0.000 OA
BRANCH  27  28
ATOM     28  C   UNL     1      -9.299   5.647 129.460  0.00  0.00    +0.000 A 
ATOM     29  N   UNL     1     -10.143   4.857 130.142  0.00  0.00    +0.000 NA
ATOM     30  C   UNL     1     -11.262   5.452 130.610  0.00  0.00    +0.000 A 
ATOM     31  C   UNL     1     -11.560   6.778 130.397  0.00  0.00    +0.000 A 
ATOM     32 BR   UNL     1     -13.103   7.584 131.098  0.00  0.00    +0.000 Br
ATOM     33  C   UNL     1     -10.643   7.479 129.646  0.00  0.00    +0.000 A 
ATOM     34  N   UNL     1      -9.501   6.942 129.166  0.00  0.00    +0.000 NA
ENDBRANCH  27  28
ENDBRANCH  26  27
ENDBRANCH  25  26
ENDBRANCH  24  25
ENDBRANCH   3  24
TORSDOF 11
ENDMDL
MODEL 3
REMARK VINA RESULT:      -7.4      2.455      7.691
REMARK  Name = Macitentan
REMARK  12 active torsions:
REMARK  status: ('A' for Active; 'I' for Inactive)
REMARK    1  A    between atoms: C_1  and  C_2
REMARK    2  A    between atoms: C_2  and  C_3
REMARK    3  A    between atoms: C_3  and  N_4
REMARK    4  A    between atoms: N_4  and  S_5
REMARK    5  A    between atoms: S_5  and  N_8
REMARK    6  A    between atoms: N_8  and  C_9
REMARK    7  A    between atoms: C_10  and  C_26
REMARK    8  A    between atoms: C_11  and  O_12
REMARK    9  A    between atoms: O_12  and  C_13
REMARK   10  A    between atoms: C_13  and  C_14
REMARK   11  A    between atoms: C_14  and  O_15
REMARK   12  A    between atoms: O_15  and  C_16
REMARK                            x       y       z     vdW  Elec       q    Type
REMARK                         _______ _______ _______ _____ _____    ______ ____
ROOT
ATOM      1  C   UNL     1      -9.191  -0.413 125.561  0.00  0.00    +0.000 A 
ATOM      2  C   UNL     1      -8.240   0.251 126.346  0.00  0.00    +0.000 A 
ATOM      3  C   UNL     1      -8.157   1.649 126.201  0.00  0.00    +0.000 A 
ATOM      4  N   UNL     1      -8.951   2.302 125.331  0.00  0.00    +0.000 NA
ATOM      5  C   UNL     1      -9.801   1.559 124.598  0.00  0.00    +0.000 A 
ATOM      6  N   UNL     1      -9.959   0.216 124.651  0.00  0.00    +0.000 NA
ENDROOT
BRANCH   2   7
ATOM      7  C   UNL     1      -7.386  -0.527 127.224  0.00  0.00    +0.000 A 
ATOM      8  C   UNL     1      -7.733  -0.762 128.565  0.00  0.00    +0.000 A 
ATOM      9  C   UNL     1      -6.880  -1.519 129.364  0.00  0.00    +0.000 A 
ATOM     10  C   UNL     1      -5.734  -2.097 128.807  0.00  0.00    +0.000 A 
ATOM     11 BR   UNL     1      -4.604  -3.162 129.878  0.00  0.00    +0.000 Br
ATOM     12  C   UNL     1      -5.376  -1.866 127.484  0.00  0.00    +0.000 A 
ATOM     13  C   UNL     1      -6.152  -1.002 126.728  0.00  0.00    +0.000 A 
ENDBRANCH   2   7
BRANCH   1  14
ATOM     14  N   UNL     1      -9.350  -1.863 125.607  0.00  0.00    +0.000 N 
ATOM     15  H   UNL     1      -9.266  -2.261 126.535  0.00  0.00    +0.000 HD
BRANCH  14  16
ATOM     16  S   UNL     1      -8.752  -2.743 124.309  0.00  0.00    +0.000 S 
ATOM     17  O   UNL     1      -9.776  -2.963 123.329  0.00  0.00    +0.000 OA
ATOM     18  O   UNL     1      -7.927  -3.833 124.773  0.00  0.00    +0.000 OA
BRANCH  16  19
ATOM     19  N   UNL     1      -7.554  -1.800 123.598  0.00  0.00    +0.000 NA
ATOM     20  H   UNL     1      -7.954  -1.160 122.919  0.00  0.00    +0.000 HD
BRANCH  19  21
ATOM     21  C   UNL     1      -6.563  -2.748 122.942  0.00  0.00    +0.000 C 
BRANCH  21  23
ATOM     22  C   UNL     1      -4.530  -3.956 123.726  0.00  0.00    +0.000 C 
ATOM     23  C   UNL     1      -5.173  -2.589 123.514  0.00  0.00    +0.000 C 
ENDBRANCH  21  23
ENDBRANCH  19  21
ENDBRANCH  16  19
ENDBRANCH  14  16
ENDBRANCH   1  14
BRANCH   3  24
ATOM     24  O   UNL     1      -7.287   2.523 126.851  0.00  0.00    +0.000 OA
BRANCH  24  25
ATOM     25  C   UNL     1      -6.149   2.969 126.122  0.00  0.00    +0.000 C 
BRANCH  25  26
ATOM     26  C   UNL     1      -6.247   4.113 125.135  0.00  0.00    +0.000 C 
BRANCH  26  27
ATOM     27  O   UNL     1      -5.226   3.865 124.145  0.00  0.00    +0.000 OA
BRANCH  27  28
ATOM     28  C   UNL     1      -5.710   3.978 122.867  0.00  0.00    +0.000 A 
ATOM     29  N   UNL     1      -6.891   3.381 122.638  0.00  0.00    +0.000 NA
ATOM     30  C   UNL     1      -7.379   3.500 121.384  0.00  0.00    +0.000 A 
ATOM     31  C   UNL     1      -6.722   4.162 120.375  0.00  0.00    +0.000 A 
ATOM     32 BR   UNL     1      -7.450   4.346 118.655  0.00  0.00    +0.000 Br
ATOM     33  C   UNL     1      -5.498   4.696 120.714  0.00  0.00    +0.000 A 
ATOM     34  N   UNL     1      -4.967   4.623 121.954  0.00  0.00    +0.000 NA
ENDBRANCH  27  28
ENDBRANCH  26  27
ENDBRANCH  25  26
ENDBRANCH  24  25
ENDBRANCH   3  24
TORSDOF 11
ENDMDL
MODEL 4
REMARK VINA RESULT:      -7.3      2.182      4.893
REMARK  Name = Macitentan
REMARK  12 active torsions:
REMARK  status: ('A' for Active; 'I' for Inactive)
REMARK    1  A    between atoms: C_1  and  C_2
REMARK    2  A    between atoms: C_2  and  C_3
REMARK    3  A    between atoms: C_3  and  N_4
REMARK    4  A    between atoms: N_4  and  S_5
REMARK    5  A    between atoms: S_5  and  N_8
REMARK    6  A    between atoms: N_8  and  C_9
REMARK    7  A    between atoms: C_10  and  C_26
REMARK    8  A    between atoms: C_11  and  O_12
REMARK    9  A    between atoms: O_12  and  C_13
REMARK   10  A    between atoms: C_13  and  C_14
REMARK   11  A    between atoms: C_14  and  O_15
REMARK   12  A    between atoms: O_15  and  C_16
REMARK                            x       y       z     vdW  Elec       q    Type
REMARK                         _______ _______ _______ _____ _____    ______ ____
ROOT
ATOM      1  C   UNL     1      -8.464   0.979 124.047  0.00  0.00    +0.000 A 
ATOM      2  C   UNL     1      -8.237   2.356 123.924  0.00  0.00    +0.000 A 
ATOM      3  C   UNL     1      -8.370   3.131 125.092  0.00  0.00    +0.000 A 
ATOM      4  N   UNL     1      -8.717   2.563 126.263  0.00  0.00    +0.000 NA
ATOM      5  C   UNL     1      -8.951   1.238 126.257  0.00  0.00    +0.000 A 
ATOM      6  N   UNL     1      -8.859   0.402 125.197  0.00  0.00    +0.000 NA
ENDROOT
BRANCH   2   7
ATOM      7  C   UNL     1      -7.915   2.902 122.619  0.00  0.00    +0.000 A 
ATOM      8  C   UNL     1      -8.921   3.265 121.708  0.00  0.00    +0.000 A 
ATOM      9  C   UNL     1      -8.557   3.789 120.469  0.00  0.00    +0.000 A 
ATOM     10  C   UNL     1      -7.207   4.018 120.178  0.00  0.00    +0.000 A 
ATOM     11 BR   UNL     1      -6.719   4.772 118.520  0.00  0.00    +0.000 Br
ATOM     12  C   UNL     1      -6.203   3.656 121.070  0.00  0.00    +0.000 A 
ATOM     13  C   UNL     1      -6.558   3.011 122.242  0.00  0.00    +0.000 A 
ENDBRANCH   2   7
BRANCH   1  14
ATOM     14  N   UNL     1      -8.380   0.080 122.900  0.00  0.00    +0.000 N 
ATOM     15  H   UNL     1      -8.887   0.400 122.084  0.00  0.00    +0.000 HD
BRANCH  14  16
ATOM     16  S   UNL     1      -8.345  -1.568 123.218  0.00  0.00    +0.000 S 
ATOM     17  O   UNL     1      -7.960  -2.303 122.048  0.00  0.00    +0.000 OA
ATOM     18  O   UNL     1      -9.500  -1.959 123.989  0.00  0.00    +0.000 OA
BRANCH  16  19
ATOM     19  N   UNL     1      -7.162  -1.808 124.389  0.00  0.00    +0.000 NA
ATOM     20  H   UNL     1      -6.445  -1.092 124.330  0.00  0.00    +0.000 HD
BRANCH  19  21
ATOM     21  C   UNL     1      -6.575  -3.192 124.161  0.00  0.00    +0.000 C 
BRANCH  21  23
ATOM     22  C   UNL     1      -4.526  -4.499 123.616  0.00  0.00    +0.000 C 
ATOM     23  C   UNL     1      -5.065  -3.157 124.099  0.00  0.00    +0.000 C 
ENDBRANCH  21  23
ENDBRANCH  19  21
ENDBRANCH  16  19
ENDBRANCH  14  16
ENDBRANCH   1  14
BRANCH   3  24
ATOM     24  O   UNL     1      -8.215   4.511 125.222  0.00  0.00    +0.000 OA
BRANCH  24  25
ATOM     25  C   UNL     1      -6.940   4.984 125.642  0.00  0.00    +0.000 C 
BRANCH  25  26
ATOM     26  C   UNL     1      -5.707   4.112 125.545  0.00  0.00    +0.000 C 
BRANCH  26  27
ATOM     27  O   UNL     1      -5.381   3.740 126.901  0.00  0.00    +0.000 OA
BRANCH  27  28
ATOM     28  C   UNL     1      -5.417   2.382 127.085  0.00  0.00    +0.000 A 
ATOM     29  N   UNL     1      -5.656   1.972 128.340  0.00  0.00    +0.000 NA
ATOM     30  C   UNL     1      -5.707   0.634 128.525  0.00  0.00    +0.000 A 
ATOM     31  C   UNL     1      -5.504  -0.277 127.516  0.00  0.00    +0.000 A 
ATOM     32 BR   UNL     1      -5.624  -2.129 127.799  0.00  0.00    +0.000 Br
ATOM     33  C   UNL     1      -5.222   0.258 126.280  0.00  0.00    +0.000 A 
ATOM     34  N   UNL     1      -5.175   1.585 126.032  0.00  0.00    +0.000 NA
ENDBRANCH  27  28
ENDBRANCH  26  27
ENDBRANCH  25  26
ENDBRANCH  24  25
ENDBRANCH   3  24
TORSDOF 11
ENDMDL
MODEL 5
REMARK VINA RESULT:      -7.2      3.647      7.138
REMARK  Name = Macitentan
REMARK  12 active torsions:
REMARK  status: ('A' for Active; 'I' for Inactive)
REMARK    1  A    between atoms: C_1  and  C_2
REMARK    2  A    between atoms: C_2  and  C_3
REMARK    3  A    between atoms: C_3  and  N_4
REMARK    4  A    between atoms: N_4  and  S_5
REMARK    5  A    between atoms: S_5  and  N_8
REMARK    6  A    between atoms: N_8  and  C_9
REMARK    7  A    between atoms: C_10  and  C_26
REMARK    8  A    between atoms: C_11  and  O_12
REMARK    9  A    between atoms: O_12  and  C_13
REMARK   10  A    between atoms: C_13  and  C_14
REMARK   11  A    between atoms: C_14  and  O_15
REMARK   12  A    between atoms: O_15  and  C_16
REMARK                            x       y       z     vdW  Elec       q    Type
REMARK                         _______ _______ _______ _____ _____    ______ ____
ROOT
ATOM      1  C   UNL     1      -7.168   0.861 124.374  0.00  0.00    +0.000 A 
ATOM      2  C   UNL     1      -6.748   2.172 124.116  0.00  0.00    +0.000 A 
ATOM      3  C   UNL     1      -6.147   2.871 125.179  0.00  0.00    +0.000 A 
ATOM      4  N   UNL     1      -6.003   2.299 126.389  0.00  0.00    +0.000 NA
ATOM      5  C   UNL     1      -6.478   1.048 126.537  0.00  0.00    +0.000 A 
ATOM      6  N   UNL     1      -7.077   0.289 125.590  0.00  0.00    +0.000 NA
ENDROOT
BRANCH   2   7
ATOM      7  C   UNL     1      -6.982   2.738 122.800  0.00  0.00    +0.000 A 
ATOM      8  C   UNL     1      -8.270   3.107 122.379  0.00  0.00    +0.000 A 
ATOM      9  C   UNL     1      -8.439   3.651 121.107  0.00  0.00    +0.000 A 
ATOM     10  C   UNL     1      -7.323   3.891 120.299  0.00  0.00    +0.000 A 
ATOM     11 BR   UNL     1      -7.547   4.672 118.596  0.00  0.00    +0.000 Br
ATOM     12  C   UNL     1      -6.044   3.524 120.702  0.00  0.00    +0.000 A 
ATOM     13  C   UNL     1      -5.894   2.860 121.908  0.00  0.00    +0.000 A 
ENDBRANCH   2   7
BRANCH   1  14
ATOM     14  N   UNL     1      -7.827   0.048 123.357  0.00  0.00    +0.000 N 
ATOM     15  H   UNL     1      -7.570   0.285 122.406  0.00  0.00    +0.000 HD
BRANCH  14  16
ATOM     16  S   UNL     1      -9.410  -0.423 123.658  0.00  0.00    +0.000 S 
ATOM     17  O   UNL     1     -10.028  -0.921 122.463  0.00  0.00    +0.000 OA
ATOM     18  O   UNL     1     -10.080   0.552 124.485  0.00  0.00    +0.000 OA
BRANCH  16  19
ATOM     19  N   UNL     1      -9.335  -1.688 124.764  0.00  0.00    +0.000 NA
ATOM     20  H   UNL     1      -8.511  -1.605 125.351  0.00  0.00    +0.000 HD
BRANCH  19  21
ATOM     21  C   UNL     1      -9.313  -2.983 123.969  0.00  0.00    +0.000 C 
BRANCH  21  23
ATOM     22  C   UNL     1      -6.962  -3.155 124.777  0.00  0.00    +0.000 C 
ATOM     23  C   UNL     1      -8.240  -3.926 124.464  0.00  0.00    +0.000 C 
ENDBRANCH  21  23
ENDBRANCH  19  21
ENDBRANCH  16  19
ENDBRANCH  14  16
ENDBRANCH   1  14
BRANCH   3  24
ATOM     24  O   UNL     1      -5.668   4.181 125.175  0.00  0.00    +0.000 OA
BRANCH  24  25
ATOM     25  C   UNL     1      -5.546   4.831 126.435  0.00  0.00    +0.000 C 
BRANCH  25  26
ATOM     26  C   UNL     1      -4.191   5.087 127.060  0.00  0.00    +0.000 C 
BRANCH  26  27
ATOM     27  O   UNL     1      -4.175   6.490 127.401  0.00  0.00    +0.000 OA
BRANCH  27  28
ATOM     28  C   UNL     1      -3.691   6.706 128.665  0.00  0.00    +0.000 A 
ATOM     29  N   UNL     1      -4.503   7.389 129.489  0.00  0.00    +0.000 NA
ATOM     30  C   UNL     1      -4.037   7.593 130.741  0.00  0.00    +0.000 A 
ATOM     31  C   UNL     1      -2.803   7.165 131.169  0.00  0.00    +0.000 A 
ATOM     32 BR   UNL     1      -2.205   7.429 132.928  0.00  0.00    +0.000 Br
ATOM     33  C   UNL     1      -2.039   6.516 130.224  0.00  0.00    +0.000 A 
ATOM     34  N   UNL     1      -2.458   6.269 128.964  0.00  0.00    +0.000 NA
ENDBRANCH  27  28
ENDBRANCH  26  27
ENDBRANCH  25  26
ENDBRANCH  24  25
ENDBRANCH   3  24
TORSDOF 11
ENDMDL
MODEL 6
REMARK VINA RESULT:      -7.2      4.469      7.748
REMARK  Name = Macitentan
REMARK  12 active torsions:
REMARK  status: ('A' for Active; 'I' for Inactive)
REMARK    1  A    between atoms: C_1  and  C_2
REMARK    2  A    between atoms: C_2  and  C_3
REMARK    3  A    between atoms: C_3  and  N_4
REMARK    4  A    between atoms: N_4  and  S_5
REMARK    5  A    between atoms: S_5  and  N_8
REMARK    6  A    between atoms: N_8  and  C_9
REMARK    7  A    between atoms: C_10  and  C_26
REMARK    8  A    between atoms: C_11  and  O_12
REMARK    9  A    between atoms: O_12  and  C_13
REMARK   10  A    between atoms: C_13  and  C_14
REMARK   11  A    between atoms: C_14  and  O_15
REMARK   12  A    between atoms: O_15  and  C_16
REMARK                            x       y       z     vdW  Elec       q    Type
REMARK                         _______ _______ _______ _____ _____    ______ ____
ROOT
ATOM      1  C   UNL     1      -7.605  -1.059 127.515  0.00  0.00    +0.000 A 
ATOM      2  C   UNL     1      -7.935   0.301 127.459  0.00  0.00    +0.000 A 
ATOM      3  C   UNL     1      -8.102   0.969 128.687  0.00  0.00    +0.000 A 
ATOM      4  N   UNL     1      -7.963   0.313 129.855  0.00  0.00    +0.000 NA
ATOM      5  C   UNL     1      -7.684  -1.002 129.790  0.00  0.00    +0.000 A 
ATOM      6  N   UNL     1      -7.510  -1.742 128.671  0.00  0.00    +0.000 NA
ENDROOT
BRANCH   2   7
ATOM      7  C   UNL     1      -8.117   0.928 126.162  0.00  0.00    +0.000 A 
ATOM      8  C   UNL     1      -9.395   1.125 125.616  0.00  0.00    +0.000 A 
ATOM      9  C   UNL     1      -9.514   1.736 124.369  0.00  0.00    +0.000 A 
ATOM     10  C   UNL     1      -8.371   2.211 123.715  0.00  0.00    +0.000 A 
ATOM     11 BR   UNL     1      -8.537   3.080 122.049  0.00  0.00    +0.000 Br
ATOM     12  C   UNL     1      -7.100   2.015 124.242  0.00  0.00    +0.000 A 
ATOM     13  C   UNL     1      -6.974   1.288 125.414  0.00  0.00    +0.000 A 
ENDBRANCH   2   7
BRANCH   1  14
ATOM     14  N   UNL     1      -7.432  -1.860 126.307  0.00  0.00    +0.000 N 
ATOM     15  H   UNL     1      -6.899  -1.401 125.578  0.00  0.00    +0.000 HD
BRANCH  14  16
ATOM     16  S   UNL     1      -8.709  -2.851 125.854  0.00  0.00    +0.000 S 
ATOM     17  O   UNL     1      -9.917  -2.091 125.713  0.00  0.00    +0.000 OA
ATOM     18  O   UNL     1      -8.692  -4.077 126.616  0.00  0.00    +0.000 OA
BRANCH  16  19
ATOM     19  N   UNL     1      -8.318  -3.482 124.345  0.00  0.00    +0.000 NA
ATOM     20  H   UNL     1      -7.320  -3.416 124.174  0.00  0.00    +0.000 HD
BRANCH  19  21
ATOM     21  C   UNL     1      -9.106  -2.696 123.309  0.00  0.00    +0.000 C 
BRANCH  21  23
ATOM     22  C   UNL     1      -6.835  -1.879 122.691  0.00  0.00    +0.000 C 
ATOM     23  C   UNL     1      -8.315  -1.523 122.776  0.00  0.00    +0.000 C 
ENDBRANCH  21  23
ENDBRANCH  19  21
ENDBRANCH  16  19
ENDBRANCH  14  16
ENDBRANCH   1  14
BRANCH   3  24
ATOM     24  O   UNL     1      -8.447   2.304 128.891  0.00  0.00    +0.000 OA
BRANCH  24  25
ATOM     25  C   UNL     1      -8.887   2.669 130.195  0.00  0.00    +0.000 C 
BRANCH  25  26
ATOM     26  C   UNL     1      -9.448   4.047 130.477  0.00  0.00    +0.000 C 
BRANCH  26  27
ATOM     27  O   UNL     1      -9.323   4.783 129.242  0.00  0.00    +0.000 OA
BRANCH  27  28
ATOM     28  C   UNL     1     -10.211   5.825 129.172  0.00  0.00    +0.000 A 
ATOM     29  N   UNL     1      -9.672   7.032 128.936  0.00  0.00    +0.000 NA
ATOM     30  C   UNL     1     -10.543   8.061 128.852  0.00  0.00    +0.000 A 
ATOM     31  C   UNL     1     -11.900   7.920 129.019  0.00  0.00    +0.000 A 
ATOM     32 BR   UNL     1     -13.087   9.365 128.854  0.00  0.00    +0.000 Br
ATOM     33  C   UNL     1     -12.334   6.644 129.302  0.00  0.00    +0.000 A 
ATOM     34  N   UNL     1     -11.513   5.575 129.382  0.00  0.00    +0.000 NA
ENDBRANCH  27  28
ENDBRANCH  26  27
ENDBRANCH  25  26
ENDBRANCH  24  25
ENDBRANCH   3  24
TORSDOF 11
ENDMDL
MODEL 7
REMARK VINA RESULT:      -7.2      3.712      7.634
REMARK  Name = Macitentan
REMARK  12 active torsions:
REMARK  status: ('A' for Active; 'I' for Inactive)
REMARK    1  A    between atoms: C_1  and  C_2
REMARK    2  A    between atoms: C_2  and  C_3
REMARK    3  A    between atoms: C_3  and  N_4
REMARK    4  A    between atoms: N_4  and  S_5
REMARK    5  A    between atoms: S_5  and  N_8
REMARK    6  A    between atoms: N_8  and  C_9
REMARK    7  A    between atoms: C_10  and  C_26
REMARK    8  A    between atoms: C_11  and  O_12
REMARK    9  A    between atoms: O_12  and  C_13
REMARK   10  A    between atoms: C_13  and  C_14
REMARK   11  A    between atoms: C_14  and  O_15
REMARK   12  A    between atoms: O_15  and  C_16
REMARK                            x       y       z     vdW  Elec       q    Type
REMARK                         _______ _______ _______ _____ _____    ______ ____
ROOT
ATOM      1  C   UNL     1      -7.069   1.519 123.938  0.00  0.00    +0.000 A 
ATOM      2  C   UNL     1      -6.553   1.615 125.237  0.00  0.00    +0.000 A 
ATOM      3  C   UNL     1      -5.918   2.823 125.584  0.00  0.00    +0.000 A 
ATOM      4  N   UNL     1      -5.804   3.825 124.692  0.00  0.00    +0.000 NA
ATOM      5  C   UNL     1      -6.300   3.609 123.459  0.00  0.00    +0.000 A 
ATOM      6  N   UNL     1      -6.921   2.491 123.018  0.00  0.00    +0.000 NA
ENDROOT
BRANCH   2   7
ATOM      7  C   UNL     1      -6.671   0.474 126.126  0.00  0.00    +0.000 A 
ATOM      8  C   UNL     1      -5.836  -0.648 125.993  0.00  0.00    +0.000 A 
ATOM      9  C   UNL     1      -5.988  -1.715 126.876  0.00  0.00    +0.000 A 
ATOM     10  C   UNL     1      -6.911  -1.626 127.924  0.00  0.00    +0.000 A 
ATOM     11 BR   UNL     1      -7.082  -3.051 129.148  0.00  0.00    +0.000 Br
ATOM     12  C   UNL     1      -7.746  -0.523 128.062  0.00  0.00    +0.000 A 
ATOM     13  C   UNL     1      -7.690   0.475 127.104  0.00  0.00    +0.000 A 
ENDBRANCH   2   7
BRANCH   1  14
ATOM     14  N   UNL     1      -7.725   0.307 123.458  0.00  0.00    +0.000 N 
ATOM     15  H   UNL     1      -7.201  -0.197 122.752  0.00  0.00    +0.000 HD
BRANCH  14  16
ATOM     16  S   UNL     1      -9.399   0.339 123.333  0.00  0.00    +0.000 S 
ATOM     17  O   UNL     1      -9.812   1.165 122.236  0.00  0.00    +0.000 OA
ATOM     18  O   UNL     1     -10.000   0.487 124.637  0.00  0.00    +0.000 OA
BRANCH  16  19
ATOM     19  N   UNL     1      -9.887  -1.237 123.004  0.00  0.00    +0.000 NA
ATOM     20  H   UNL     1     -10.625  -1.526 123.638  0.00  0.00    +0.000 HD
BRANCH  19  21
ATOM     21  C   UNL     1      -8.664  -2.128 123.143  0.00  0.00    +0.000 C 
BRANCH  21  23
ATOM     22  C   UNL     1      -9.289  -2.904 125.426  0.00  0.00    +0.000 C 
ATOM     23  C   UNL     1      -8.947  -3.337 124.004  0.00  0.00    +0.000 C 
ENDBRANCH  21  23
ENDBRANCH  19  21
ENDBRANCH  16  19
ENDBRANCH  14  16
ENDBRANCH   1  14
BRANCH   3  24
ATOM     24  O   UNL     1      -5.315   3.151 126.797  0.00  0.00    +0.000 OA
BRANCH  24  25
ATOM     25  C   UNL     1      -5.996   4.083 127.630  0.00  0.00    +0.000 C 
BRANCH  25  26
ATOM     26  C   UNL     1      -7.503   4.058 127.770  0.00  0.00    +0.000 C 
BRANCH  26  27
ATOM     27  O   UNL     1      -7.764   3.887 129.179  0.00  0.00    +0.000 OA
BRANCH  27  28
ATOM     28  C   UNL     1      -8.854   4.610 129.592  0.00  0.00    +0.000 A 
ATOM     29  N   UNL     1      -8.689   5.942 129.625  0.00  0.00    +0.000 NA
ATOM     30  C   UNL     1      -9.764   6.660 130.018  0.00  0.00    +0.000 A 
ATOM     31  C   UNL     1     -10.958   6.092 130.392  0.00  0.00    +0.000 A 
ATOM     32 BR   UNL     1     -12.446   7.122 130.892  0.00  0.00    +0.000 Br
ATOM     33  C   UNL     1     -10.996   4.716 130.362  0.00  0.00    +0.000 A 
ATOM     34  N   UNL     1      -9.960   3.947 129.963  0.00  0.00    +0.000 NA
ENDBRANCH  27  28
ENDBRANCH  26  27
ENDBRANCH  25  26
ENDBRANCH  24  25
ENDBRANCH   3  24
TORSDOF 11
ENDMDL
MODEL 8
REMARK VINA RESULT:      -7.1      3.279      7.745
REMARK  Name = Macitentan
REMARK  12 active torsions:
REMARK  status: ('A' for Active; 'I' for Inactive)
REMARK    1  A    between atoms: C_1  and  C_2
REMARK    2  A    between atoms: C_2  and  C_3
REMARK    3  A    between atoms: C_3  and  N_4
REMARK    4  A    between atoms: N_4  and  S_5
REMARK    5  A    between atoms: S_5  and  N_8
REMARK    6  A    between atoms: N_8  and  C_9
REMARK    7  A    between atoms: C_10  and  C_26
REMARK    8  A    between atoms: C_11  and  O_12
REMARK    9  A    between atoms: O_12  and  C_13
REMARK   10  A    between atoms: C_13  and  C_14
REMARK   11  A    between atoms: C_14  and  O_15
REMARK   12  A    between atoms: O_15  and  C_16
REMARK                            x       y       z     vdW  Elec       q    Type
REMARK                         _______ _______ _______ _____ _____    ______ ____
ROOT
ATOM      1  C   UNL     1      -7.625   0.137 125.517  0.00  0.00    +0.000 A 
ATOM      2  C   UNL     1      -7.750   0.196 126.911  0.00  0.00    +0.000 A 
ATOM      3  C   UNL     1      -8.383   1.333 127.447  0.00  0.00    +0.000 A 
ATOM      4  N   UNL     1      -8.828   2.319 126.646  0.00  0.00    +0.000 NA
ATOM      5  C   UNL     1      -8.619   2.177 125.324  0.00  0.00    +0.000 A 
ATOM      6  N   UNL     1      -8.019   1.134 124.704  0.00  0.00    +0.000 NA
ENDROOT
BRANCH   2   7
ATOM      7  C   UNL     1      -7.201  -0.882 127.713  0.00  0.00    +0.000 A 
ATOM      8  C   UNL     1      -5.862  -0.871 128.139  0.00  0.00    +0.000 A 
ATOM      9  C   UNL     1      -5.387  -1.929 128.910  0.00  0.00    +0.000 A 
ATOM     10  C   UNL     1      -6.261  -2.945 129.313  0.00  0.00    +0.000 A 
ATOM     11 BR   UNL     1      -5.628  -4.352 130.398  0.00  0.00    +0.000 Br
ATOM     12  C   UNL     1      -7.586  -2.970 128.892  0.00  0.00    +0.000 A 
ATOM     13  C   UNL     1      -8.021  -1.992 128.014  0.00  0.00    +0.000 A 
ENDBRANCH   2   7
BRANCH   1  14
ATOM     14  N   UNL     1      -6.964  -0.980 124.850  0.00  0.00    +0.000 N 
ATOM     15  H   UNL     1      -6.048  -0.759 124.478  0.00  0.00    +0.000 HD
BRANCH  14  16
ATOM     16  S   UNL     1      -7.936  -2.043 123.988  0.00  0.00    +0.000 S 
ATOM     17  O   UNL     1      -7.916  -1.730 122.589  0.00  0.00    +0.000 OA
ATOM     18  O   UNL     1      -9.185  -2.260 124.679  0.00  0.00    +0.000 OA
BRANCH  16  19
ATOM     19  N   UNL     1      -7.268  -3.574 124.182  0.00  0.00    +0.000 NA
ATOM     20  H   UNL     1      -7.796  -4.116 124.859  0.00  0.00    +0.000 HD
BRANCH  19  21
ATOM     21  C   UNL     1      -5.829  -3.385 124.635  0.00  0.00    +0.000 C 
BRANCH  21  23
ATOM     22  C   UNL     1      -4.201  -4.861 123.461  0.00  0.00    +0.000 C 
ATOM     23  C   UNL     1      -4.860  -3.486 123.478  0.00  0.00    +0.000 C 
ENDBRANCH  21  23
ENDBRANCH  19  21
ENDBRANCH  16  19
ENDBRANCH  14  16
ENDBRANCH   1  14
BRANCH   3  24
ATOM     24  O   UNL     1      -8.608   1.629 128.791  0.00  0.00    +0.000 OA
BRANCH  24  25
ATOM     25  C   UNL     1      -8.649   3.005 129.155  0.00  0.00    +0.000 C 
BRANCH  25  26
ATOM     26  C   UNL     1      -7.402   3.737 129.602  0.00  0.00    +0.000 C 
BRANCH  26  27
ATOM     27  O   UNL     1      -6.995   4.542 128.475  0.00  0.00    +0.000 OA
BRANCH  27  28
ATOM     28  C   UNL     1      -5.756   4.183 128.008  0.00  0.00    +0.000 A 
ATOM     29  N   UNL     1      -4.928   5.200 127.719  0.00  0.00    +0.000 NA
ATOM     30  C   UNL     1      -3.702   4.852 127.271  0.00  0.00    +0.000 A 
ATOM     31  C   UNL     1      -3.304   3.549 127.086  0.00  0.00    +0.000 A 
ATOM     32 BR   UNL     1      -1.577   3.101 126.503  0.00  0.00    +0.000 Br
ATOM     33  C   UNL     1      -4.252   2.593 127.372  0.00  0.00    +0.000 A 
ATOM     34  N   UNL     1      -5.487   2.879 127.838  0.00  0.00    +0.000 NA
ENDBRANCH  27  28
ENDBRANCH  26  27
ENDBRANCH  25  26
ENDBRANCH  24  25
ENDBRANCH   3  24
TORSDOF 11
ENDMDL
MODEL 9
REMARK VINA RESULT:      -7.0      3.578      8.086
REMARK  Name = Macitentan
REMARK  12 active torsions:
REMARK  status: ('A' for Active; 'I' for Inactive)
REMARK    1  A    between atoms: C_1  and  C_2
REMARK    2  A    between atoms: C_2  and  C_3
REMARK    3  A    between atoms: C_3  and  N_4
REMARK    4  A    between atoms: N_4  and  S_5
REMARK    5  A    between atoms: S_5  and  N_8
REMARK    6  A    between atoms: N_8  and  C_9
REMARK    7  A    between atoms: C_10  and  C_26
REMARK    8  A    between atoms: C_11  and  O_12
REMARK    9  A    between atoms: O_12  and  C_13
REMARK   10  A    between atoms: C_13  and  C_14
REMARK   11  A    between atoms: C_14  and  O_15
REMARK   12  A    between atoms: O_15  and  C_16
REMARK                            x       y       z     vdW  Elec       q    Type
REMARK                         _______ _______ _______ _____ _____    ______ ____
ROOT
ATOM      1  C   UNL     1      -8.268   0.007 125.522  0.00  0.00    +0.000 A 
ATOM      2  C   UNL     1      -7.224   0.320 126.402  0.00  0.00    +0.000 A 
ATOM      3  C   UNL     1      -6.609   1.576 126.240  0.00  0.00    +0.000 A 
ATOM      4  N   UNL     1      -7.005   2.420 125.268  0.00  0.00    +0.000 NA
ATOM      5  C   UNL     1      -7.990   1.999 124.454  0.00  0.00    +0.000 A 
ATOM      6  N   UNL     1      -8.645   0.816 124.515  0.00  0.00    +0.000 NA
ENDROOT
BRANCH   2   7
ATOM      7  C   UNL     1      -6.820  -0.661 127.392  0.00  0.00    +0.000 A 
ATOM      8  C   UNL     1      -7.526  -0.821 128.595  0.00  0.00    +0.000 A 
ATOM      9  C   UNL     1      -7.099  -1.782 129.510  0.00  0.00    +0.000 A 
ATOM     10  C   UNL     1      -6.026  -2.621 129.189  0.00  0.00    +0.000 A 
ATOM     11 BR   UNL     1      -5.479  -3.953 130.407  0.00  0.00    +0.000 Br
ATOM     12  C   UNL     1      -5.316  -2.467 128.004  0.00  0.00    +0.000 A 
ATOM     13  C   UNL     1      -5.655  -1.425 127.158  0.00  0.00    +0.000 A 
ENDBRANCH   2   7
BRANCH   1  14
ATOM     14  N   UNL     1      -8.963  -1.275 125.578  0.00  0.00    +0.000 N 
ATOM     15  H   UNL     1      -9.043  -1.664 126.510  0.00  0.00    +0.000 HD
BRANCH  14  16
ATOM     16  S   UNL     1      -8.730  -2.331 124.294  0.00  0.00    +0.000 S 
ATOM     17  O   UNL     1      -9.645  -2.045 123.227  0.00  0.00    +0.000 OA
ATOM     18  O   UNL     1      -8.555  -3.681 124.775  0.00  0.00    +0.000 OA
BRANCH  16  19
ATOM     19  N   UNL     1      -7.171  -2.059 123.722  0.00  0.00    +0.000 NA
ATOM     20  H   UNL     1      -7.177  -1.902 122.720  0.00  0.00    +0.000 HD
BRANCH  19  21
ATOM     21  C   UNL     1      -6.339  -3.280 124.082  0.00  0.00    +0.000 C 
BRANCH  21  23
ATOM     22  C   UNL     1      -4.235  -4.525 123.603  0.00  0.00    +0.000 C 
ATOM     23  C   UNL     1      -4.924  -3.165 123.563  0.00  0.00    +0.000 C 
ENDBRANCH  21  23
ENDBRANCH  19  21
ENDBRANCH  16  19
ENDBRANCH  14  16
ENDBRANCH   1  14
BRANCH   3  24
ATOM     24  O   UNL     1      -5.547   2.106 126.972  0.00  0.00    +0.000 OA
BRANCH  24  25
ATOM     25  C   UNL     1      -4.258   2.067 126.369  0.00  0.00    +0.000 C 
BRANCH  25  26
ATOM     26  C   UNL     1      -3.277   3.207 126.537  0.00  0.00    +0.000 C 
BRANCH  26  27
ATOM     27  O   UNL     1      -4.080   4.400 126.667  0.00  0.00    +0.000 OA
BRANCH  27  28
ATOM     28  C   UNL     1      -3.789   5.095 127.813  0.00  0.00    +0.000 A 
ATOM     29  N   UNL     1      -4.023   6.416 127.766  0.00  0.00    +0.000 NA
ATOM     30  C   UNL     1      -3.751   7.104 128.897  0.00  0.00    +0.000 A 
ATOM     31  C   UNL     1      -3.240   6.522 130.033  0.00  0.00    +0.000 A 
ATOM     32 BR   UNL     1      -2.913   7.500 131.601  0.00  0.00    +0.000 Br
ATOM     33  C   UNL     1      -2.997   5.169 129.949  0.00  0.00    +0.000 A 
ATOM     34  N   UNL     1      -3.265   4.427 128.852  0.00  0.00    +0.000 NA
ENDBRANCH  27  28
ENDBRANCH  26  27
ENDBRANCH  25  26
ENDBRANCH  24  25
ENDBRANCH   3  24
TORSDOF 11
ENDMDL
