MODEL 1
REMARK VINA RESULT:      -5.9      0.000      0.000
REMARK  Name = Mafenide
REMARK  4 active torsions:
REMARK  status: ('A' for Active; 'I' for Inactive)
REMARK    1  A    between atoms: N_1  and  C_2
REMARK    2  A    between atoms: C_2  and  C_3
REMARK    3  A    between atoms: C_6  and  S_9
REMARK    4  A    between atoms: S_9  and  N_10
REMARK                            x       y       z     vdW  Elec       q    Type
REMARK                         _______ _______ _______ _____ _____    ______ ____
ROOT
ATOM      1  C   UNL     1      -6.328   4.245 120.481  0.00  0.00    +0.000 A 
ATOM      2  C   UNL     1      -7.695   3.987 120.296  0.00  0.00    +0.000 A 
ATOM      3  C   UNL     1      -8.444   3.395 121.317  0.00  0.00    +0.000 A 
ATOM      4  C   UNL     1      -7.805   2.981 122.491  0.00  0.00    +0.000 A 
ATOM      5  C   UNL     1      -6.438   3.190 122.668  0.00  0.00    +0.000 A 
ATOM      6  C   UNL     1      -5.703   3.812 121.661  0.00  0.00    +0.000 A 
ENDROOT
BRANCH   4   7
ATOM      7  S   UNL     1      -8.714   2.063 123.708  0.00  0.00    +0.000 S 
ATOM      8  O   UNL     1      -9.929   1.597 123.075  0.00  0.00    +0.000 OA
ATOM      9  O   UNL     1      -7.802   1.182 124.393  0.00  0.00    +0.000 OA
BRANCH   7  10
ATOM     10  N   UNL     1      -9.147   3.242 124.800  0.00  0.00    +0.000 NA
ATOM     11  H   UNL     1      -8.410   3.588 125.406  0.00  0.00    +0.000 HD
ATOM     12  H   UNL     1     -10.115   3.237 125.107  0.00  0.00    +0.000 HD
ENDBRANCH   7  10
ENDBRANCH   4   7
BRANCH   1  13
ATOM     13  C   UNL     1      -5.566   5.125 119.521  0.00  0.00    +0.000 C 
BRANCH  13  14
ATOM     14  N   UNL     1      -4.796   6.101 120.288  0.00  0.00    +0.000 NA
ATOM     15  H   UNL     1      -5.423   6.704 120.813  0.00  0.00    +0.000 HD
ATOM     16  H   UNL     1      -4.289   6.704 119.641  0.00  0.00    +0.000 HD
ENDBRANCH  13  14
ENDBRANCH   1  13
TORSDOF 4
ENDMDL
MODEL 2
REMARK VINA RESULT:      -5.6      9.674     10.782
REMARK  Name = Mafenide
REMARK  4 active torsions:
REMARK  status: ('A' for Active; 'I' for Inactive)
REMARK    1  A    between atoms: N_1  and  C_2
REMARK    2  A    between atoms: C_2  and  C_3
REMARK    3  A    between atoms: C_6  and  S_9
REMARK    4  A    between atoms: S_9  and  N_10
REMARK                            x       y       z     vdW  Elec       q    Type
REMARK                         _______ _______ _______ _____ _____    ______ ____
ROOT
ATOM      1  C   UNL     1      -9.962   6.304 131.802  0.00  0.00    +0.000 A 
ATOM      2  C   UNL     1      -9.300   6.817 130.677  0.00  0.00    +0.000 A 
ATOM      3  C   UNL     1     -10.019   7.481 129.679  0.00  0.00    +0.000 A 
ATOM      4  C   UNL     1     -11.414   7.554 129.765  0.00  0.00    +0.000 A 
ATOM      5  C   UNL     1     -12.088   7.007 130.856  0.00  0.00    +0.000 A 
ATOM      6  C   UNL     1     -11.363   6.377 131.866  0.00  0.00    +0.000 A 
ENDROOT
BRANCH   4   7
ATOM      7  S   UNL     1     -12.342   8.229 128.412  0.00  0.00    +0.000 S 
ATOM      8  O   UNL     1     -11.427   8.395 127.303  0.00  0.00    +0.000 OA
ATOM      9  O   UNL     1     -13.582   7.503 128.300  0.00  0.00    +0.000 OA
BRANCH   7  10
ATOM     10  N   UNL     1     -12.730   9.751 128.964  0.00  0.00    +0.000 NA
ATOM     11  H   UNL     1     -12.020  10.228 129.509  0.00  0.00    +0.000 HD
ATOM     12  H   UNL     1     -13.717   9.934 129.119  0.00  0.00    +0.000 HD
ENDBRANCH   7  10
ENDBRANCH   4   7
BRANCH   1  13
ATOM     13  C   UNL     1      -9.192   5.838 133.013  0.00  0.00    +0.000 C 
BRANCH  13  14
ATOM     14  N   UNL     1      -9.807   4.614 133.520  0.00  0.00    +0.000 NA
ATOM     15  H   UNL     1      -9.101   4.019 133.944  0.00  0.00    +0.000 HD
ATOM     16  H   UNL     1     -10.194   4.089 132.735  0.00  0.00    +0.000 HD
ENDBRANCH  13  14
ENDBRANCH   1  13
TORSDOF 4
ENDMDL
MODEL 3
REMARK VINA RESULT:      -5.5      9.771     10.446
REMARK  Name = Mafenide
REMARK  4 active torsions:
REMARK  status: ('A' for Active; 'I' for Inactive)
REMARK    1  A    between atoms: N_1  and  C_2
REMARK    2  A    between atoms: C_2  and  C_3
REMARK    3  A    between atoms: C_6  and  S_9
REMARK    4  A    between atoms: S_9  and  N_10
REMARK                            x       y       z     vdW  Elec       q    Type
REMARK                         _______ _______ _______ _____ _____    ______ ____
ROOT
ATOM      1  C   UNL     1     -12.308   8.384 129.301  0.00  0.00    +0.000 A 
ATOM      2  C   UNL     1     -10.967   8.320 128.893  0.00  0.00    +0.000 A 
ATOM      3  C   UNL     1     -10.060   7.506 129.579  0.00  0.00    +0.000 A 
ATOM      4  C   UNL     1     -10.476   6.823 130.727  0.00  0.00    +0.000 A 
ATOM      5  C   UNL     1     -11.796   6.915 131.170  0.00  0.00    +0.000 A 
ATOM      6  C   UNL     1     -12.704   7.700 130.462  0.00  0.00    +0.000 A 
ENDROOT
BRANCH   4   7
ATOM      7  S   UNL     1      -9.286   5.941 131.703  0.00  0.00    +0.000 S 
ATOM      8  O   UNL     1      -9.484   4.530 131.452  0.00  0.00    +0.000 OA
ATOM      9  O   UNL     1      -8.006   6.588 131.559  0.00  0.00    +0.000 OA
BRANCH   7  10
ATOM     10  N   UNL     1      -9.799   6.244 133.257  0.00  0.00    +0.000 NA
ATOM     11  H   UNL     1     -10.589   6.870 133.358  0.00  0.00    +0.000 HD
ATOM     12  H   UNL     1      -9.093   6.173 133.984  0.00  0.00    +0.000 HD
ENDBRANCH   7  10
ENDBRANCH   4   7
BRANCH   1  13
ATOM     13  C   UNL     1     -13.358   9.023 128.427  0.00  0.00    +0.000 C 
BRANCH  13  14
ATOM     14  N   UNL     1     -13.477  10.433 128.788  0.00  0.00    +0.000 NA
ATOM     15  H   UNL     1     -14.374  10.604 129.234  0.00  0.00    +0.000 HD
ATOM     16  H   UNL     1     -13.465  10.995 127.937  0.00  0.00    +0.000 HD
ENDBRANCH  13  14
ENDBRANCH   1  13
TORSDOF 4
ENDMDL
MODEL 4
REMARK VINA RESULT:      -5.4      8.934     10.013
REMARK  Name = Mafenide
REMARK  4 active torsions:
REMARK  status: ('A' for Active; 'I' for Inactive)
REMARK    1  A    between atoms: N_1  and  C_2
REMARK    2  A    between atoms: C_2  and  C_3
REMARK    3  A    between atoms: C_6  and  S_9
REMARK    4  A    between atoms: S_9  and  N_10
REMARK                            x       y       z     vdW  Elec       q    Type
REMARK                         _______ _______ _______ _____ _____    ______ ____
ROOT
ATOM      1  C   UNL     1     -12.648   9.051 129.117  0.00  0.00    +0.000 A 
ATOM      2  C   UNL     1     -11.674   8.650 128.190  0.00  0.00    +0.000 A 
ATOM      3  C   UNL     1     -10.922   7.493 128.414  0.00  0.00    +0.000 A 
ATOM      4  C   UNL     1     -11.084   6.784 129.609  0.00  0.00    +0.000 A 
ATOM      5  C   UNL     1     -12.017   7.199 130.560  0.00  0.00    +0.000 A 
ATOM      6  C   UNL     1     -12.788   8.333 130.316  0.00  0.00    +0.000 A 
ENDROOT
BRANCH   4   7
ATOM      7  S   UNL     1     -10.003   5.427 129.978  0.00  0.00    +0.000 S 
ATOM      8  O   UNL     1      -9.157   5.837 131.077  0.00  0.00    +0.000 OA
ATOM      9  O   UNL     1     -10.782   4.214 130.002  0.00  0.00    +0.000 OA
BRANCH   7  10
ATOM     10  N   UNL     1      -9.045   5.349 128.618  0.00  0.00    +0.000 NA
ATOM     11  H   UNL     1      -9.489   5.009 127.772  0.00  0.00    +0.000 HD
ATOM     12  H   UNL     1      -8.051   5.214 128.777  0.00  0.00    +0.000 HD
ENDBRANCH   7  10
ENDBRANCH   4   7
BRANCH   1  13
ATOM     13  C   UNL     1     -13.655  10.121 128.775  0.00  0.00    +0.000 C 
BRANCH  13  14
ATOM     14  N   UNL     1     -13.237  11.376 129.393  0.00  0.00    +0.000 NA
ATOM     15  H   UNL     1     -13.995  12.051 129.359  0.00  0.00    +0.000 HD
ATOM     16  H   UNL     1     -12.471  11.774 128.849  0.00  0.00    +0.000 HD
ENDBRANCH  13  14
ENDBRANCH   1  13
TORSDOF 4
ENDMDL
MODEL 5
REMARK VINA RESULT:      -5.4      9.179     10.221
REMARK  Name = Mafenide
REMARK  4 active torsions:
REMARK  status: ('A' for Active; 'I' for Inactive)
REMARK    1  A    between atoms: N_1  and  C_2
REMARK    2  A    between atoms: C_2  and  C_3
REMARK    3  A    between atoms: C_6  and  S_9
REMARK    4  A    between atoms: S_9  and  N_10
REMARK                            x       y       z     vdW  Elec       q    Type
REMARK                         _______ _______ _______ _____ _____    ______ ____
ROOT
ATOM      1  C   UNL     1     -12.458   8.406 128.970  0.00  0.00    +0.000 A 
ATOM      2  C   UNL     1     -12.713   7.625 130.107  0.00  0.00    +0.000 A 
ATOM      3  C   UNL     1     -11.657   7.032 130.806  0.00  0.00    +0.000 A 
ATOM      4  C   UNL     1     -10.352   7.150 130.315  0.00  0.00    +0.000 A 
ATOM      5  C   UNL     1     -10.091   7.887 129.160  0.00  0.00    +0.000 A 
ATOM      6  C   UNL     1     -11.143   8.504 128.487  0.00  0.00    +0.000 A 
ENDROOT
BRANCH   4   7
ATOM      7  S   UNL     1      -9.038   6.247 131.093  0.00  0.00    +0.000 S 
ATOM      8  O   UNL     1      -9.216   6.372 132.523  0.00  0.00    +0.000 OA
ATOM      9  O   UNL     1      -8.903   4.974 130.430  0.00  0.00    +0.000 OA
BRANCH   7  10
ATOM     10  N   UNL     1      -7.694   7.141 130.682  0.00  0.00    +0.000 NA
ATOM     11  H   UNL     1      -6.845   6.618 130.494  0.00  0.00    +0.000 HD
ATOM     12  H   UNL     1      -7.654   8.086 131.051  0.00  0.00    +0.000 HD
ENDBRANCH   7  10
ENDBRANCH   4   7
BRANCH   1  13
ATOM     13  C   UNL     1     -13.533   9.277 128.367  0.00  0.00    +0.000 C 
BRANCH  13  14
ATOM     14  N   UNL     1     -13.437  10.613 128.948  0.00  0.00    +0.000 NA
ATOM     15  H   UNL     1     -13.122  11.276 128.246  0.00  0.00    +0.000 HD
ATOM     16  H   UNL     1     -12.725  10.606 129.678  0.00  0.00    +0.000 HD
ENDBRANCH  13  14
ENDBRANCH   1  13
TORSDOF 4
ENDMDL
MODEL 6
REMARK VINA RESULT:      -5.3      5.910      6.988
REMARK  Name = Mafenide
REMARK  4 active torsions:
REMARK  status: ('A' for Active; 'I' for Inactive)
REMARK    1  A    between atoms: N_1  and  C_2
REMARK    2  A    between atoms: C_2  and  C_3
REMARK    3  A    between atoms: C_6  and  S_9
REMARK    4  A    between atoms: S_9  and  N_10
REMARK                            x       y       z     vdW  Elec       q    Type
REMARK                         _______ _______ _______ _____ _____    ______ ____
ROOT
ATOM      1  C   UNL     1      -5.028  -3.339 123.722  0.00  0.00    +0.000 A 
ATOM      2  C   UNL     1      -5.861  -3.328 124.850  0.00  0.00    +0.000 A 
ATOM      3  C   UNL     1      -7.069  -2.625 124.827  0.00  0.00    +0.000 A 
ATOM      4  C   UNL     1      -7.402  -1.861 123.704  0.00  0.00    +0.000 A 
ATOM      5  C   UNL     1      -6.560  -1.827 122.592  0.00  0.00    +0.000 A 
ATOM      6  C   UNL     1      -5.374  -2.558 122.608  0.00  0.00    +0.000 A 
ENDROOT
BRANCH   4   7
ATOM      7  S   UNL     1      -8.840  -0.822 123.744  0.00  0.00    +0.000 S 
ATOM      8  O   UNL     1      -8.382   0.549 123.684  0.00  0.00    +0.000 OA
ATOM      9  O   UNL     1      -9.820  -1.359 122.834  0.00  0.00    +0.000 OA
BRANCH   7  10
ATOM     10  N   UNL     1      -9.428  -1.079 125.281  0.00  0.00    +0.000 NA
ATOM     11  H   UNL     1     -10.427  -1.233 125.361  0.00  0.00    +0.000 HD
ATOM     12  H   UNL     1      -8.903  -0.655 126.039  0.00  0.00    +0.000 HD
ENDBRANCH   7  10
ENDBRANCH   4   7
BRANCH   1  13
ATOM     13  C   UNL     1      -3.872  -4.303 123.617  0.00  0.00    +0.000 C 
BRANCH  13  14
ATOM     14  N   UNL     1      -4.355  -5.557 123.045  0.00  0.00    +0.000 NA
ATOM     15  H   UNL     1      -4.632  -6.194 123.787  0.00  0.00    +0.000 HD
ATOM     16  H   UNL     1      -3.589  -6.010 122.547  0.00  0.00    +0.000 HD
ENDBRANCH  13  14
ENDBRANCH   1  13
TORSDOF 4
ENDMDL
MODEL 7
REMARK VINA RESULT:      -5.0      9.674     10.566
REMARK  Name = Mafenide
REMARK  4 active torsions:
REMARK  status: ('A' for Active; 'I' for Inactive)
REMARK    1  A    between atoms: N_1  and  C_2
REMARK    2  A    between atoms: C_2  and  C_3
REMARK    3  A    between atoms: C_6  and  S_9
REMARK    4  A    between atoms: S_9  and  N_10
REMARK                            x       y       z     vdW  Elec       q    Type
REMARK                         _______ _______ _______ _____ _____    ______ ____
ROOT
ATOM      1  C   UNL     1     -11.039   7.424 130.095  0.00  0.00    +0.000 A 
ATOM      2  C   UNL     1     -11.688   6.812 131.177  0.00  0.00    +0.000 A 
ATOM      3  C   UNL     1     -10.945   6.184 132.181  0.00  0.00    +0.000 A 
ATOM      4  C   UNL     1      -9.554   6.092 132.056  0.00  0.00    +0.000 A 
ATOM      5  C   UNL     1      -8.901   6.657 130.960  0.00  0.00    +0.000 A 
ATOM      6  C   UNL     1      -9.644   7.312 129.981  0.00  0.00    +0.000 A 
ENDROOT
BRANCH   4   7
ATOM      7  S   UNL     1      -8.629   5.136 133.229  0.00  0.00    +0.000 S 
ATOM      8  O   UNL     1      -7.709   4.309 132.479  0.00  0.00    +0.000 OA
ATOM      9  O   UNL     1      -8.205   6.006 134.297  0.00  0.00    +0.000 OA
BRANCH   7  10
ATOM     10  N   UNL     1      -9.790   4.128 133.869  0.00  0.00    +0.000 NA
ATOM     11  H   UNL     1      -9.577   3.137 133.868  0.00  0.00    +0.000 HD
ATOM     12  H   UNL     1     -10.749   4.456 133.812  0.00  0.00    +0.000 HD
ENDBRANCH   7  10
ENDBRANCH   4   7
BRANCH   1  13
ATOM     13  C   UNL     1     -11.785   8.340 129.157  0.00  0.00    +0.000 C 
BRANCH  13  14
ATOM     14  N   UNL     1     -10.881   8.758 128.088  0.00  0.00    +0.000 NA
ATOM     15  H   UNL     1     -11.294   9.522 127.561  0.00  0.00    +0.000 HD
ATOM     16  H   UNL     1     -10.763   7.985 127.434  0.00  0.00    +0.000 HD
ENDBRANCH  13  14
ENDBRANCH   1  13
TORSDOF 4
ENDMDL
MODEL 8
REMARK VINA RESULT:      -5.0      9.078     10.133
REMARK  Name = Mafenide
REMARK  4 active torsions:
REMARK  status: ('A' for Active; 'I' for Inactive)
REMARK    1  A    between atoms: N_1  and  C_2
REMARK    2  A    between atoms: C_2  and  C_3
REMARK    3  A    between atoms: C_6  and  S_9
REMARK    4  A    between atoms: S_9  and  N_10
REMARK                            x       y       z     vdW  Elec       q    Type
REMARK                         _______ _______ _______ _____ _____    ______ ____
ROOT
ATOM      1  C   UNL     1      -9.822   5.773 131.352  0.00  0.00    +0.000 A 
ATOM      2  C   UNL     1     -11.061   5.344 130.855  0.00  0.00    +0.000 A 
ATOM      3  C   UNL     1     -11.625   5.967 129.737  0.00  0.00    +0.000 A 
ATOM      4  C   UNL     1     -10.990   7.077 129.171  0.00  0.00    +0.000 A 
ATOM      5  C   UNL     1      -9.780   7.543 129.686  0.00  0.00    +0.000 A 
ATOM      6  C   UNL     1      -9.205   6.896 130.778  0.00  0.00    +0.000 A 
ENDROOT
BRANCH   4   7
ATOM      7  S   UNL     1     -11.794   7.982 127.874  0.00  0.00    +0.000 S 
ATOM      8  O   UNL     1     -12.700   8.919 128.501  0.00  0.00    +0.000 OA
ATOM      9  O   UNL     1     -10.801   8.382 126.910  0.00  0.00    +0.000 OA
BRANCH   7  10
ATOM     10  N   UNL     1     -12.724   6.811 127.141  0.00  0.00    +0.000 NA
ATOM     11  H   UNL     1     -13.186   7.077 126.278  0.00  0.00    +0.000 HD
ATOM     12  H   UNL     1     -13.127   6.109 127.753  0.00  0.00    +0.000 HD
ENDBRANCH   7  10
ENDBRANCH   4   7
BRANCH   1  13
ATOM     13  C   UNL     1      -9.064   4.953 132.367  0.00  0.00    +0.000 C 
BRANCH  13  14
ATOM     14  N   UNL     1      -9.933   4.703 133.514  0.00  0.00    +0.000 NA
ATOM     15  H   UNL     1      -9.755   5.389 134.242  0.00  0.00    +0.000 HD
ATOM     16  H   UNL     1      -9.703   3.793 133.911  0.00  0.00    +0.000 HD
ENDBRANCH  13  14
ENDBRANCH   1  13
TORSDOF 4
ENDMDL
MODEL 9
REMARK VINA RESULT:      -4.9      4.745      5.949
REMARK  Name = Mafenide
REMARK  4 active torsions:
REMARK  status: ('A' for Active; 'I' for Inactive)
REMARK    1  A    between atoms: N_1  and  C_2
REMARK    2  A    between atoms: C_2  and  C_3
REMARK    3  A    between atoms: C_6  and  S_9
REMARK    4  A    between atoms: S_9  and  N_10
REMARK                            x       y       z     vdW  Elec       q    Type
REMARK                         _______ _______ _______ _____ _____    ______ ____
ROOT
ATOM      1  C   UNL     1      -6.788  -2.549 124.003  0.00  0.00    +0.000 A 
ATOM      2  C   UNL     1      -8.091  -2.851 123.580  0.00  0.00    +0.000 A 
ATOM      3  C   UNL     1      -8.976  -1.826 123.234  0.00  0.00    +0.000 A 
ATOM      4  C   UNL     1      -8.585  -0.492 123.397  0.00  0.00    +0.000 A 
ATOM      5  C   UNL     1      -7.308  -0.178 123.862  0.00  0.00    +0.000 A 
ATOM      6  C   UNL     1      -6.418  -1.205 124.171  0.00  0.00    +0.000 A 
ENDROOT
BRANCH   4   7
ATOM      7  S   UNL     1      -9.765   0.807 123.139  0.00  0.00    +0.000 S 
ATOM      8  O   UNL     1      -9.032   1.974 122.701  0.00  0.00    +0.000 OA
ATOM      9  O   UNL     1     -10.886   0.269 122.410  0.00  0.00    +0.000 OA
BRANCH   7  10
ATOM     10  N   UNL     1     -10.307   1.114 124.683  0.00  0.00    +0.000 NA
ATOM     11  H   UNL     1     -11.307   1.246 124.793  0.00  0.00    +0.000 HD
ATOM     12  H   UNL     1      -9.649   1.570 125.307  0.00  0.00    +0.000 HD
ENDBRANCH   7  10
ENDBRANCH   4   7
BRANCH   1  13
ATOM     13  C   UNL     1      -5.736  -3.624 124.111  0.00  0.00    +0.000 C 
BRANCH  13  14
ATOM     14  N   UNL     1      -4.554  -3.202 123.364  0.00  0.00    +0.000 NA
ATOM     15  H   UNL     1      -4.823  -2.885 122.437  0.00  0.00    +0.000 HD
ATOM     16  H   UNL     1      -3.943  -4.008 123.228  0.00  0.00    +0.000 HD
ENDBRANCH  13  14
ENDBRANCH   1  13
TORSDOF 4
ENDMDL
