MODEL 1
REMARK VINA RESULT:      -5.0      0.000      0.000
REMARK  Name = Malathion
REMARK  15 active torsions:
REMARK  status: ('A' for Active; 'I' for Inactive)
REMARK    1  A    between atoms: C_1  and  C_2
REMARK    2  A    between atoms: C_2  and  O_3
REMARK    3  A    between atoms: O_3  and  C_4
REMARK    4  A    between atoms: C_4  and  C_6
REMARK    5  A    between atoms: C_6  and  C_7
REMARK    6  A    between atoms: C_7  and  S_8
REMARK    7  A    between atoms: C_7  and  C_15
REMARK    8  A    between atoms: S_8  and  P_9
REMARK    9  A    between atoms: P_9  and  O_11
REMARK   10  A    between atoms: P_9  and  O_13
REMARK   11  A    between atoms: O_11  and  C_12
REMARK   12  A    between atoms: O_13  and  C_14
REMARK   13  A    between atoms: C_15  and  O_17
REMARK   14  A    between atoms: O_17  and  C_18
REMARK   15  A    between atoms: C_18  and  C_19
REMARK                            x       y       z     vdW  Elec       q    Type
REMARK                         _______ _______ _______ _____ _____    ______ ____
ROOT
ATOM      1  C   UNL     1      -8.304  -0.437 124.039  0.00  0.00    +0.000 C 
ENDROOT
BRANCH   1   2
ATOM      2  C   UNL     1      -7.751  -1.658 123.280  0.00  0.00    +0.000 C 
ATOM      3  O   UNL     1      -8.424  -2.317 122.495  0.00  0.00    +0.000 OA
BRANCH   2   4
ATOM      4  O   UNL     1      -6.380  -1.781 123.395  0.00  0.00    +0.000 OA
BRANCH   4   5
ATOM      5  C   UNL     1      -5.937  -3.035 123.955  0.00  0.00    +0.000 C 
ATOM      6  C   UNL     1      -4.553  -3.426 123.450  0.00  0.00    +0.000 C 
ENDBRANCH   4   5
ENDBRANCH   2   4
ENDBRANCH   1   2
BRANCH   1   7
ATOM      7  C   UNL     1      -8.909  -0.747 125.470  0.00  0.00    +0.000 C 
BRANCH   7   8
ATOM      8  C   UNL     1      -9.051  -2.203 125.934  0.00  0.00    +0.000 C 
ATOM      9  O   UNL     1     -10.036  -2.895 125.679  0.00  0.00    +0.000 OA
BRANCH   8  10
ATOM     10  O   UNL     1      -8.114  -2.817 126.670  0.00  0.00    +0.000 OA
BRANCH  10  12
ATOM     11  C   UNL     1      -8.393  -3.296 129.017  0.00  0.00    +0.000 C 
ATOM     12  C   UNL     1      -8.775  -3.715 127.634  0.00  0.00    +0.000 C 
ENDBRANCH  10  12
ENDBRANCH   8  10
ENDBRANCH   7   8
ENDBRANCH   1   7
BRANCH   1  13
ATOM     13  S   UNL     1      -7.136   1.006 123.998  0.00  0.00    +0.000 S 
BRANCH  13  14
ATOM     14  P   UNL     1      -7.983   2.842 124.639  0.00  0.00    +0.000 P 
ATOM     15  S   UNL     1      -6.190   3.599 123.937  0.00  0.00    +0.000 S 
BRANCH  14  16
ATOM     16  O   UNL     1      -9.077   2.957 123.297  0.00  0.00    +0.000 OA
ATOM     17  C   UNL     1      -8.614   3.074 121.969  0.00  0.00    +0.000 C 
ENDBRANCH  14  16
BRANCH  14  18
ATOM     18  O   UNL     1      -8.672   4.339 125.164  0.00  0.00    +0.000 OA
ATOM     19  C   UNL     1      -8.168   4.902 126.383  0.00  0.00    +0.000 C 
ENDBRANCH  14  18
ENDBRANCH  13  14
ENDBRANCH   1  13
TORSDOF 11
ENDMDL
MODEL 2
REMARK VINA RESULT:      -5.0      1.493      4.047
REMARK  Name = Malathion
REMARK  15 active torsions:
REMARK  status: ('A' for Active; 'I' for Inactive)
REMARK    1  A    between atoms: C_1  and  C_2
REMARK    2  A    between atoms: C_2  and  O_3
REMARK    3  A    between atoms: O_3  and  C_4
REMARK    4  A    between atoms: C_4  and  C_6
REMARK    5  A    between atoms: C_6  and  C_7
REMARK    6  A    between atoms: C_7  and  S_8
REMARK    7  A    between atoms: C_7  and  C_15
REMARK    8  A    between atoms: S_8  and  P_9
REMARK    9  A    between atoms: P_9  and  O_11
REMARK   10  A    between atoms: P_9  and  O_13
REMARK   11  A    between atoms: O_11  and  C_12
REMARK   12  A    between atoms: O_13  and  C_14
REMARK   13  A    between atoms: C_15  and  O_17
REMARK   14  A    between atoms: O_17  and  C_18
REMARK   15  A    between atoms: C_18  and  C_19
REMARK                            x       y       z     vdW  Elec       q    Type
REMARK                         _______ _______ _______ _____ _____    ______ ____
ROOT
ATOM      1  C   UNL     1      -7.763  -0.738 125.819  0.00  0.00    +0.000 C 
ENDROOT
BRANCH   1   2
ATOM      2  C   UNL     1      -8.675  -1.954 126.065  0.00  0.00    +0.000 C 
ATOM      3  O   UNL     1      -9.787  -2.067 125.561  0.00  0.00    +0.000 OA
BRANCH   2   4
ATOM      4  O   UNL     1      -8.023  -2.989 126.706  0.00  0.00    +0.000 OA
BRANCH   4   5
ATOM      5  C   UNL     1      -7.517  -2.656 128.016  0.00  0.00    +0.000 C 
ATOM      6  C   UNL     1      -8.387  -3.236 129.125  0.00  0.00    +0.000 C 
ENDBRANCH   4   5
ENDBRANCH   2   4
ENDBRANCH   1   2
BRANCH   1   7
ATOM      7  C   UNL     1      -6.584  -0.974 124.788  0.00  0.00    +0.000 C 
BRANCH   7   8
ATOM      8  C   UNL     1      -6.762  -1.991 123.653  0.00  0.00    +0.000 C 
ATOM      9  O   UNL     1      -7.376  -1.740 122.617  0.00  0.00    +0.000 OA
BRANCH   8  10
ATOM     10  O   UNL     1      -6.276  -3.239 123.723  0.00  0.00    +0.000 OA
BRANCH  10  12
ATOM     11  C   UNL     1      -4.284  -4.589 123.564  0.00  0.00    +0.000 C 
ATOM     12  C   UNL     1      -4.810  -3.190 123.576  0.00  0.00    +0.000 C 
ENDBRANCH  10  12
ENDBRANCH   8  10
ENDBRANCH   7   8
ENDBRANCH   1   7
BRANCH   1  13
ATOM     13  S   UNL     1      -8.728   0.823 125.536  0.00  0.00    +0.000 S 
BRANCH  13  14
ATOM     14  P   UNL     1      -8.136   1.927 123.826  0.00  0.00    +0.000 P 
ATOM     15  S   UNL     1      -9.787   1.000 122.993  0.00  0.00    +0.000 S 
BRANCH  14  16
ATOM     16  O   UNL     1      -8.730   3.440 124.435  0.00  0.00    +0.000 OA
ATOM     17  C   UNL     1      -8.027   4.173 125.416  0.00  0.00    +0.000 C 
ENDBRANCH  14  16
BRANCH  14  18
ATOM     18  O   UNL     1      -7.653   2.826 122.429  0.00  0.00    +0.000 OA
ATOM     19  C   UNL     1      -8.691   3.284 121.551  0.00  0.00    +0.000 C 
ENDBRANCH  14  18
ENDBRANCH  13  14
ENDBRANCH   1  13
TORSDOF 11
ENDMDL
MODEL 3
REMARK VINA RESULT:      -4.8      1.782      3.776
REMARK  Name = Malathion
REMARK  15 active torsions:
REMARK  status: ('A' for Active; 'I' for Inactive)
REMARK    1  A    between atoms: C_1  and  C_2
REMARK    2  A    between atoms: C_2  and  O_3
REMARK    3  A    between atoms: O_3  and  C_4
REMARK    4  A    between atoms: C_4  and  C_6
REMARK    5  A    between atoms: C_6  and  C_7
REMARK    6  A    between atoms: C_7  and  S_8
REMARK    7  A    between atoms: C_7  and  C_15
REMARK    8  A    between atoms: S_8  and  P_9
REMARK    9  A    between atoms: P_9  and  O_11
REMARK   10  A    between atoms: P_9  and  O_13
REMARK   11  A    between atoms: O_11  and  C_12
REMARK   12  A    between atoms: O_13  and  C_14
REMARK   13  A    between atoms: C_15  and  O_17
REMARK   14  A    between atoms: O_17  and  C_18
REMARK   15  A    between atoms: C_18  and  C_19
REMARK                            x       y       z     vdW  Elec       q    Type
REMARK                         _______ _______ _______ _____ _____    ______ ____
ROOT
ATOM      1  C   UNL     1      -8.257  -0.768 125.965  0.00  0.00    +0.000 C 
ENDROOT
BRANCH   1   2
ATOM      2  C   UNL     1      -7.415  -1.168 127.191  0.00  0.00    +0.000 C 
ATOM      3  O   UNL     1      -6.998  -0.355 128.008  0.00  0.00    +0.000 OA
BRANCH   2   4
ATOM      4  O   UNL     1      -7.388  -2.534 127.396  0.00  0.00    +0.000 OA
BRANCH   4   5
ATOM      5  C   UNL     1      -8.076  -2.974 128.585  0.00  0.00    +0.000 C 
ATOM      6  C   UNL     1      -9.061  -4.099 128.289  0.00  0.00    +0.000 C 
ENDBRANCH   4   5
ENDBRANCH   2   4
ENDBRANCH   1   2
BRANCH   1   7
ATOM      7  C   UNL     1      -9.273  -1.870 125.453  0.00  0.00    +0.000 C 
BRANCH   7   8
ATOM      8  C   UNL     1      -8.995  -2.604 124.134  0.00  0.00    +0.000 C 
ATOM      9  O   UNL     1      -9.859  -3.224 123.516  0.00  0.00    +0.000 OA
BRANCH   8  10
ATOM     10  O   UNL     1      -7.777  -2.635 123.572  0.00  0.00    +0.000 OA
BRANCH  10  12
ATOM     11  C   UNL     1      -5.541  -3.314 124.166  0.00  0.00    +0.000 C 
ATOM     12  C   UNL     1      -6.983  -3.702 124.208  0.00  0.00    +0.000 C 
ENDBRANCH  10  12
ENDBRANCH   8  10
ENDBRANCH   7   8
ENDBRANCH   1   7
BRANCH   1  13
ATOM     13  S   UNL     1      -8.990   0.929 126.136  0.00  0.00    +0.000 S 
BRANCH  13  14
ATOM     14  P   UNL     1      -9.059   2.044 124.333  0.00  0.00    +0.000 P 
ATOM     15  S   UNL     1      -7.359   0.945 123.908  0.00  0.00    +0.000 S 
BRANCH  14  16
ATOM     16  O   UNL     1     -10.369   1.124 123.661  0.00  0.00    +0.000 OA
ATOM     17  C   UNL     1     -10.228   0.399 122.459  0.00  0.00    +0.000 C 
ENDBRANCH  14  16
BRANCH  14  18
ATOM     18  O   UNL     1      -9.114   2.954 122.863  0.00  0.00    +0.000 OA
ATOM     19  C   UNL     1      -7.869   3.197 122.194  0.00  0.00    +0.000 C 
ENDBRANCH  14  18
ENDBRANCH  13  14
ENDBRANCH   1  13
TORSDOF 11
ENDMDL
MODEL 4
REMARK VINA RESULT:      -4.8      2.717      4.686
REMARK  Name = Malathion
REMARK  15 active torsions:
REMARK  status: ('A' for Active; 'I' for Inactive)
REMARK    1  A    between atoms: C_1  and  C_2
REMARK    2  A    between atoms: C_2  and  O_3
REMARK    3  A    between atoms: O_3  and  C_4
REMARK    4  A    between atoms: C_4  and  C_6
REMARK    5  A    between atoms: C_6  and  C_7
REMARK    6  A    between atoms: C_7  and  S_8
REMARK    7  A    between atoms: C_7  and  C_15
REMARK    8  A    between atoms: S_8  and  P_9
REMARK    9  A    between atoms: P_9  and  O_11
REMARK   10  A    between atoms: P_9  and  O_13
REMARK   11  A    between atoms: O_11  and  C_12
REMARK   12  A    between atoms: O_13  and  C_14
REMARK   13  A    between atoms: C_15  and  O_17
REMARK   14  A    between atoms: O_17  and  C_18
REMARK   15  A    between atoms: C_18  and  C_19
REMARK                            x       y       z     vdW  Elec       q    Type
REMARK                         _______ _______ _______ _____ _____    ______ ____
ROOT
ATOM      1  C   UNL     1      -7.929   2.291 123.611  0.00  0.00    +0.000 C 
ENDROOT
BRANCH   1   2
ATOM      2  C   UNL     1      -7.836   3.086 122.296  0.00  0.00    +0.000 C 
ATOM      3  O   UNL     1      -8.802   3.287 121.568  0.00  0.00    +0.000 OA
BRANCH   2   4
ATOM      4  O   UNL     1      -6.627   3.736 122.150  0.00  0.00    +0.000 OA
BRANCH   4   5
ATOM      5  C   UNL     1      -5.923   3.423 120.929  0.00  0.00    +0.000 C 
ATOM      6  C   UNL     1      -5.503   4.681 120.177  0.00  0.00    +0.000 C 
ENDBRANCH   4   5
ENDBRANCH   2   4
ENDBRANCH   1   2
BRANCH   1   7
ATOM      7  C   UNL     1      -7.917   0.715 123.452  0.00  0.00    +0.000 C 
BRANCH   7   8
ATOM      8  C   UNL     1      -9.237  -0.063 123.512  0.00  0.00    +0.000 C 
ATOM      9  O   UNL     1     -10.185   0.166 122.761  0.00  0.00    +0.000 OA
BRANCH   8  10
ATOM     10  O   UNL     1      -9.458  -1.039 124.405  0.00  0.00    +0.000 OA
BRANCH  10  12
ATOM     11  C   UNL     1      -9.488  -3.267 123.482  0.00  0.00    +0.000 C 
ATOM     12  C   UNL     1      -8.617  -2.200 124.063  0.00  0.00    +0.000 C 
ENDBRANCH  10  12
ENDBRANCH   8  10
ENDBRANCH   7   8
ENDBRANCH   1   7
BRANCH   1  13
ATOM     13  S   UNL     1      -6.770   2.939 124.909  0.00  0.00    +0.000 S 
BRANCH  13  14
ATOM     14  P   UNL     1      -7.710   4.041 126.458  0.00  0.00    +0.000 P 
ATOM     15  S   UNL     1      -7.986   2.154 127.260  0.00  0.00    +0.000 S 
BRANCH  14  16
ATOM     16  O   UNL     1      -6.217   4.606 127.141  0.00  0.00    +0.000 OA
ATOM     17  C   UNL     1      -5.052   4.754 126.358  0.00  0.00    +0.000 C 
ENDBRANCH  14  16
BRANCH  14  18
ATOM     18  O   UNL     1      -8.478   4.939 127.722  0.00  0.00    +0.000 OA
ATOM     19  C   UNL     1      -8.245   4.507 129.070  0.00  0.00    +0.000 C 
ENDBRANCH  14  18
ENDBRANCH  13  14
ENDBRANCH   1  13
TORSDOF 11
ENDMDL
MODEL 5
REMARK VINA RESULT:      -4.8      3.317      6.513
REMARK  Name = Malathion
REMARK  15 active torsions:
REMARK  status: ('A' for Active; 'I' for Inactive)
REMARK    1  A    between atoms: C_1  and  C_2
REMARK    2  A    between atoms: C_2  and  O_3
REMARK    3  A    between atoms: O_3  and  C_4
REMARK    4  A    between atoms: C_4  and  C_6
REMARK    5  A    between atoms: C_6  and  C_7
REMARK    6  A    between atoms: C_7  and  S_8
REMARK    7  A    between atoms: C_7  and  C_15
REMARK    8  A    between atoms: S_8  and  P_9
REMARK    9  A    between atoms: P_9  and  O_11
REMARK   10  A    between atoms: P_9  and  O_13
REMARK   11  A    between atoms: O_11  and  C_12
REMARK   12  A    between atoms: O_13  and  C_14
REMARK   13  A    between atoms: C_15  and  O_17
REMARK   14  A    between atoms: O_17  and  C_18
REMARK   15  A    between atoms: C_18  and  C_19
REMARK                            x       y       z     vdW  Elec       q    Type
REMARK                         _______ _______ _______ _____ _____    ______ ____
ROOT
ATOM      1  C   UNL     1      -6.751   3.195 123.526  0.00  0.00    +0.000 C 
ENDROOT
BRANCH   1   2
ATOM      2  C   UNL     1      -7.177   3.291 122.049  0.00  0.00    +0.000 C 
ATOM      3  O   UNL     1      -8.349   3.367 121.696  0.00  0.00    +0.000 OA
BRANCH   2   4
ATOM      4  O   UNL     1      -6.111   3.519 121.201  0.00  0.00    +0.000 OA
BRANCH   4   5
ATOM      5  C   UNL     1      -6.443   4.269 120.013  0.00  0.00    +0.000 C 
ATOM      6  C   UNL     1      -5.390   5.325 119.696  0.00  0.00    +0.000 C 
ENDBRANCH   4   5
ENDBRANCH   2   4
ENDBRANCH   1   2
BRANCH   1   7
ATOM      7  C   UNL     1      -5.948   4.442 124.081  0.00  0.00    +0.000 C 
BRANCH   7   8
ATOM      8  C   UNL     1      -5.254   4.350 125.446  0.00  0.00    +0.000 C 
ATOM      9  O   UNL     1      -5.376   5.209 126.319  0.00  0.00    +0.000 OA
BRANCH   8  10
ATOM     10  O   UNL     1      -4.447   3.332 125.776  0.00  0.00    +0.000 OA
BRANCH  10  12
ATOM     11  C   UNL     1      -2.178   3.177 126.577  0.00  0.00    +0.000 C 
ATOM     12  C   UNL     1      -3.522   3.776 126.835  0.00  0.00    +0.000 C 
ENDBRANCH  10  12
ENDBRANCH   8  10
ENDBRANCH   7   8
ENDBRANCH   1   7
BRANCH   1  13
ATOM     13  S   UNL     1      -8.136   2.625 124.624  0.00  0.00    +0.000 S 
BRANCH  13  14
ATOM     14  P   UNL     1      -8.423   0.524 124.660  0.00  0.00    +0.000 P 
ATOM     15  S   UNL     1      -8.687   0.870 126.683  0.00  0.00    +0.000 S 
BRANCH  14  16
ATOM     16  O   UNL     1     -10.018   0.599 123.979  0.00  0.00    +0.000 OA
ATOM     17  C   UNL     1     -10.228   0.672 122.586  0.00  0.00    +0.000 C 
ENDBRANCH  14  16
BRANCH  14  18
ATOM     18  O   UNL     1      -8.656  -1.190 124.691  0.00  0.00    +0.000 OA
ATOM     19  C   UNL     1      -7.864  -1.977 123.790  0.00  0.00    +0.000 C 
ENDBRANCH  14  18
ENDBRANCH  13  14
ENDBRANCH   1  13
TORSDOF 11
ENDMDL
MODEL 6
REMARK VINA RESULT:      -4.7      2.398      5.991
REMARK  Name = Malathion
REMARK  15 active torsions:
REMARK  status: ('A' for Active; 'I' for Inactive)
REMARK    1  A    between atoms: C_1  and  C_2
REMARK    2  A    between atoms: C_2  and  O_3
REMARK    3  A    between atoms: O_3  and  C_4
REMARK    4  A    between atoms: C_4  and  C_6
REMARK    5  A    between atoms: C_6  and  C_7
REMARK    6  A    between atoms: C_7  and  S_8
REMARK    7  A    between atoms: C_7  and  C_15
REMARK    8  A    between atoms: S_8  and  P_9
REMARK    9  A    between atoms: P_9  and  O_11
REMARK   10  A    between atoms: P_9  and  O_13
REMARK   11  A    between atoms: O_11  and  C_12
REMARK   12  A    between atoms: O_13  and  C_14
REMARK   13  A    between atoms: C_15  and  O_17
REMARK   14  A    between atoms: O_17  and  C_18
REMARK   15  A    between atoms: C_18  and  C_19
REMARK                            x       y       z     vdW  Elec       q    Type
REMARK                         _______ _______ _______ _____ _____    ______ ____
ROOT
ATOM      1  C   UNL     1      -8.679   0.769 124.116  0.00  0.00    +0.000 C 
ENDROOT
BRANCH   1   2
ATOM      2  C   UNL     1      -9.272  -0.274 123.150  0.00  0.00    +0.000 C 
ATOM      3  O   UNL     1     -10.319  -0.097 122.538  0.00  0.00    +0.000 OA
BRANCH   2   4
ATOM      4  O   UNL     1      -8.394  -1.303 122.873  0.00  0.00    +0.000 OA
BRANCH   4   5
ATOM      5  C   UNL     1      -7.001  -0.927 122.910  0.00  0.00    +0.000 C 
ATOM      6  C   UNL     1      -6.095  -2.127 123.163  0.00  0.00    +0.000 C 
ENDBRANCH   4   5
ENDBRANCH   2   4
ENDBRANCH   1   2
BRANCH   1   7
ATOM      7  C   UNL     1      -9.005   2.279 123.764  0.00  0.00    +0.000 C 
BRANCH   7   8
ATOM      8  C   UNL     1      -8.358   2.927 122.534  0.00  0.00    +0.000 C 
ATOM      9  O   UNL     1      -8.982   3.188 121.506  0.00  0.00    +0.000 OA
BRANCH   8  10
ATOM     10  O   UNL     1      -7.054   3.238 122.487  0.00  0.00    +0.000 OA
BRANCH  10  12
ATOM     11  C   UNL     1      -5.247   3.565 120.924  0.00  0.00    +0.000 C 
ATOM     12  C   UNL     1      -6.721   3.703 121.128  0.00  0.00    +0.000 C 
ENDBRANCH  10  12
ENDBRANCH   8  10
ENDBRANCH   7   8
ENDBRANCH   1   7
BRANCH   1  13
ATOM     13  S   UNL     1      -8.956   0.320 125.896  0.00  0.00    +0.000 S 
BRANCH  13  14
ATOM     14  P   UNL     1      -7.465  -0.937 126.729  0.00  0.00    +0.000 P 
ATOM     15  S   UNL     1      -7.700   0.321 128.355  0.00  0.00    +0.000 S 
BRANCH  14  16
ATOM     16  O   UNL     1      -8.555  -2.257 127.019  0.00  0.00    +0.000 OA
ATOM     17  C   UNL     1      -9.286  -2.860 125.974  0.00  0.00    +0.000 C 
ENDBRANCH  14  16
BRANCH  14  18
ATOM     18  O   UNL     1      -6.248  -1.961 127.409  0.00  0.00    +0.000 OA
ATOM     19  C   UNL     1      -6.563  -2.629 128.639  0.00  0.00    +0.000 C 
ENDBRANCH  14  18
ENDBRANCH  13  14
ENDBRANCH   1  13
TORSDOF 11
ENDMDL
MODEL 7
REMARK VINA RESULT:      -4.7      8.012     10.078
REMARK  Name = Malathion
REMARK  15 active torsions:
REMARK  status: ('A' for Active; 'I' for Inactive)
REMARK    1  A    between atoms: C_1  and  C_2
REMARK    2  A    between atoms: C_2  and  O_3
REMARK    3  A    between atoms: O_3  and  C_4
REMARK    4  A    between atoms: C_4  and  C_6
REMARK    5  A    between atoms: C_6  and  C_7
REMARK    6  A    between atoms: C_7  and  S_8
REMARK    7  A    between atoms: C_7  and  C_15
REMARK    8  A    between atoms: S_8  and  P_9
REMARK    9  A    between atoms: P_9  and  O_11
REMARK   10  A    between atoms: P_9  and  O_13
REMARK   11  A    between atoms: O_11  and  C_12
REMARK   12  A    between atoms: O_13  and  C_14
REMARK   13  A    between atoms: C_15  and  O_17
REMARK   14  A    between atoms: O_17  and  C_18
REMARK   15  A    between atoms: C_18  and  C_19
REMARK                            x       y       z     vdW  Elec       q    Type
REMARK                         _______ _______ _______ _____ _____    ______ ____
ROOT
ATOM      1  C   UNL     1      -8.771   6.161 130.926  0.00  0.00    +0.000 C 
ENDROOT
BRANCH   1   2
ATOM      2  C   UNL     1      -9.464   5.684 132.215  0.00  0.00    +0.000 C 
ATOM      3  O   UNL     1     -10.229   6.390 132.863  0.00  0.00    +0.000 OA
BRANCH   2   4
ATOM      4  O   UNL     1      -9.323   4.326 132.425  0.00  0.00    +0.000 OA
BRANCH   4   5
ATOM      5  C   UNL     1      -9.236   3.941 133.813  0.00  0.00    +0.000 C 
ATOM      6  C   UNL     1      -7.869   4.263 134.407  0.00  0.00    +0.000 C 
ENDBRANCH   4   5
ENDBRANCH   2   4
ENDBRANCH   1   2
BRANCH   1   7
ATOM      7  C   UNL     1      -9.610   7.173 130.041  0.00  0.00    +0.000 C 
BRANCH   7   8
ATOM      8  C   UNL     1     -10.339   6.663 128.792  0.00  0.00    +0.000 C 
ATOM      9  O   UNL     1      -9.780   6.501 127.709  0.00  0.00    +0.000 OA
BRANCH   8  10
ATOM     10  O   UNL     1     -11.649   6.376 128.791  0.00  0.00    +0.000 OA
BRANCH  10  12
ATOM     11  C   UNL     1     -12.728   8.495 128.387  0.00  0.00    +0.000 C 
ATOM     12  C   UNL     1     -12.319   7.199 127.767  0.00  0.00    +0.000 C 
ENDBRANCH  10  12
ENDBRANCH   8  10
ENDBRANCH   7   8
ENDBRANCH   1   7
BRANCH   1  13
ATOM     13  S   UNL     1      -7.012   6.677 131.221  0.00  0.00    +0.000 S 
BRANCH  13  14
ATOM     14  P   UNL     1      -5.560   5.318 130.485  0.00  0.00    +0.000 P 
ATOM     15  S   UNL     1      -7.207   4.494 129.542  0.00  0.00    +0.000 S 
BRANCH  14  16
ATOM     16  O   UNL     1      -4.900   6.442 129.337  0.00  0.00    +0.000 OA
ATOM     17  C   UNL     1      -3.797   6.110 128.523  0.00  0.00    +0.000 C 
ENDBRANCH  14  16
BRANCH  14  18
ATOM     18  O   UNL     1      -4.376   4.209 129.885  0.00  0.00    +0.000 OA
ATOM     19  C   UNL     1      -4.103   3.047 130.680  0.00  0.00    +0.000 C 
ENDBRANCH  14  18
ENDBRANCH  13  14
ENDBRANCH   1  13
TORSDOF 11
ENDMDL
MODEL 8
REMARK VINA RESULT:      -4.7      2.859      6.926
REMARK  Name = Malathion
REMARK  15 active torsions:
REMARK  status: ('A' for Active; 'I' for Inactive)
REMARK    1  A    between atoms: C_1  and  C_2
REMARK    2  A    between atoms: C_2  and  O_3
REMARK    3  A    between atoms: O_3  and  C_4
REMARK    4  A    between atoms: C_4  and  C_6
REMARK    5  A    between atoms: C_6  and  C_7
REMARK    6  A    between atoms: C_7  and  S_8
REMARK    7  A    between atoms: C_7  and  C_15
REMARK    8  A    between atoms: S_8  and  P_9
REMARK    9  A    between atoms: P_9  and  O_11
REMARK   10  A    between atoms: P_9  and  O_13
REMARK   11  A    between atoms: O_11  and  C_12
REMARK   12  A    between atoms: O_13  and  C_14
REMARK   13  A    between atoms: C_15  and  O_17
REMARK   14  A    between atoms: O_17  and  C_18
REMARK   15  A    between atoms: C_18  and  C_19
REMARK                            x       y       z     vdW  Elec       q    Type
REMARK                         _______ _______ _______ _____ _____    ______ ____
ROOT
ATOM      1  C   UNL     1      -7.113   1.633 125.011  0.00  0.00    +0.000 C 
ENDROOT
BRANCH   1   2
ATOM      2  C   UNL     1      -8.445   1.982 125.700  0.00  0.00    +0.000 C 
ATOM      3  O   UNL     1      -8.561   2.085 126.916  0.00  0.00    +0.000 OA
BRANCH   2   4
ATOM      4  O   UNL     1      -9.415   2.394 124.807  0.00  0.00    +0.000 OA
BRANCH   4   5
ATOM      5  C   UNL     1     -10.182   1.321 124.220  0.00  0.00    +0.000 C 
ATOM      6  C   UNL     1      -9.987   1.244 122.710  0.00  0.00    +0.000 C 
ENDBRANCH   4   5
ENDBRANCH   2   4
ENDBRANCH   1   2
BRANCH   1   7
ATOM      7  C   UNL     1      -6.115   2.847 124.812  0.00  0.00    +0.000 C 
BRANCH   7   8
ATOM      8  C   UNL     1      -6.080   3.587 123.469  0.00  0.00    +0.000 C 
ATOM      9  O   UNL     1      -5.574   4.700 123.330  0.00  0.00    +0.000 OA
BRANCH   8  10
ATOM     10  O   UNL     1      -6.619   3.077 122.352  0.00  0.00    +0.000 OA
BRANCH  10  12
ATOM     11  C   UNL     1      -6.838   4.032 120.149  0.00  0.00    +0.000 C 
ATOM     12  C   UNL     1      -5.866   3.574 121.186  0.00  0.00    +0.000 C 
ENDBRANCH  10  12
ENDBRANCH   8  10
ENDBRANCH   7   8
ENDBRANCH   1   7
BRANCH   1  13
ATOM     13  S   UNL     1      -6.331   0.106 125.721  0.00  0.00    +0.000 S 
BRANCH  13  14
ATOM     14  P   UNL     1      -7.153  -1.716 125.013  0.00  0.00    +0.000 P 
ATOM     15  S   UNL     1      -6.941  -0.782 123.179  0.00  0.00    +0.000 S 
BRANCH  14  16
ATOM     16  O   UNL     1      -5.684  -2.615 125.232  0.00  0.00    +0.000 OA
ATOM     17  C   UNL     1      -5.139  -3.410 124.202  0.00  0.00    +0.000 C 
ENDBRANCH  14  16
BRANCH  14  18
ATOM     18  O   UNL     1      -7.824  -3.201 124.434  0.00  0.00    +0.000 OA
ATOM     19  C   UNL     1      -9.030  -3.120 123.661  0.00  0.00    +0.000 C 
ENDBRANCH  14  18
ENDBRANCH  13  14
ENDBRANCH   1  13
TORSDOF 11
ENDMDL
MODEL 9
REMARK VINA RESULT:      -4.6      1.939      2.578
REMARK  Name = Malathion
REMARK  15 active torsions:
REMARK  status: ('A' for Active; 'I' for Inactive)
REMARK    1  A    between atoms: C_1  and  C_2
REMARK    2  A    between atoms: C_2  and  O_3
REMARK    3  A    between atoms: O_3  and  C_4
REMARK    4  A    between atoms: C_4  and  C_6
REMARK    5  A    between atoms: C_6  and  C_7
REMARK    6  A    between atoms: C_7  and  S_8
REMARK    7  A    between atoms: C_7  and  C_15
REMARK    8  A    between atoms: S_8  and  P_9
REMARK    9  A    between atoms: P_9  and  O_11
REMARK   10  A    between atoms: P_9  and  O_13
REMARK   11  A    between atoms: O_11  and  C_12
REMARK   12  A    between atoms: O_13  and  C_14
REMARK   13  A    between atoms: C_15  and  O_17
REMARK   14  A    between atoms: O_17  and  C_18
REMARK   15  A    between atoms: C_18  and  C_19
REMARK                            x       y       z     vdW  Elec       q    Type
REMARK                         _______ _______ _______ _____ _____    ______ ____
ROOT
ATOM      1  C   UNL     1      -7.309  -0.879 123.384  0.00  0.00    +0.000 C 
ENDROOT
BRANCH   1   2
ATOM      2  C   UNL     1      -6.345  -1.977 122.897  0.00  0.00    +0.000 C 
ATOM      3  O   UNL     1      -5.965  -2.065 121.735  0.00  0.00    +0.000 OA
BRANCH   2   4
ATOM      4  O   UNL     1      -5.781  -2.690 123.937  0.00  0.00    +0.000 OA
BRANCH   4   5
ATOM      5  C   UNL     1      -4.478  -3.239 123.648  0.00  0.00    +0.000 C 
ATOM      6  C   UNL     1      -4.495  -4.763 123.631  0.00  0.00    +0.000 C 
ENDBRANCH   4   5
ENDBRANCH   2   4
ENDBRANCH   1   2
BRANCH   1   7
ATOM      7  C   UNL     1      -8.848  -1.246 123.305  0.00  0.00    +0.000 C 
BRANCH   7   8
ATOM      8  C   UNL     1      -9.362  -2.510 124.005  0.00  0.00    +0.000 C 
ATOM      9  O   UNL     1      -9.634  -3.547 123.402  0.00  0.00    +0.000 OA
BRANCH   8  10
ATOM     10  O   UNL     1      -9.571  -2.565 125.329  0.00  0.00    +0.000 OA
BRANCH  10  12
ATOM     11  C   UNL     1      -8.930  -3.692 127.362  0.00  0.00    +0.000 C 
ATOM     12  C   UNL     1      -8.554  -3.442 125.938  0.00  0.00    +0.000 C 
ENDBRANCH  10  12
ENDBRANCH   8  10
ENDBRANCH   7   8
ENDBRANCH   1   7
BRANCH   1  13
ATOM     13  S   UNL     1      -6.778  -0.142 125.003  0.00  0.00    +0.000 S 
BRANCH  13  14
ATOM     14  P   UNL     1      -7.392   1.865 125.301  0.00  0.00    +0.000 P 
ATOM     15  S   UNL     1      -8.865   0.959 126.437  0.00  0.00    +0.000 S 
BRANCH  14  16
ATOM     16  O   UNL     1      -6.117   2.227 126.422  0.00  0.00    +0.000 OA
ATOM     17  C   UNL     1      -5.024   1.354 126.611  0.00  0.00    +0.000 C 
ENDBRANCH  14  16
BRANCH  14  18
ATOM     18  O   UNL     1      -7.895   3.503 125.543  0.00  0.00    +0.000 OA
ATOM     19  C   UNL     1      -6.947   4.534 125.232  0.00  0.00    +0.000 C 
ENDBRANCH  14  18
ENDBRANCH  13  14
ENDBRANCH   1  13
TORSDOF 11
ENDMDL
