MODEL 1
REMARK VINA RESULT:      -5.8      0.000      0.000
REMARK  Name = Mandelic acid
REMARK  4 active torsions:
REMARK  status: ('A' for Active; 'I' for Inactive)
REMARK    1  A    between atoms: O_1  and  C_2
REMARK    2  A    between atoms: C_2  and  C_3
REMARK    3  A    between atoms: C_2  and  C_6
REMARK    4  A    between atoms: C_3  and  O_4
REMARK                            x       y       z     vdW  Elec       q    Type
REMARK                         _______ _______ _______ _____ _____    ______ ____
ROOT
ATOM      1  C   UNL     1     -10.487   7.424 127.718  0.00  0.00    +0.000 C 
ENDROOT
BRANCH   1   2
ATOM      2  C   UNL     1     -11.383   7.484 128.932  0.00  0.00    +0.000 A 
ATOM      3  C   UNL     1     -12.229   8.580 129.162  0.00  0.00    +0.000 A 
ATOM      4  C   UNL     1     -12.911   8.689 130.375  0.00  0.00    +0.000 A 
ATOM      5  C   UNL     1     -12.840   7.661 131.315  0.00  0.00    +0.000 A 
ATOM      6  C   UNL     1     -12.044   6.547 131.075  0.00  0.00    +0.000 A 
ATOM      7  C   UNL     1     -11.286   6.484 129.914  0.00  0.00    +0.000 A 
ENDBRANCH   1   2
BRANCH   1   8
ATOM      8  O   UNL     1      -9.676   6.261 127.901  0.00  0.00    +0.000 OA
ATOM      9  H   UNL     1      -9.169   6.397 128.721  0.00  0.00    +0.000 HD
ENDBRANCH   1   8
BRANCH   1  10
ATOM     10  C   UNL     1     -11.191   7.396 126.345  0.00  0.00    +0.000 C 
ATOM     11  O   UNL     1     -10.805   8.113 125.417  0.00  0.00    +0.000 OA
BRANCH  10  12
ATOM     12  O   UNL     1     -12.239   6.563 126.174  0.00  0.00    +0.000 OA
ATOM     13  H   UNL     1     -12.050   5.607 126.269  0.00  0.00    +0.000 HD
ENDBRANCH  10  12
ENDBRANCH   1  10
TORSDOF 4
ENDMDL
MODEL 2
REMARK VINA RESULT:      -5.6      1.245      1.863
REMARK  Name = Mandelic acid
REMARK  4 active torsions:
REMARK  status: ('A' for Active; 'I' for Inactive)
REMARK    1  A    between atoms: O_1  and  C_2
REMARK    2  A    between atoms: C_2  and  C_3
REMARK    3  A    between atoms: C_2  and  C_6
REMARK    4  A    between atoms: C_3  and  O_4
REMARK                            x       y       z     vdW  Elec       q    Type
REMARK                         _______ _______ _______ _____ _____    ______ ____
ROOT
ATOM      1  C   UNL     1     -11.465   8.211 127.867  0.00  0.00    +0.000 C 
ENDROOT
BRANCH   1   2
ATOM      2  C   UNL     1     -11.524   7.726 129.295  0.00  0.00    +0.000 A 
ATOM      3  C   UNL     1     -10.422   7.102 129.901  0.00  0.00    +0.000 A 
ATOM      4  C   UNL     1     -10.563   6.509 131.157  0.00  0.00    +0.000 A 
ATOM      5  C   UNL     1     -11.763   6.627 131.859  0.00  0.00    +0.000 A 
ATOM      6  C   UNL     1     -12.846   7.286 131.287  0.00  0.00    +0.000 A 
ATOM      7  C   UNL     1     -12.739   7.789 129.998  0.00  0.00    +0.000 A 
ENDBRANCH   1   2
BRANCH   1   8
ATOM      8  O   UNL     1     -10.332   9.081 127.807  0.00  0.00    +0.000 OA
ATOM      9  H   UNL     1     -10.231   9.473 128.692  0.00  0.00    +0.000 HD
ENDBRANCH   1   8
BRANCH   1  10
ATOM     10  C   UNL     1     -11.384   7.123 126.775  0.00  0.00    +0.000 C 
ATOM     11  O   UNL     1     -10.295   6.712 126.365  0.00  0.00    +0.000 OA
BRANCH  10  12
ATOM     12  O   UNL     1     -12.534   6.620 126.279  0.00  0.00    +0.000 OA
ATOM     13  H   UNL     1     -12.636   6.656 125.306  0.00  0.00    +0.000 HD
ENDBRANCH  10  12
ENDBRANCH   1  10
TORSDOF 4
ENDMDL
MODEL 3
REMARK VINA RESULT:      -5.6      2.966      4.390
REMARK  Name = Mandelic acid
REMARK  4 active torsions:
REMARK  status: ('A' for Active; 'I' for Inactive)
REMARK    1  A    between atoms: O_1  and  C_2
REMARK    2  A    between atoms: C_2  and  C_3
REMARK    3  A    between atoms: C_2  and  C_6
REMARK    4  A    between atoms: C_3  and  O_4
REMARK                            x       y       z     vdW  Elec       q    Type
REMARK                         _______ _______ _______ _____ _____    ______ ____
ROOT
ATOM      1  C   UNL     1     -12.053   7.346 131.126  0.00  0.00    +0.000 C 
ENDROOT
BRANCH   1   2
ATOM      2  C   UNL     1     -12.009   7.500 129.625  0.00  0.00    +0.000 A 
ATOM      3  C   UNL     1     -13.055   7.036 128.812  0.00  0.00    +0.000 A 
ATOM      4  C   UNL     1     -12.908   7.033 127.423  0.00  0.00    +0.000 A 
ATOM      5  C   UNL     1     -11.770   7.588 126.837  0.00  0.00    +0.000 A 
ATOM      6  C   UNL     1     -10.749   8.095 127.633  0.00  0.00    +0.000 A 
ATOM      7  C   UNL     1     -10.849   8.007 129.014  0.00  0.00    +0.000 A 
ENDBRANCH   1   2
BRANCH   1   8
ATOM      8  O   UNL     1     -13.431   7.143 131.447  0.00  0.00    +0.000 OA
ATOM      9  H   UNL     1     -13.897   6.996 130.606  0.00  0.00    +0.000 HD
ENDBRANCH   1   8
BRANCH   1  10
ATOM     10  C   UNL     1     -11.176   6.228 131.727  0.00  0.00    +0.000 C 
ATOM     11  O   UNL     1     -10.398   6.460 132.657  0.00  0.00    +0.000 OA
BRANCH  10  12
ATOM     12  O   UNL     1     -11.281   4.981 131.220  0.00  0.00    +0.000 OA
ATOM     13  H   UNL     1     -10.546   4.686 130.647  0.00  0.00    +0.000 HD
ENDBRANCH  10  12
ENDBRANCH   1  10
TORSDOF 4
ENDMDL
MODEL 4
REMARK VINA RESULT:      -5.5      2.531      3.798
REMARK  Name = Mandelic acid
REMARK  4 active torsions:
REMARK  status: ('A' for Active; 'I' for Inactive)
REMARK    1  A    between atoms: O_1  and  C_2
REMARK    2  A    between atoms: C_2  and  C_3
REMARK    3  A    between atoms: C_2  and  C_6
REMARK    4  A    between atoms: C_3  and  O_4
REMARK                            x       y       z     vdW  Elec       q    Type
REMARK                         _______ _______ _______ _____ _____    ______ ____
ROOT
ATOM      1  C   UNL     1     -11.440   6.470 130.790  0.00  0.00    +0.000 C 
ENDROOT
BRANCH   1   2
ATOM      2  C   UNL     1     -12.336   7.196 129.815  0.00  0.00    +0.000 A 
ATOM      3  C   UNL     1     -13.079   6.500 128.849  0.00  0.00    +0.000 A 
ATOM      4  C   UNL     1     -13.758   7.206 127.853  0.00  0.00    +0.000 A 
ATOM      5  C   UNL     1     -13.789   8.600 127.878  0.00  0.00    +0.000 A 
ATOM      6  C   UNL     1     -13.097   9.298 128.860  0.00  0.00    +0.000 A 
ATOM      7  C   UNL     1     -12.340   8.601 129.791  0.00  0.00    +0.000 A 
ENDBRANCH   1   2
BRANCH   1   8
ATOM      8  O   UNL     1     -12.248   6.234 131.946  0.00  0.00    +0.000 OA
ATOM      9  H   UNL     1     -12.349   5.269 132.025  0.00  0.00    +0.000 HD
ENDBRANCH   1   8
BRANCH   1  10
ATOM     10  C   UNL     1     -10.799   5.160 130.288  0.00  0.00    +0.000 C 
ATOM     11  O   UNL     1      -9.919   5.173 129.422  0.00  0.00    +0.000 OA
BRANCH  10  12
ATOM     12  O   UNL     1     -11.214   3.992 130.822  0.00  0.00    +0.000 OA
ATOM     13  H   UNL     1     -10.635   3.218 130.669  0.00  0.00    +0.000 HD
ENDBRANCH  10  12
ENDBRANCH   1  10
TORSDOF 4
ENDMDL
MODEL 5
REMARK VINA RESULT:      -5.2      1.750      2.396
REMARK  Name = Mandelic acid
REMARK  4 active torsions:
REMARK  status: ('A' for Active; 'I' for Inactive)
REMARK    1  A    between atoms: O_1  and  C_2
REMARK    2  A    between atoms: C_2  and  C_3
REMARK    3  A    between atoms: C_2  and  C_6
REMARK    4  A    between atoms: C_3  and  O_4
REMARK                            x       y       z     vdW  Elec       q    Type
REMARK                         _______ _______ _______ _____ _____    ______ ____
ROOT
ATOM      1  C   UNL     1     -11.716   8.242 128.546  0.00  0.00    +0.000 C 
ENDROOT
BRANCH   1   2
ATOM      2  C   UNL     1     -11.100   7.489 129.701  0.00  0.00    +0.000 A 
ATOM      3  C   UNL     1     -11.892   6.953 130.728  0.00  0.00    +0.000 A 
ATOM      4  C   UNL     1     -11.285   6.419 131.867  0.00  0.00    +0.000 A 
ATOM      5  C   UNL     1      -9.895   6.318 131.940  0.00  0.00    +0.000 A 
ATOM      6  C   UNL     1      -9.103   6.802 130.905  0.00  0.00    +0.000 A 
ATOM      7  C   UNL     1      -9.701   7.424 129.818  0.00  0.00    +0.000 A 
ENDBRANCH   1   2
BRANCH   1   8
ATOM      8  O   UNL     1     -10.623   8.882 127.882  0.00  0.00    +0.000 OA
ATOM      9  H   UNL     1     -10.656   9.822 128.130  0.00  0.00    +0.000 HD
ENDBRANCH   1   8
BRANCH   1  10
ATOM     10  C   UNL     1     -12.554   7.410 127.553  0.00  0.00    +0.000 C 
ATOM     11  O   UNL     1     -12.026   6.843 126.592  0.00  0.00    +0.000 OA
BRANCH  10  12
ATOM     12  O   UNL     1     -13.884   7.306 127.759  0.00  0.00    +0.000 OA
ATOM     13  H   UNL     1     -14.353   6.638 127.221  0.00  0.00    +0.000 HD
ENDBRANCH  10  12
ENDBRANCH   1  10
TORSDOF 4
ENDMDL
MODEL 6
REMARK VINA RESULT:      -5.2      2.583      3.830
REMARK  Name = Mandelic acid
REMARK  4 active torsions:
REMARK  status: ('A' for Active; 'I' for Inactive)
REMARK    1  A    between atoms: O_1  and  C_2
REMARK    2  A    between atoms: C_2  and  C_3
REMARK    3  A    between atoms: C_2  and  C_6
REMARK    4  A    between atoms: C_3  and  O_4
REMARK                            x       y       z     vdW  Elec       q    Type
REMARK                         _______ _______ _______ _____ _____    ______ ____
ROOT
ATOM      1  C   UNL     1     -11.213   5.855 130.486  0.00  0.00    +0.000 C 
ENDROOT
BRANCH   1   2
ATOM      2  C   UNL     1     -11.968   6.845 129.633  0.00  0.00    +0.000 A 
ATOM      3  C   UNL     1     -11.794   8.229 129.792  0.00  0.00    +0.000 A 
ATOM      4  C   UNL     1     -12.632   9.117 129.114  0.00  0.00    +0.000 A 
ATOM      5  C   UNL     1     -13.569   8.639 128.198  0.00  0.00    +0.000 A 
ATOM      6  C   UNL     1     -13.715   7.271 127.997  0.00  0.00    +0.000 A 
ATOM      7  C   UNL     1     -12.953   6.383 128.743  0.00  0.00    +0.000 A 
ENDBRANCH   1   2
BRANCH   1   8
ATOM      8  O   UNL     1     -10.494   5.030 129.567  0.00  0.00    +0.000 OA
ATOM      9  H   UNL     1      -9.964   4.411 130.099  0.00  0.00    +0.000 HD
ENDBRANCH   1   8
BRANCH   1  10
ATOM     10  C   UNL     1     -10.266   6.449 131.551  0.00  0.00    +0.000 C 
ATOM     11  O   UNL     1      -9.164   6.907 131.239  0.00  0.00    +0.000 OA
BRANCH  10  12
ATOM     12  O   UNL     1     -10.672   6.465 132.839  0.00  0.00    +0.000 OA
ATOM     13  H   UNL     1     -11.602   6.727 132.995  0.00  0.00    +0.000 HD
ENDBRANCH  10  12
ENDBRANCH   1  10
TORSDOF 4
ENDMDL
MODEL 7
REMARK VINA RESULT:      -5.2      2.301      3.726
REMARK  Name = Mandelic acid
REMARK  4 active torsions:
REMARK  status: ('A' for Active; 'I' for Inactive)
REMARK    1  A    between atoms: O_1  and  C_2
REMARK    2  A    between atoms: C_2  and  C_3
REMARK    3  A    between atoms: C_2  and  C_6
REMARK    4  A    between atoms: C_3  and  O_4
REMARK                            x       y       z     vdW  Elec       q    Type
REMARK                         _______ _______ _______ _____ _____    ______ ____
ROOT
ATOM      1  C   UNL     1     -10.116   6.087 129.686  0.00  0.00    +0.000 C 
ENDROOT
BRANCH   1   2
ATOM      2  C   UNL     1     -11.327   6.885 129.264  0.00  0.00    +0.000 A 
ATOM      3  C   UNL     1     -12.564   6.265 129.031  0.00  0.00    +0.000 A 
ATOM      4  C   UNL     1     -13.615   6.998 128.474  0.00  0.00    +0.000 A 
ATOM      5  C   UNL     1     -13.473   8.368 128.249  0.00  0.00    +0.000 A 
ATOM      6  C   UNL     1     -12.266   9.001 128.523  0.00  0.00    +0.000 A 
ATOM      7  C   UNL     1     -11.190   8.254 128.982  0.00  0.00    +0.000 A 
ENDBRANCH   1   2
BRANCH   1   8
ATOM      8  O   UNL     1      -9.369   5.866 128.487  0.00  0.00    +0.000 OA
ATOM      9  H   UNL     1      -9.695   6.507 127.831  0.00  0.00    +0.000 HD
ENDBRANCH   1   8
BRANCH   1  10
ATOM     10  C   UNL     1      -9.228   6.713 130.782  0.00  0.00    +0.000 C 
ATOM     11  O   UNL     1      -9.539   6.636 131.974  0.00  0.00    +0.000 OA
BRANCH  10  12
ATOM     12  O   UNL     1      -8.094   7.344 130.411  0.00  0.00    +0.000 OA
ATOM     13  H   UNL     1      -8.029   8.290 130.651  0.00  0.00    +0.000 HD
ENDBRANCH  10  12
ENDBRANCH   1  10
TORSDOF 4
ENDMDL
MODEL 8
REMARK VINA RESULT:      -5.0      6.828      9.278
REMARK  Name = Mandelic acid
REMARK  4 active torsions:
REMARK  status: ('A' for Active; 'I' for Inactive)
REMARK    1  A    between atoms: O_1  and  C_2
REMARK    2  A    between atoms: C_2  and  C_3
REMARK    3  A    between atoms: C_2  and  C_6
REMARK    4  A    between atoms: C_3  and  O_4
REMARK                            x       y       z     vdW  Elec       q    Type
REMARK                         _______ _______ _______ _____ _____    ______ ____
ROOT
ATOM      1  C   UNL     1      -8.690   2.561 123.222  0.00  0.00    +0.000 C 
ENDROOT
BRANCH   1   2
ATOM      2  C   UNL     1      -7.993   3.231 122.062  0.00  0.00    +0.000 A 
ATOM      3  C   UNL     1      -8.707   3.668 120.936  0.00  0.00    +0.000 A 
ATOM      4  C   UNL     1      -8.018   4.122 119.809  0.00  0.00    +0.000 A 
ATOM      5  C   UNL     1      -6.628   4.243 119.837  0.00  0.00    +0.000 A 
ATOM      6  C   UNL     1      -5.915   3.858 120.967  0.00  0.00    +0.000 A 
ATOM      7  C   UNL     1      -6.590   3.314 122.051  0.00  0.00    +0.000 A 
ENDBRANCH   1   2
BRANCH   1   8
ATOM      8  O   UNL     1      -8.306   1.186 123.154  0.00  0.00    +0.000 OA
ATOM      9  H   UNL     1      -9.036   0.671 123.539  0.00  0.00    +0.000 HD
ENDBRANCH   1   8
BRANCH   1  10
ATOM     10  C   UNL     1      -8.408   3.145 124.622  0.00  0.00    +0.000 C 
ATOM     11  O   UNL     1      -8.196   2.407 125.589  0.00  0.00    +0.000 OA
BRANCH  10  12
ATOM     12  O   UNL     1      -8.389   4.486 124.771  0.00  0.00    +0.000 OA
ATOM     13  H   UNL     1      -7.508   4.894 124.897  0.00  0.00    +0.000 HD
ENDBRANCH  10  12
ENDBRANCH   1  10
TORSDOF 4
ENDMDL
MODEL 9
REMARK VINA RESULT:      -4.9      7.607      9.262
REMARK  Name = Mandelic acid
REMARK  4 active torsions:
REMARK  status: ('A' for Active; 'I' for Inactive)
REMARK    1  A    between atoms: O_1  and  C_2
REMARK    2  A    between atoms: C_2  and  C_3
REMARK    3  A    between atoms: C_2  and  C_6
REMARK    4  A    between atoms: C_3  and  O_4
REMARK                            x       y       z     vdW  Elec       q    Type
REMARK                         _______ _______ _______ _____ _____    ______ ____
ROOT
ATOM      1  C   UNL     1      -8.546   2.280 123.941  0.00  0.00    +0.000 C 
ENDROOT
BRANCH   1   2
ATOM      2  C   UNL     1      -7.904   2.813 122.683  0.00  0.00    +0.000 A 
ATOM      3  C   UNL     1      -6.511   2.954 122.578  0.00  0.00    +0.000 A 
ATOM      4  C   UNL     1      -5.960   3.611 121.476  0.00  0.00    +0.000 A 
ATOM      5  C   UNL     1      -6.779   4.032 120.428  0.00  0.00    +0.000 A 
ATOM      6  C   UNL     1      -8.156   3.853 120.500  0.00  0.00    +0.000 A 
ATOM      7  C   UNL     1      -8.714   3.290 121.639  0.00  0.00    +0.000 A 
ENDBRANCH   1   2
BRANCH   1   8
ATOM      8  O   UNL     1      -9.138   3.416 124.577  0.00  0.00    +0.000 OA
ATOM      9  H   UNL     1     -10.044   3.160 124.824  0.00  0.00    +0.000 HD
ENDBRANCH   1   8
BRANCH   1  10
ATOM     10  C   UNL     1      -9.581   1.150 123.758  0.00  0.00    +0.000 C 
ATOM     11  O   UNL     1     -10.755   1.299 124.106  0.00  0.00    +0.000 OA
BRANCH  10  12
ATOM     12  O   UNL     1      -9.176  -0.011 123.199  0.00  0.00    +0.000 OA
ATOM     13  H   UNL     1      -8.385  -0.427 123.595  0.00  0.00    +0.000 HD
ENDBRANCH  10  12
ENDBRANCH   1  10
TORSDOF 4
ENDMDL
