MODEL 1
REMARK VINA RESULT:      -9.4      0.000      0.000
REMARK  Name = Manidipine
REMARK  15 active torsions:
REMARK  status: ('A' for Active; 'I' for Inactive)
REMARK    1  A    between atoms: C_1  and  O_2
REMARK    2  A    between atoms: O_2  and  C_3
REMARK    3  A    between atoms: C_3  and  C_5
REMARK    4  A    between atoms: C_6  and  C_7
REMARK    5  A    between atoms: C_9  and  C_10
REMARK    6  A    between atoms: C_11  and  C_22
REMARK    7  A    between atoms: C_12  and  C_13
REMARK    8  A    between atoms: C_15  and  N_19
REMARK    9  A    between atoms: C_22  and  O_24
REMARK   10  A    between atoms: O_24  and  C_25
REMARK   11  A    between atoms: C_25  and  C_26
REMARK   12  A    between atoms: C_26  and  N_27
REMARK   13  A    between atoms: N_30  and  C_33
REMARK   14  A    between atoms: C_33  and  C_34
REMARK   15  A    between atoms: C_33  and  C_40
REMARK                            x       y       z     vdW  Elec       q    Type
REMARK                         _______ _______ _______ _____ _____    ______ ____
ROOT
ATOM      1  C   UNL     1      -5.854  -2.108 128.685  0.00  0.00    +0.000 C 
ATOM      2  O   UNL     1      -4.716  -2.545 128.830  0.00  0.00    +0.000 OA
ENDROOT
BRANCH   1   9
ATOM      3  C   UNL     1      -6.779  -2.241 124.833  0.00  0.00    +0.000 C 
ATOM      4  C   UNL     1      -7.994  -2.824 124.962  0.00  0.00    +0.000 C 
ATOM      5  C   UNL     1      -8.806  -3.440 123.855  0.00  0.00    +0.000 C 
ATOM      6  N   UNL     1      -8.566  -2.920 126.221  0.00  0.00    +0.000 N 
ATOM      7  C   UNL     1      -7.866  -2.793 127.412  0.00  0.00    +0.000 C 
ATOM      8  C   UNL     1      -8.573  -3.334 128.632  0.00  0.00    +0.000 C 
ATOM      9  C   UNL     1      -6.631  -2.222 127.410  0.00  0.00    +0.000 C 
ATOM     10  C   UNL     1      -6.077  -1.663 126.079  0.00  0.00    +0.000 C 
ATOM     11  H   UNL     1      -9.509  -3.300 126.276  0.00  0.00    +0.000 HD
BRANCH  10  12
ATOM     12  C   UNL     1      -6.247  -0.136 126.074  0.00  0.00    +0.000 A 
ATOM     13  C   UNL     1      -7.502   0.452 125.882  0.00  0.00    +0.000 A 
ATOM     14  C   UNL     1      -7.582   1.839 125.690  0.00  0.00    +0.000 A 
ATOM     15  C   UNL     1      -6.454   2.661 125.828  0.00  0.00    +0.000 A 
ATOM     16  C   UNL     1      -5.214   2.084 126.069  0.00  0.00    +0.000 A 
ATOM     17  C   UNL     1      -5.113   0.700 126.176  0.00  0.00    +0.000 A 
BRANCH  14  18
ATOM     18  N   UNL     1      -8.830   2.426 125.190  0.00  0.00    +0.000 N 
ATOM     19  O   UNL     1      -8.892   3.660 125.101  0.00  0.00    +0.000 OA
ATOM     20  O   UNL     1      -9.768   1.655 124.939  0.00  0.00    +0.000 OA
ENDBRANCH  14  18
ENDBRANCH  10  12
BRANCH   3  21
ATOM     21  C   UNL     1      -6.037  -2.152 123.550  0.00  0.00    +0.000 C 
ATOM     22  O   UNL     1      -6.516  -1.630 122.544  0.00  0.00    +0.000 OA
BRANCH  21  24
ATOM     23  C   UNL     1      -4.809  -4.160 123.757  0.00  0.00    +0.000 C 
ATOM     24  O   UNL     1      -4.812  -2.731 123.620  0.00  0.00    +0.000 OA
ENDBRANCH  21  24
ENDBRANCH   3  21
ENDBRANCH   1   9
BRANCH   1  25
ATOM     25  O   UNL     1      -6.527  -1.458 129.676  0.00  0.00    +0.000 OA
BRANCH  25  26
ATOM     26  C   UNL     1      -6.314  -0.029 129.635  0.00  0.00    +0.000 C 
BRANCH  26  27
ATOM     27  C   UNL     1      -7.646   0.733 129.515  0.00  0.00    +0.000 C 
BRANCH  27  28
ATOM     28  N   UNL     1      -7.353   2.176 129.546  0.00  0.00    +0.000 NA
ATOM     29  C   UNL     1      -8.476   3.083 129.198  0.00  0.00    +0.000 C 
ATOM     30  C   UNL     1      -9.570   3.251 130.283  0.00  0.00    +0.000 C 
ATOM     31  N   UNL     1      -9.015   3.594 131.622  0.00  0.00    +0.000 NA
ATOM     32  C   UNL     1      -8.049   2.528 131.928  0.00  0.00    +0.000 C 
ATOM     33  C   UNL     1      -6.878   2.497 130.905  0.00  0.00    +0.000 C 
BRANCH  31  34
ATOM     34  C   UNL     1      -8.391   4.956 131.627  0.00  0.00    +0.000 C 
BRANCH  34  35
ATOM     35  C   UNL     1      -9.465   6.012 131.333  0.00  0.00    +0.000 A 
ATOM     36  C   UNL     1     -10.690   6.014 132.015  0.00  0.00    +0.000 A 
ATOM     37  C   UNL     1     -11.761   6.723 131.478  0.00  0.00    +0.000 A 
ATOM     38  C   UNL     1     -11.590   7.485 130.318  0.00  0.00    +0.000 A 
ATOM     39  C   UNL     1     -10.346   7.563 129.698  0.00  0.00    +0.000 A 
ATOM     40  C   UNL     1      -9.275   6.866 130.231  0.00  0.00    +0.000 A 
ENDBRANCH  34  35
BRANCH  34  41
ATOM     41  C   UNL     1      -7.616   5.295 132.936  0.00  0.00    +0.000 A 
ATOM     42  C   UNL     1      -8.221   5.217 134.201  0.00  0.00    +0.000 A 
ATOM     43  C   UNL     1      -7.527   5.501 135.371  0.00  0.00    +0.000 A 
ATOM     44  C   UNL     1      -6.174   5.785 135.319  0.00  0.00    +0.000 A 
ATOM     45  C   UNL     1      -5.546   5.906 134.092  0.00  0.00    +0.000 A 
ATOM     46  C   UNL     1      -6.284   5.745 132.923  0.00  0.00    +0.000 A 
ENDBRANCH  34  41
ENDBRANCH  31  34
ENDBRANCH  27  28
ENDBRANCH  26  27
ENDBRANCH  25  26
ENDBRANCH   1  25
TORSDOF 12
ENDMDL
MODEL 2
REMARK VINA RESULT:      -9.2      0.908      3.076
REMARK  Name = Manidipine
REMARK  15 active torsions:
REMARK  status: ('A' for Active; 'I' for Inactive)
REMARK    1  A    between atoms: C_1  and  O_2
REMARK    2  A    between atoms: O_2  and  C_3
REMARK    3  A    between atoms: C_3  and  C_5
REMARK    4  A    between atoms: C_6  and  C_7
REMARK    5  A    between atoms: C_9  and  C_10
REMARK    6  A    between atoms: C_11  and  C_22
REMARK    7  A    between atoms: C_12  and  C_13
REMARK    8  A    between atoms: C_15  and  N_19
REMARK    9  A    between atoms: C_22  and  O_24
REMARK   10  A    between atoms: O_24  and  C_25
REMARK   11  A    between atoms: C_25  and  C_26
REMARK   12  A    between atoms: C_26  and  N_27
REMARK   13  A    between atoms: N_30  and  C_33
REMARK   14  A    between atoms: C_33  and  C_34
REMARK   15  A    between atoms: C_33  and  C_40
REMARK                            x       y       z     vdW  Elec       q    Type
REMARK                         _______ _______ _______ _____ _____    ______ ____
ROOT
ATOM      1  C   UNL     1      -5.701  -1.891 128.801  0.00  0.00    +0.000 C 
ATOM      2  O   UNL     1      -5.052  -2.778 129.346  0.00  0.00    +0.000 OA
ENDROOT
BRANCH   1   9
ATOM      3  C   UNL     1      -6.634  -2.243 124.965  0.00  0.00    +0.000 C 
ATOM      4  C   UNL     1      -7.835  -2.845 125.128  0.00  0.00    +0.000 C 
ATOM      5  C   UNL     1      -8.636  -3.536 124.058  0.00  0.00    +0.000 C 
ATOM      6  N   UNL     1      -8.401  -2.889 126.393  0.00  0.00    +0.000 N 
ATOM      7  C   UNL     1      -7.700  -2.685 127.573  0.00  0.00    +0.000 C 
ATOM      8  C   UNL     1      -8.392  -3.178 128.822  0.00  0.00    +0.000 C 
ATOM      9  C   UNL     1      -6.479  -2.088 127.536  0.00  0.00    +0.000 C 
ATOM     10  C   UNL     1      -5.941  -1.585 126.176  0.00  0.00    +0.000 C 
ATOM     11  H   UNL     1      -9.335  -3.287 126.471  0.00  0.00    +0.000 HD
BRANCH  10  12
ATOM     12  C   UNL     1      -6.146  -0.065 126.093  0.00  0.00    +0.000 A 
ATOM     13  C   UNL     1      -7.409   0.483 125.846  0.00  0.00    +0.000 A 
ATOM     14  C   UNL     1      -7.517   1.857 125.585  0.00  0.00    +0.000 A 
ATOM     15  C   UNL     1      -6.411   2.711 125.707  0.00  0.00    +0.000 A 
ATOM     16  C   UNL     1      -5.164   2.176 126.004  0.00  0.00    +0.000 A 
ATOM     17  C   UNL     1      -5.035   0.802 126.180  0.00  0.00    +0.000 A 
BRANCH  14  18
ATOM     18  N   UNL     1      -8.765   2.390 125.029  0.00  0.00    +0.000 N 
ATOM     19  O   UNL     1      -8.907   3.620 125.002  0.00  0.00    +0.000 OA
ATOM     20  O   UNL     1      -9.629   1.575 124.673  0.00  0.00    +0.000 OA
ENDBRANCH  14  18
ENDBRANCH  10  12
BRANCH   3  21
ATOM     21  C   UNL     1      -5.898  -2.203 123.676  0.00  0.00    +0.000 C 
ATOM     22  O   UNL     1      -6.368  -1.691 122.661  0.00  0.00    +0.000 OA
BRANCH  21  24
ATOM     23  C   UNL     1      -4.718  -4.249 123.745  0.00  0.00    +0.000 C 
ATOM     24  O   UNL     1      -4.688  -2.814 123.752  0.00  0.00    +0.000 OA
ENDBRANCH  21  24
ENDBRANCH   3  21
ENDBRANCH   1   9
BRANCH   1  25
ATOM     25  O   UNL     1      -5.770  -0.621 129.290  0.00  0.00    +0.000 OA
BRANCH  25  26
ATOM     26  C   UNL     1      -6.608  -0.531 130.464  0.00  0.00    +0.000 C 
BRANCH  26  27
ATOM     27  C   UNL     1      -7.868   0.310 130.193  0.00  0.00    +0.000 C 
BRANCH  27  28
ATOM     28  N   UNL     1      -7.990   1.314 131.263  0.00  0.00    +0.000 NA
ATOM     29  C   UNL     1      -6.775   2.116 131.554  0.00  0.00    +0.000 C 
ATOM     30  C   UNL     1      -6.429   3.217 130.519  0.00  0.00    +0.000 C 
ATOM     31  N   UNL     1      -7.582   4.106 130.207  0.00  0.00    +0.000 NA
ATOM     32  C   UNL     1      -8.659   3.208 129.765  0.00  0.00    +0.000 C 
ATOM     33  C   UNL     1      -9.089   2.223 130.888  0.00  0.00    +0.000 C 
BRANCH  31  34
ATOM     34  C   UNL     1      -7.973   4.936 131.392  0.00  0.00    +0.000 C 
BRANCH  34  35
ATOM     35  C   UNL     1      -6.779   5.791 131.835  0.00  0.00    +0.000 A 
ATOM     36  C   UNL     1      -6.084   6.599 130.925  0.00  0.00    +0.000 A 
ATOM     37  C   UNL     1      -4.810   7.052 131.259  0.00  0.00    +0.000 A 
ATOM     38  C   UNL     1      -4.270   6.768 132.517  0.00  0.00    +0.000 A 
ATOM     39  C   UNL     1      -5.003   6.051 133.458  0.00  0.00    +0.000 A 
ATOM     40  C   UNL     1      -6.273   5.603 133.135  0.00  0.00    +0.000 A 
ENDBRANCH  34  35
BRANCH  34  41
ATOM     41  C   UNL     1      -9.237   5.818 131.159  0.00  0.00    +0.000 A 
ATOM     42  C   UNL     1      -9.365   6.656 130.041  0.00  0.00    +0.000 A 
ATOM     43  C   UNL     1     -10.498   7.430 129.821  0.00  0.00    +0.000 A 
ATOM     44  C   UNL     1     -11.584   7.320 130.672  0.00  0.00    +0.000 A 
ATOM     45  C   UNL     1     -11.488   6.531 131.805  0.00  0.00    +0.000 A 
ATOM     46  C   UNL     1     -10.299   5.862 132.079  0.00  0.00    +0.000 A 
ENDBRANCH  34  41
ENDBRANCH  31  34
ENDBRANCH  27  28
ENDBRANCH  26  27
ENDBRANCH  25  26
ENDBRANCH   1  25
TORSDOF 12
ENDMDL
MODEL 3
REMARK VINA RESULT:      -9.1      3.391      9.597
REMARK  Name = Manidipine
REMARK  15 active torsions:
REMARK  status: ('A' for Active; 'I' for Inactive)
REMARK    1  A    between atoms: C_1  and  O_2
REMARK    2  A    between atoms: O_2  and  C_3
REMARK    3  A    between atoms: C_3  and  C_5
REMARK    4  A    between atoms: C_6  and  C_7
REMARK    5  A    between atoms: C_9  and  C_10
REMARK    6  A    between atoms: C_11  and  C_22
REMARK    7  A    between atoms: C_12  and  C_13
REMARK    8  A    between atoms: C_15  and  N_19
REMARK    9  A    between atoms: C_22  and  O_24
REMARK   10  A    between atoms: O_24  and  C_25
REMARK   11  A    between atoms: C_25  and  C_26
REMARK   12  A    between atoms: C_26  and  N_27
REMARK   13  A    between atoms: N_30  and  C_33
REMARK   14  A    between atoms: C_33  and  C_34
REMARK   15  A    between atoms: C_33  and  C_40
REMARK                            x       y       z     vdW  Elec       q    Type
REMARK                         _______ _______ _______ _____ _____    ______ ____
ROOT
ATOM      1  C   UNL     1      -3.770   4.838 127.787  0.00  0.00    +0.000 C 
ATOM      2  O   UNL     1      -3.179   4.000 127.113  0.00  0.00    +0.000 OA
ENDROOT
BRANCH   1   9
ATOM      3  C   UNL     1      -2.936   4.884 131.661  0.00  0.00    +0.000 C 
ATOM      4  C   UNL     1      -2.101   5.948 131.651  0.00  0.00    +0.000 C 
ATOM      5  C   UNL     1      -1.174   6.363 132.762  0.00  0.00    +0.000 C 
ATOM      6  N   UNL     1      -2.030   6.740 130.515  0.00  0.00    +0.000 N 
ATOM      7  C   UNL     1      -2.470   6.348 129.258  0.00  0.00    +0.000 C 
ATOM      8  C   UNL     1      -1.934   7.167 128.108  0.00  0.00    +0.000 C 
ATOM      9  C   UNL     1      -3.314   5.288 129.141  0.00  0.00    +0.000 C 
ATOM     10  C   UNL     1      -3.817   4.596 130.429  0.00  0.00    +0.000 C 
ATOM     11  H   UNL     1      -1.446   7.572 130.563  0.00  0.00    +0.000 HD
BRANCH  10  12
ATOM     12  C   UNL     1      -5.246   5.077 130.724  0.00  0.00    +0.000 A 
ATOM     13  C   UNL     1      -6.336   4.203 130.641  0.00  0.00    +0.000 A 
ATOM     14  C   UNL     1      -7.636   4.725 130.726  0.00  0.00    +0.000 A 
ATOM     15  C   UNL     1      -7.860   6.075 131.035  0.00  0.00    +0.000 A 
ATOM     16  C   UNL     1      -6.778   6.934 131.169  0.00  0.00    +0.000 A 
ATOM     17  C   UNL     1      -5.488   6.440 131.000  0.00  0.00    +0.000 A 
BRANCH  14  18
ATOM     18  N   UNL     1      -8.775   3.887 130.340  0.00  0.00    +0.000 N 
ATOM     19  O   UNL     1      -9.019   2.890 131.033  0.00  0.00    +0.000 OA
ATOM     20  O   UNL     1      -9.392   4.194 129.310  0.00  0.00    +0.000 OA
ENDBRANCH  14  18
ENDBRANCH  10  12
BRANCH   3  21
ATOM     21  C   UNL     1      -3.037   3.924 132.790  0.00  0.00    +0.000 C 
ATOM     22  O   UNL     1      -2.401   2.871 132.823  0.00  0.00    +0.000 OA
BRANCH  21  24
ATOM     23  C   UNL     1      -4.997   3.423 134.011  0.00  0.00    +0.000 C 
ATOM     24  O   UNL     1      -3.920   4.331 133.737  0.00  0.00    +0.000 OA
ENDBRANCH  21  24
ENDBRANCH   3  21
ENDBRANCH   1   9
BRANCH   1  25
ATOM     25  O   UNL     1      -4.920   5.441 127.372  0.00  0.00    +0.000 OA
BRANCH  25  26
ATOM     26  C   UNL     1      -5.625   4.655 126.386  0.00  0.00    +0.000 C 
BRANCH  26  27
ATOM     27  C   UNL     1      -6.792   3.876 127.019  0.00  0.00    +0.000 C 
BRANCH  27  28
ATOM     28  N   UNL     1      -6.312   2.527 127.362  0.00  0.00    +0.000 NA
ATOM     29  C   UNL     1      -7.298   1.619 128.000  0.00  0.00    +0.000 C 
ATOM     30  C   UNL     1      -8.379   1.028 127.060  0.00  0.00    +0.000 C 
ATOM     31  N   UNL     1      -7.807   0.402 125.835  0.00  0.00    +0.000 NA
ATOM     32  C   UNL     1      -6.995   1.453 125.203  0.00  0.00    +0.000 C 
ATOM     33  C   UNL     1      -5.821   1.907 126.117  0.00  0.00    +0.000 C 
BRANCH  31  34
ATOM     34  C   UNL     1      -7.008  -0.822 126.165  0.00  0.00    +0.000 C 
BRANCH  34  35
ATOM     35  C   UNL     1      -7.875  -1.795 126.976  0.00  0.00    +0.000 A 
ATOM     36  C   UNL     1      -7.566  -2.111 128.306  0.00  0.00    +0.000 A 
ATOM     37  C   UNL     1      -8.125  -3.251 128.878  0.00  0.00    +0.000 A 
ATOM     38  C   UNL     1      -9.044  -4.021 128.157  0.00  0.00    +0.000 A 
ATOM     39  C   UNL     1      -9.427  -3.648 126.872  0.00  0.00    +0.000 A 
ATOM     40  C   UNL     1      -8.880  -2.512 126.300  0.00  0.00    +0.000 A 
ENDBRANCH  34  35
BRANCH  34  41
ATOM     41  C   UNL     1      -6.387  -1.529 124.923  0.00  0.00    +0.000 A 
ATOM     42  C   UNL     1      -5.414  -2.533 125.045  0.00  0.00    +0.000 A 
ATOM     43  C   UNL     1      -4.873  -3.178 123.940  0.00  0.00    +0.000 A 
ATOM     44  C   UNL     1      -5.357  -2.901 122.674  0.00  0.00    +0.000 A 
ATOM     45  C   UNL     1      -6.291  -1.894 122.503  0.00  0.00    +0.000 A 
ATOM     46  C   UNL     1      -6.730  -1.169 123.607  0.00  0.00    +0.000 A 
ENDBRANCH  34  41
ENDBRANCH  31  34
ENDBRANCH  27  28
ENDBRANCH  26  27
ENDBRANCH  25  26
ENDBRANCH   1  25
TORSDOF 12
ENDMDL
MODEL 4
REMARK VINA RESULT:      -9.0      2.985      9.030
REMARK  Name = Manidipine
REMARK  15 active torsions:
REMARK  status: ('A' for Active; 'I' for Inactive)
REMARK    1  A    between atoms: C_1  and  O_2
REMARK    2  A    between atoms: O_2  and  C_3
REMARK    3  A    between atoms: C_3  and  C_5
REMARK    4  A    between atoms: C_6  and  C_7
REMARK    5  A    between atoms: C_9  and  C_10
REMARK    6  A    between atoms: C_11  and  C_22
REMARK    7  A    between atoms: C_12  and  C_13
REMARK    8  A    between atoms: C_15  and  N_19
REMARK    9  A    between atoms: C_22  and  O_24
REMARK   10  A    between atoms: O_24  and  C_25
REMARK   11  A    between atoms: C_25  and  C_26
REMARK   12  A    between atoms: C_26  and  N_27
REMARK   13  A    between atoms: N_30  and  C_33
REMARK   14  A    between atoms: C_33  and  C_34
REMARK   15  A    between atoms: C_33  and  C_40
REMARK                            x       y       z     vdW  Elec       q    Type
REMARK                         _______ _______ _______ _____ _____    ______ ____
ROOT
ATOM      1  C   UNL     1      -4.278   5.336 127.779  0.00  0.00    +0.000 C 
ATOM      2  O   UNL     1      -4.352   6.499 127.393  0.00  0.00    +0.000 OA
ENDROOT
BRANCH   1   9
ATOM      3  C   UNL     1      -4.362   3.391 131.231  0.00  0.00    +0.000 C 
ATOM      4  C   UNL     1      -3.255   3.947 131.776  0.00  0.00    +0.000 C 
ATOM      5  C   UNL     1      -2.520   3.455 132.993  0.00  0.00    +0.000 C 
ATOM      6  N   UNL     1      -2.687   5.056 131.167  0.00  0.00    +0.000 N 
ATOM      7  C   UNL     1      -2.935   5.442 129.857  0.00  0.00    +0.000 C 
ATOM      8  C   UNL     1      -1.925   6.402 129.272  0.00  0.00    +0.000 C 
ATOM      9  C   UNL     1      -4.019   4.948 129.202  0.00  0.00    +0.000 C 
ATOM     10  C   UNL     1      -4.990   4.021 129.971  0.00  0.00    +0.000 C 
ATOM     11  H   UNL     1      -1.899   5.493 131.638  0.00  0.00    +0.000 HD
BRANCH  10  12
ATOM     12  C   UNL     1      -6.223   4.835 130.391  0.00  0.00    +0.000 A 
ATOM     13  C   UNL     1      -7.518   4.363 130.150  0.00  0.00    +0.000 A 
ATOM     14  C   UNL     1      -8.608   5.218 130.371  0.00  0.00    +0.000 A 
ATOM     15  C   UNL     1      -8.436   6.480 130.960  0.00  0.00    +0.000 A 
ATOM     16  C   UNL     1      -7.155   6.930 131.249  0.00  0.00    +0.000 A 
ATOM     17  C   UNL     1      -6.063   6.120 130.953  0.00  0.00    +0.000 A 
BRANCH  14  18
ATOM     18  N   UNL     1      -9.927   4.856 129.843  0.00  0.00    +0.000 N 
ATOM     19  O   UNL     1     -10.255   3.662 129.877  0.00  0.00    +0.000 OA
ATOM     20  O   UNL     1     -10.613   5.760 129.341  0.00  0.00    +0.000 OA
ENDBRANCH  14  18
ENDBRANCH  10  12
BRANCH   3  21
ATOM     21  C   UNL     1      -5.010   2.160 131.751  0.00  0.00    +0.000 C 
ATOM     22  O   UNL     1      -4.787   1.045 131.281  0.00  0.00    +0.000 OA
BRANCH  21  24
ATOM     23  C   UNL     1      -6.987   1.516 132.874  0.00  0.00    +0.000 C 
ATOM     24  O   UNL     1      -5.878   2.419 132.762  0.00  0.00    +0.000 OA
ENDBRANCH  21  24
ENDBRANCH   3  21
ENDBRANCH   1   9
BRANCH   1  25
ATOM     25  O   UNL     1      -4.412   4.270 126.940  0.00  0.00    +0.000 OA
BRANCH  25  26
ATOM     26  C   UNL     1      -5.522   4.428 126.028  0.00  0.00    +0.000 C 
BRANCH  26  27
ATOM     27  C   UNL     1      -6.854   4.033 126.690  0.00  0.00    +0.000 C 
BRANCH  27  28
ATOM     28  N   UNL     1      -7.431   2.913 125.927  0.00  0.00    +0.000 NA
ATOM     29  C   UNL     1      -6.482   2.113 125.113  0.00  0.00    +0.000 C 
ATOM     30  C   UNL     1      -5.567   1.143 125.902  0.00  0.00    +0.000 C 
ATOM     31  N   UNL     1      -6.319   0.266 126.842  0.00  0.00    +0.000 NA
ATOM     32  C   UNL     1      -7.080   1.182 127.705  0.00  0.00    +0.000 C 
ATOM     33  C   UNL     1      -8.104   2.025 126.894  0.00  0.00    +0.000 C 
BRANCH  31  34
ATOM     34  C   UNL     1      -7.200  -0.699 126.108  0.00  0.00    +0.000 C 
BRANCH  34  35
ATOM     35  C   UNL     1      -6.450  -1.249 124.887  0.00  0.00    +0.000 A 
ATOM     36  C   UNL     1      -6.902  -1.006 123.583  0.00  0.00    +0.000 A 
ATOM     37  C   UNL     1      -6.439  -1.810 122.545  0.00  0.00    +0.000 A 
ATOM     38  C   UNL     1      -5.474  -2.792 122.793  0.00  0.00    +0.000 A 
ATOM     39  C   UNL     1      -4.951  -2.964 124.071  0.00  0.00    +0.000 A 
ATOM     40  C   UNL     1      -5.403  -2.164 125.107  0.00  0.00    +0.000 A 
ENDBRANCH  34  35
BRANCH  34  41
ATOM     41  C   UNL     1      -7.750  -1.857 126.994  0.00  0.00    +0.000 A 
ATOM     42  C   UNL     1      -7.294  -2.074 128.304  0.00  0.00    +0.000 A 
ATOM     43  C   UNL     1      -7.796  -3.093 129.103  0.00  0.00    +0.000 A 
ATOM     44  C   UNL     1      -8.841  -3.877 128.647  0.00  0.00    +0.000 A 
ATOM     45  C   UNL     1      -9.299  -3.720 127.350  0.00  0.00    +0.000 A 
ATOM     46  C   UNL     1      -8.698  -2.779 126.518  0.00  0.00    +0.000 A 
ENDBRANCH  34  41
ENDBRANCH  31  34
ENDBRANCH  27  28
ENDBRANCH  26  27
ENDBRANCH  25  26
ENDBRANCH   1  25
TORSDOF 12
ENDMDL
MODEL 5
REMARK VINA RESULT:      -9.0      3.060      9.018
REMARK  Name = Manidipine
REMARK  15 active torsions:
REMARK  status: ('A' for Active; 'I' for Inactive)
REMARK    1  A    between atoms: C_1  and  O_2
REMARK    2  A    between atoms: O_2  and  C_3
REMARK    3  A    between atoms: C_3  and  C_5
REMARK    4  A    between atoms: C_6  and  C_7
REMARK    5  A    between atoms: C_9  and  C_10
REMARK    6  A    between atoms: C_11  and  C_22
REMARK    7  A    between atoms: C_12  and  C_13
REMARK    8  A    between atoms: C_15  and  N_19
REMARK    9  A    between atoms: C_22  and  O_24
REMARK   10  A    between atoms: O_24  and  C_25
REMARK   11  A    between atoms: C_25  and  C_26
REMARK   12  A    between atoms: C_26  and  N_27
REMARK   13  A    between atoms: N_30  and  C_33
REMARK   14  A    between atoms: C_33  and  C_34
REMARK   15  A    between atoms: C_33  and  C_40
REMARK                            x       y       z     vdW  Elec       q    Type
REMARK                         _______ _______ _______ _____ _____    ______ ____
ROOT
ATOM      1  C   UNL     1      -4.076   5.388 127.775  0.00  0.00    +0.000 C 
ATOM      2  O   UNL     1      -4.431   6.507 127.418  0.00  0.00    +0.000 OA
ENDROOT
BRANCH   1   9
ATOM      3  C   UNL     1      -4.215   3.455 131.233  0.00  0.00    +0.000 C 
ATOM      4  C   UNL     1      -3.122   4.021 131.797  0.00  0.00    +0.000 C 
ATOM      5  C   UNL     1      -2.407   3.538 133.029  0.00  0.00    +0.000 C 
ATOM      6  N   UNL     1      -2.550   5.131 131.194  0.00  0.00    +0.000 N 
ATOM      7  C   UNL     1      -2.774   5.511 129.878  0.00  0.00    +0.000 C 
ATOM      8  C   UNL     1      -1.760   6.475 129.309  0.00  0.00    +0.000 C 
ATOM      9  C   UNL     1      -3.843   5.007 129.204  0.00  0.00    +0.000 C 
ATOM     10  C   UNL     1      -4.822   4.077 129.958  0.00  0.00    +0.000 C 
ATOM     11  H   UNL     1      -1.773   5.575 131.679  0.00  0.00    +0.000 HD
BRANCH  10  12
ATOM     12  C   UNL     1      -6.069   4.883 130.351  0.00  0.00    +0.000 A 
ATOM     13  C   UNL     1      -7.354   4.421 130.051  0.00  0.00    +0.000 A 
ATOM     14  C   UNL     1      -8.450   5.274 130.252  0.00  0.00    +0.000 A 
ATOM     15  C   UNL     1      -8.298   6.521 130.876  0.00  0.00    +0.000 A 
ATOM     16  C   UNL     1      -7.027   6.961 131.223  0.00  0.00    +0.000 A 
ATOM     17  C   UNL     1      -5.927   6.155 130.948  0.00  0.00    +0.000 A 
BRANCH  14  18
ATOM     18  N   UNL     1      -9.749   4.928 129.667  0.00  0.00    +0.000 N 
ATOM     19  O   UNL     1     -10.187   3.787 129.866  0.00  0.00    +0.000 OA
ATOM     20  O   UNL     1     -10.306   5.781 128.959  0.00  0.00    +0.000 OA
ENDBRANCH  14  18
ENDBRANCH  10  12
BRANCH   3  21
ATOM     21  C   UNL     1      -4.864   2.222 131.745  0.00  0.00    +0.000 C 
ATOM     22  O   UNL     1      -5.762   2.247 132.586  0.00  0.00    +0.000 OA
BRANCH  21  24
ATOM     23  C   UNL     1      -4.336  -0.060 132.056  0.00  0.00    +0.000 C 
ATOM     24  O   UNL     1      -4.334   1.095 131.204  0.00  0.00    +0.000 OA
ENDBRANCH  21  24
ENDBRANCH   3  21
ENDBRANCH   1   9
BRANCH   1  25
ATOM     25  O   UNL     1      -3.845   4.372 126.896  0.00  0.00    +0.000 OA
BRANCH  25  26
ATOM     26  C   UNL     1      -4.935   4.194 125.965  0.00  0.00    +0.000 C 
BRANCH  26  27
ATOM     27  C   UNL     1      -6.006   3.244 126.530  0.00  0.00    +0.000 C 
BRANCH  27  28
ATOM     28  N   UNL     1      -5.483   1.869 126.457  0.00  0.00    +0.000 NA
ATOM     29  C   UNL     1      -5.262   1.179 127.753  0.00  0.00    +0.000 C 
ATOM     30  C   UNL     1      -6.537   0.688 128.484  0.00  0.00    +0.000 C 
ATOM     31  N   UNL     1      -7.436  -0.116 127.610  0.00  0.00    +0.000 NA
ATOM     32  C   UNL     1      -7.722   0.743 126.451  0.00  0.00    +0.000 C 
ATOM     33  C   UNL     1      -6.434   1.081 125.649  0.00  0.00    +0.000 C 
BRANCH  31  34
ATOM     34  C   UNL     1      -6.805  -1.418 127.221  0.00  0.00    +0.000 C 
BRANCH  34  35
ATOM     35  C   UNL     1      -6.678  -2.314 128.460  0.00  0.00    +0.000 A 
ATOM     36  C   UNL     1      -7.757  -2.512 129.331  0.00  0.00    +0.000 A 
ATOM     37  C   UNL     1      -7.513  -3.002 130.612  0.00  0.00    +0.000 A 
ATOM     38  C   UNL     1      -6.217  -3.366 130.989  0.00  0.00    +0.000 A 
ATOM     39  C   UNL     1      -5.161  -3.265 130.088  0.00  0.00    +0.000 A 
ATOM     40  C   UNL     1      -5.398  -2.784 128.812  0.00  0.00    +0.000 A 
ENDBRANCH  34  35
BRANCH  34  41
ATOM     41  C   UNL     1      -7.543  -2.161 126.067  0.00  0.00    +0.000 A 
ATOM     42  C   UNL     1      -8.886  -2.555 126.173  0.00  0.00    +0.000 A 
ATOM     43  C   UNL     1      -9.552  -3.201 125.139  0.00  0.00    +0.000 A 
ATOM     44  C   UNL     1      -8.918  -3.394 123.924  0.00  0.00    +0.000 A 
ATOM     45  C   UNL     1      -7.584  -3.052 123.787  0.00  0.00    +0.000 A 
ATOM     46  C   UNL     1      -6.894  -2.523 124.874  0.00  0.00    +0.000 A 
ENDBRANCH  34  41
ENDBRANCH  31  34
ENDBRANCH  27  28
ENDBRANCH  26  27
ENDBRANCH  25  26
ENDBRANCH   1  25
TORSDOF 12
ENDMDL
MODEL 6
REMARK VINA RESULT:      -8.7      3.468      9.569
REMARK  Name = Manidipine
REMARK  15 active torsions:
REMARK  status: ('A' for Active; 'I' for Inactive)
REMARK    1  A    between atoms: C_1  and  O_2
REMARK    2  A    between atoms: O_2  and  C_3
REMARK    3  A    between atoms: C_3  and  C_5
REMARK    4  A    between atoms: C_6  and  C_7
REMARK    5  A    between atoms: C_9  and  C_10
REMARK    6  A    between atoms: C_11  and  C_22
REMARK    7  A    between atoms: C_12  and  C_13
REMARK    8  A    between atoms: C_15  and  N_19
REMARK    9  A    between atoms: C_22  and  O_24
REMARK   10  A    between atoms: O_24  and  C_25
REMARK   11  A    between atoms: C_25  and  C_26
REMARK   12  A    between atoms: C_26  and  N_27
REMARK   13  A    between atoms: N_30  and  C_33
REMARK   14  A    between atoms: C_33  and  C_34
REMARK   15  A    between atoms: C_33  and  C_40
REMARK                            x       y       z     vdW  Elec       q    Type
REMARK                         _______ _______ _______ _____ _____    ______ ____
ROOT
ATOM      1  C   UNL     1      -7.749   5.933 130.811  0.00  0.00    +0.000 C 
ATOM      2  O   UNL     1      -8.324   6.939 130.409  0.00  0.00    +0.000 OA
ENDROOT
BRANCH   1   9
ATOM      3  C   UNL     1      -4.197   6.643 132.420  0.00  0.00    +0.000 C 
ATOM      4  C   UNL     1      -4.529   6.384 133.706  0.00  0.00    +0.000 C 
ATOM      5  C   UNL     1      -3.715   6.734 134.922  0.00  0.00    +0.000 C 
ATOM      6  N   UNL     1      -5.744   5.775 133.980  0.00  0.00    +0.000 N 
ATOM      7  C   UNL     1      -6.810   5.718 133.093  0.00  0.00    +0.000 C 
ATOM      8  C   UNL     1      -8.146   5.391 133.717  0.00  0.00    +0.000 C 
ATOM      9  C   UNL     1      -6.600   5.961 131.771  0.00  0.00    +0.000 C 
ATOM     10  C   UNL     1      -5.154   6.220 131.286  0.00  0.00    +0.000 C 
ATOM     11  H   UNL     1      -5.934   5.530 134.949  0.00  0.00    +0.000 HD
BRANCH  10  12
ATOM     12  C   UNL     1      -4.611   4.938 130.637  0.00  0.00    +0.000 A 
ATOM     13  C   UNL     1      -3.992   4.968 129.383  0.00  0.00    +0.000 A 
ATOM     14  C   UNL     1      -3.688   3.757 128.744  0.00  0.00    +0.000 A 
ATOM     15  C   UNL     1      -3.861   2.526 129.394  0.00  0.00    +0.000 A 
ATOM     16  C   UNL     1      -4.429   2.497 130.661  0.00  0.00    +0.000 A 
ATOM     17  C   UNL     1      -4.812   3.690 131.266  0.00  0.00    +0.000 A 
BRANCH  14  18
ATOM     18  N   UNL     1      -3.327   3.763 127.323  0.00  0.00    +0.000 N 
ATOM     19  O   UNL     1      -4.006   4.460 126.557  0.00  0.00    +0.000 OA
ATOM     20  O   UNL     1      -2.397   3.025 126.963  0.00  0.00    +0.000 OA
ENDBRANCH  14  18
ENDBRANCH  10  12
BRANCH   3  21
ATOM     21  C   UNL     1      -2.961   7.359 132.013  0.00  0.00    +0.000 C 
ATOM     22  O   UNL     1      -2.969   8.527 131.627  0.00  0.00    +0.000 OA
BRANCH  21  24
ATOM     23  C   UNL     1      -0.664   7.222 132.551  0.00  0.00    +0.000 C 
ATOM     24  O   UNL     1      -1.858   6.572 132.091  0.00  0.00    +0.000 OA
ENDBRANCH  21  24
ENDBRANCH   3  21
ENDBRANCH   1   9
BRANCH   1  25
ATOM     25  O   UNL     1      -8.093   4.676 130.410  0.00  0.00    +0.000 OA
BRANCH  25  26
ATOM     26  C   UNL     1      -8.490   4.634 129.022  0.00  0.00    +0.000 C 
BRANCH  26  27
ATOM     27  C   UNL     1      -7.390   4.012 128.142  0.00  0.00    +0.000 C 
BRANCH  27  28
ATOM     28  N   UNL     1      -8.019   3.022 127.252  0.00  0.00    +0.000 NA
ATOM     29  C   UNL     1      -7.215   2.583 126.083  0.00  0.00    +0.000 C 
ATOM     30  C   UNL     1      -6.051   1.608 126.393  0.00  0.00    +0.000 C 
ATOM     31  N   UNL     1      -6.473   0.437 127.210  0.00  0.00    +0.000 NA
ATOM     32  C   UNL     1      -7.095   1.005 128.415  0.00  0.00    +0.000 C 
ATOM     33  C   UNL     1      -8.357   1.846 128.074  0.00  0.00    +0.000 C 
BRANCH  31  34
ATOM     34  C   UNL     1      -7.404  -0.457 126.448  0.00  0.00    +0.000 C 
BRANCH  34  35
ATOM     35  C   UNL     1      -6.746  -0.873 125.126  0.00  0.00    +0.000 A 
ATOM     36  C   UNL     1      -7.346  -0.589 123.892  0.00  0.00    +0.000 A 
ATOM     37  C   UNL     1      -6.935  -1.291 122.762  0.00  0.00    +0.000 A 
ATOM     38  C   UNL     1      -5.883  -2.207 122.848  0.00  0.00    +0.000 A 
ATOM     39  C   UNL     1      -5.219  -2.414 124.054  0.00  0.00    +0.000 A 
ATOM     40  C   UNL     1      -5.619  -1.715 125.180  0.00  0.00    +0.000 A 
ENDBRANCH  34  35
BRANCH  34  41
ATOM     41  C   UNL     1      -7.884  -1.704 127.250  0.00  0.00    +0.000 A 
ATOM     42  C   UNL     1      -7.508  -1.922 128.585  0.00  0.00    +0.000 A 
ATOM     43  C   UNL     1      -7.949  -3.023 129.308  0.00  0.00    +0.000 A 
ATOM     44  C   UNL     1      -8.860  -3.899 128.744  0.00  0.00    +0.000 A 
ATOM     45  C   UNL     1      -9.232  -3.742 127.420  0.00  0.00    +0.000 A 
ATOM     46  C   UNL     1      -8.681  -2.707 126.670  0.00  0.00    +0.000 A 
ENDBRANCH  34  41
ENDBRANCH  31  34
ENDBRANCH  27  28
ENDBRANCH  26  27
ENDBRANCH  25  26
ENDBRANCH   1  25
TORSDOF 12
ENDMDL
MODEL 7
REMARK VINA RESULT:      -8.7      2.032      4.206
REMARK  Name = Manidipine
REMARK  15 active torsions:
REMARK  status: ('A' for Active; 'I' for Inactive)
REMARK    1  A    between atoms: C_1  and  O_2
REMARK    2  A    between atoms: O_2  and  C_3
REMARK    3  A    between atoms: C_3  and  C_5
REMARK    4  A    between atoms: C_6  and  C_7
REMARK    5  A    between atoms: C_9  and  C_10
REMARK    6  A    between atoms: C_11  and  C_22
REMARK    7  A    between atoms: C_12  and  C_13
REMARK    8  A    between atoms: C_15  and  N_19
REMARK    9  A    between atoms: C_22  and  O_24
REMARK   10  A    between atoms: O_24  and  C_25
REMARK   11  A    between atoms: C_25  and  C_26
REMARK   12  A    between atoms: C_26  and  N_27
REMARK   13  A    between atoms: N_30  and  C_33
REMARK   14  A    between atoms: C_33  and  C_34
REMARK   15  A    between atoms: C_33  and  C_40
REMARK                            x       y       z     vdW  Elec       q    Type
REMARK                         _______ _______ _______ _____ _____    ______ ____
ROOT
ATOM      1  C   UNL     1      -7.452  -2.291 129.457  0.00  0.00    +0.000 C 
ATOM      2  O   UNL     1      -7.283  -3.503 129.353  0.00  0.00    +0.000 OA
ENDROOT
BRANCH   1   9
ATOM      3  C   UNL     1      -6.921   0.684 126.892  0.00  0.00    +0.000 C 
ATOM      4  C   UNL     1      -5.611   0.907 127.147  0.00  0.00    +0.000 C 
ATOM      5  C   UNL     1      -4.815   2.111 126.721  0.00  0.00    +0.000 C 
ATOM      6  N   UNL     1      -4.904  -0.015 127.903  0.00  0.00    +0.000 N 
ATOM      7  C   UNL     1      -5.489  -0.972 128.721  0.00  0.00    +0.000 C 
ATOM      8  C   UNL     1      -4.569  -1.583 129.751  0.00  0.00    +0.000 C 
ATOM      9  C   UNL     1      -6.803  -1.282 128.560  0.00  0.00    +0.000 C 
ATOM     10  C   UNL     1      -7.589  -0.606 127.412  0.00  0.00    +0.000 C 
ATOM     11  H   UNL     1      -3.905   0.145 128.019  0.00  0.00    +0.000 HD
BRANCH  10  12
ATOM     12  C   UNL     1      -7.714  -1.598 126.246  0.00  0.00    +0.000 A 
ATOM     13  C   UNL     1      -6.630  -1.865 125.402  0.00  0.00    +0.000 A 
ATOM     14  C   UNL     1      -6.841  -2.622 124.240  0.00  0.00    +0.000 A 
ATOM     15  C   UNL     1      -8.077  -3.233 123.982  0.00  0.00    +0.000 A 
ATOM     16  C   UNL     1      -9.142  -3.011 124.846  0.00  0.00    +0.000 A 
ATOM     17  C   UNL     1      -8.962  -2.191 125.955  0.00  0.00    +0.000 A 
BRANCH  14  18
ATOM     18  N   UNL     1      -5.804  -2.654 123.203  0.00  0.00    +0.000 N 
ATOM     19  O   UNL     1      -6.017  -2.031 122.155  0.00  0.00    +0.000 OA
ATOM     20  O   UNL     1      -4.801  -3.352 123.415  0.00  0.00    +0.000 OA
ENDBRANCH  14  18
ENDBRANCH  10  12
BRANCH   3  21
ATOM     21  C   UNL     1      -7.795   1.636 126.162  0.00  0.00    +0.000 C 
ATOM     22  O   UNL     1      -8.008   1.546 124.953  0.00  0.00    +0.000 OA
BRANCH  21  24
ATOM     23  C   UNL     1      -7.966   3.954 126.586  0.00  0.00    +0.000 C 
ATOM     24  O   UNL     1      -8.288   2.609 126.969  0.00  0.00    +0.000 OA
ENDBRANCH  21  24
ENDBRANCH   3  21
ENDBRANCH   1   9
BRANCH   1  25
ATOM     25  O   UNL     1      -8.244  -1.737 130.417  0.00  0.00    +0.000 OA
BRANCH  25  26
ATOM     26  C   UNL     1      -7.560  -1.605 131.683  0.00  0.00    +0.000 C 
BRANCH  26  27
ATOM     27  C   UNL     1      -7.841  -0.239 132.334  0.00  0.00    +0.000 C 
BRANCH  27  28
ATOM     28  N   UNL     1      -8.128   0.730 131.262  0.00  0.00    +0.000 NA
ATOM     29  C   UNL     1      -9.310   1.605 131.466  0.00  0.00    +0.000 C 
ATOM     30  C   UNL     1      -9.132   2.751 132.494  0.00  0.00    +0.000 C 
ATOM     31  N   UNL     1      -7.910   3.567 132.253  0.00  0.00    +0.000 NA
ATOM     32  C   UNL     1      -6.795   2.608 132.249  0.00  0.00    +0.000 C 
ATOM     33  C   UNL     1      -6.927   1.571 131.099  0.00  0.00    +0.000 C 
BRANCH  31  34
ATOM     34  C   UNL     1      -8.009   4.340 130.973  0.00  0.00    +0.000 C 
BRANCH  34  35
ATOM     35  C   UNL     1      -9.245   5.249 131.020  0.00  0.00    +0.000 A 
ATOM     36  C   UNL     1      -9.634   5.890 132.204  0.00  0.00    +0.000 A 
ATOM     37  C   UNL     1     -10.932   6.384 132.310  0.00  0.00    +0.000 A 
ATOM     38  C   UNL     1     -11.804   6.311 131.219  0.00  0.00    +0.000 A 
ATOM     39  C   UNL     1     -11.382   5.766 130.010  0.00  0.00    +0.000 A 
ATOM     40  C   UNL     1     -10.091   5.279 129.895  0.00  0.00    +0.000 A 
ENDBRANCH  34  35
BRANCH  34  41
ATOM     41  C   UNL     1      -6.728   5.155 130.623  0.00  0.00    +0.000 A 
ATOM     42  C   UNL     1      -6.386   6.335 131.303  0.00  0.00    +0.000 A 
ATOM     43  C   UNL     1      -5.235   7.054 131.006  0.00  0.00    +0.000 A 
ATOM     44  C   UNL     1      -4.336   6.563 130.075  0.00  0.00    +0.000 A 
ATOM     45  C   UNL     1      -4.649   5.421 129.357  0.00  0.00    +0.000 A 
ATOM     46  C   UNL     1      -5.867   4.784 129.576  0.00  0.00    +0.000 A 
ENDBRANCH  34  41
ENDBRANCH  31  34
ENDBRANCH  27  28
ENDBRANCH  26  27
ENDBRANCH  25  26
ENDBRANCH   1  25
TORSDOF 12
ENDMDL
MODEL 8
REMARK VINA RESULT:      -8.5      3.660      8.404
REMARK  Name = Manidipine
REMARK  15 active torsions:
REMARK  status: ('A' for Active; 'I' for Inactive)
REMARK    1  A    between atoms: C_1  and  O_2
REMARK    2  A    between atoms: O_2  and  C_3
REMARK    3  A    between atoms: C_3  and  C_5
REMARK    4  A    between atoms: C_6  and  C_7
REMARK    5  A    between atoms: C_9  and  C_10
REMARK    6  A    between atoms: C_11  and  C_22
REMARK    7  A    between atoms: C_12  and  C_13
REMARK    8  A    between atoms: C_15  and  N_19
REMARK    9  A    between atoms: C_22  and  O_24
REMARK   10  A    between atoms: O_24  and  C_25
REMARK   11  A    between atoms: C_25  and  C_26
REMARK   12  A    between atoms: C_26  and  N_27
REMARK   13  A    between atoms: N_30  and  C_33
REMARK   14  A    between atoms: C_33  and  C_34
REMARK   15  A    between atoms: C_33  and  C_40
REMARK                            x       y       z     vdW  Elec       q    Type
REMARK                         _______ _______ _______ _____ _____    ______ ____
ROOT
ATOM      1  C   UNL     1      -6.014   1.610 131.129  0.00  0.00    +0.000 C 
ATOM      2  O   UNL     1      -5.409   2.372 131.877  0.00  0.00    +0.000 OA
ENDROOT
BRANCH   1   9
ATOM      3  C   UNL     1      -6.412  -2.166 132.267  0.00  0.00    +0.000 C 
ATOM      4  C   UNL     1      -7.652  -2.062 132.800  0.00  0.00    +0.000 C 
ATOM      5  C   UNL     1      -8.327  -3.073 133.686  0.00  0.00    +0.000 C 
ATOM      6  N   UNL     1      -8.393  -0.914 132.565  0.00  0.00    +0.000 N 
ATOM      7  C   UNL     1      -7.857   0.289 132.129  0.00  0.00    +0.000 C 
ATOM      8  C   UNL     1      -8.741   1.497 132.333  0.00  0.00    +0.000 C 
ATOM      9  C   UNL     1      -6.614   0.312 131.575  0.00  0.00    +0.000 C 
ATOM     10  C   UNL     1      -5.866  -1.027 131.381  0.00  0.00    +0.000 C 
ATOM     11  H   UNL     1      -9.347  -0.894 132.919  0.00  0.00    +0.000 HD
BRANCH  10  12
ATOM     12  C   UNL     1      -5.982  -1.452 129.910  0.00  0.00    +0.000 A 
ATOM     13  C   UNL     1      -7.227  -1.710 129.326  0.00  0.00    +0.000 A 
ATOM     14  C   UNL     1      -7.275  -2.280 128.046  0.00  0.00    +0.000 A 
ATOM     15  C   UNL     1      -6.110  -2.464 127.285  0.00  0.00    +0.000 A 
ATOM     16  C   UNL     1      -4.875  -2.160 127.844  0.00  0.00    +0.000 A 
ATOM     17  C   UNL     1      -4.815  -1.674 129.146  0.00  0.00    +0.000 A 
BRANCH  14  18
ATOM     18  N   UNL     1      -8.539  -2.834 127.550  0.00  0.00    +0.000 N 
ATOM     19  O   UNL     1      -9.042  -3.775 128.177  0.00  0.00    +0.000 OA
ATOM     20  O   UNL     1      -8.999  -2.362 126.499  0.00  0.00    +0.000 OA
ENDBRANCH  14  18
ENDBRANCH  10  12
BRANCH   3  21
ATOM     21  C   UNL     1      -5.500  -3.312 132.515  0.00  0.00    +0.000 C 
ATOM     22  O   UNL     1      -5.516  -4.331 131.826  0.00  0.00    +0.000 OA
BRANCH  21  24
ATOM     23  C   UNL     1      -3.315  -3.465 133.401  0.00  0.00    +0.000 C 
ATOM     24  O   UNL     1      -4.693  -3.108 133.586  0.00  0.00    +0.000 OA
ENDBRANCH  21  24
ENDBRANCH   3  21
ENDBRANCH   1   9
BRANCH   1  25
ATOM     25  O   UNL     1      -6.193   1.865 129.803  0.00  0.00    +0.000 OA
BRANCH  25  26
ATOM     26  C   UNL     1      -4.945   2.125 129.123  0.00  0.00    +0.000 C 
BRANCH  26  27
ATOM     27  C   UNL     1      -5.135   3.111 127.956  0.00  0.00    +0.000 C 
BRANCH  27  28
ATOM     28  N   UNL     1      -4.907   2.381 126.697  0.00  0.00    +0.000 NA
ATOM     29  C   UNL     1      -5.688   1.132 126.509  0.00  0.00    +0.000 C 
ATOM     30  C   UNL     1      -7.188   1.319 126.164  0.00  0.00    +0.000 C 
ATOM     31  N   UNL     1      -7.412   2.254 125.027  0.00  0.00    +0.000 NA
ATOM     32  C   UNL     1      -6.743   3.505 125.413  0.00  0.00    +0.000 C 
ATOM     33  C   UNL     1      -5.210   3.310 125.592  0.00  0.00    +0.000 C 
BRANCH  31  34
ATOM     34  C   UNL     1      -6.888   1.692 123.741  0.00  0.00    +0.000 C 
BRANCH  34  35
ATOM     35  C   UNL     1      -7.433   0.271 123.543  0.00  0.00    +0.000 A 
ATOM     36  C   UNL     1      -6.580  -0.806 123.275  0.00  0.00    +0.000 A 
ATOM     37  C   UNL     1      -7.113  -1.975 122.736  0.00  0.00    +0.000 A 
ATOM     38  C   UNL     1      -8.493  -2.094 122.544  0.00  0.00    +0.000 A 
ATOM     39  C   UNL     1      -9.351  -1.059 122.907  0.00  0.00    +0.000 A 
ATOM     40  C   UNL     1      -8.828   0.102 123.449  0.00  0.00    +0.000 A 
ENDBRANCH  34  35
BRANCH  34  41
ATOM     41  C   UNL     1      -7.178   2.581 122.495  0.00  0.00    +0.000 A 
ATOM     42  C   UNL     1      -6.149   3.089 121.685  0.00  0.00    +0.000 A 
ATOM     43  C   UNL     1      -6.406   3.866 120.563  0.00  0.00    +0.000 A 
ATOM     44  C   UNL     1      -7.711   4.086 120.160  0.00  0.00    +0.000 A 
ATOM     45  C   UNL     1      -8.756   3.634 120.946  0.00  0.00    +0.000 A 
ATOM     46  C   UNL     1      -8.482   2.967 122.137  0.00  0.00    +0.000 A 
ENDBRANCH  34  41
ENDBRANCH  31  34
ENDBRANCH  27  28
ENDBRANCH  26  27
ENDBRANCH  25  26
ENDBRANCH   1  25
TORSDOF 12
ENDMDL
MODEL 9
REMARK VINA RESULT:      -8.5      3.842      9.678
REMARK  Name = Manidipine
REMARK  15 active torsions:
REMARK  status: ('A' for Active; 'I' for Inactive)
REMARK    1  A    between atoms: C_1  and  O_2
REMARK    2  A    between atoms: O_2  and  C_3
REMARK    3  A    between atoms: C_3  and  C_5
REMARK    4  A    between atoms: C_6  and  C_7
REMARK    5  A    between atoms: C_9  and  C_10
REMARK    6  A    between atoms: C_11  and  C_22
REMARK    7  A    between atoms: C_12  and  C_13
REMARK    8  A    between atoms: C_15  and  N_19
REMARK    9  A    between atoms: C_22  and  O_24
REMARK   10  A    between atoms: O_24  and  C_25
REMARK   11  A    between atoms: C_25  and  C_26
REMARK   12  A    between atoms: C_26  and  N_27
REMARK   13  A    between atoms: N_30  and  C_33
REMARK   14  A    between atoms: C_33  and  C_34
REMARK   15  A    between atoms: C_33  and  C_40
REMARK                            x       y       z     vdW  Elec       q    Type
REMARK                         _______ _______ _______ _____ _____    ______ ____
ROOT
ATOM      1  C   UNL     1      -7.802   5.268 131.409  0.00  0.00    +0.000 C 
ATOM      2  O   UNL     1      -8.363   6.357 131.335  0.00  0.00    +0.000 OA
ENDROOT
BRANCH   1   9
ATOM      3  C   UNL     1      -4.250   5.335 133.166  0.00  0.00    +0.000 C 
ATOM      4  C   UNL     1      -4.618   4.761 134.334  0.00  0.00    +0.000 C 
ATOM      5  C   UNL     1      -3.810   4.731 135.604  0.00  0.00    +0.000 C 
ATOM      6  N   UNL     1      -5.866   4.165 134.430  0.00  0.00    +0.000 N 
ATOM      7  C   UNL     1      -6.917   4.404 133.556  0.00  0.00    +0.000 C 
ATOM      8  C   UNL     1      -8.279   3.993 134.064  0.00  0.00    +0.000 C 
ATOM      9  C   UNL     1      -6.671   4.979 132.348  0.00  0.00    +0.000 C 
ATOM     10  C   UNL     1      -5.206   5.281 131.956  0.00  0.00    +0.000 C 
ATOM     11  H   UNL     1      -6.086   3.682 135.298  0.00  0.00    +0.000 HD
BRANCH  10  12
ATOM     12  C   UNL     1      -4.715   4.192 130.991  0.00  0.00    +0.000 A 
ATOM     13  C   UNL     1      -4.192   4.520 129.736  0.00  0.00    +0.000 A 
ATOM     14  C   UNL     1      -3.938   3.493 128.813  0.00  0.00    +0.000 A 
ATOM     15  C   UNL     1      -4.064   2.143 129.173  0.00  0.00    +0.000 A 
ATOM     16  C   UNL     1      -4.535   1.814 130.437  0.00  0.00    +0.000 A 
ATOM     17  C   UNL     1      -4.870   2.829 131.328  0.00  0.00    +0.000 A 
BRANCH  14  18
ATOM     18  N   UNL     1      -3.685   3.832 127.409  0.00  0.00    +0.000 N 
ATOM     19  O   UNL     1      -3.825   5.014 127.066  0.00  0.00    +0.000 OA
ATOM     20  O   UNL     1      -3.400   2.905 126.637  0.00  0.00    +0.000 OA
ENDBRANCH  14  18
ENDBRANCH  10  12
BRANCH   3  21
ATOM     21  C   UNL     1      -2.973   6.068 132.971  0.00  0.00    +0.000 C 
ATOM     22  O   UNL     1      -1.929   5.504 132.643  0.00  0.00    +0.000 OA
BRANCH  21  24
ATOM     23  C   UNL     1      -2.046   8.225 132.702  0.00  0.00    +0.000 C 
ATOM     24  O   UNL     1      -3.094   7.396 133.225  0.00  0.00    +0.000 OA
ENDBRANCH  21  24
ENDBRANCH   3  21
ENDBRANCH   1   9
BRANCH   1  25
ATOM     25  O   UNL     1      -8.148   4.205 130.630  0.00  0.00    +0.000 OA
BRANCH  25  26
ATOM     26  C   UNL     1      -8.453   4.598 129.273  0.00  0.00    +0.000 C 
BRANCH  26  27
ATOM     27  C   UNL     1      -7.579   3.839 128.258  0.00  0.00    +0.000 C 
BRANCH  27  28
ATOM     28  N   UNL     1      -8.370   3.635 127.033  0.00  0.00    +0.000 NA
ATOM     29  C   UNL     1      -7.993   4.465 125.861  0.00  0.00    +0.000 C 
ATOM     30  C   UNL     1      -6.694   4.046 125.127  0.00  0.00    +0.000 C 
ATOM     31  N   UNL     1      -6.662   2.599 124.778  0.00  0.00    +0.000 NA
ATOM     32  C   UNL     1      -6.871   1.886 126.047  0.00  0.00    +0.000 C 
ATOM     33  C   UNL     1      -8.258   2.210 126.671  0.00  0.00    +0.000 C 
BRANCH  31  34
ATOM     34  C   UNL     1      -7.698   2.259 123.749  0.00  0.00    +0.000 C 
BRANCH  34  35
ATOM     35  C   UNL     1      -7.451   3.089 122.482  0.00  0.00    +0.000 A 
ATOM     36  C   UNL     1      -8.507   3.472 121.645  0.00  0.00    +0.000 A 
ATOM     37  C   UNL     1      -8.225   3.881 120.344  0.00  0.00    +0.000 A 
ATOM     38  C   UNL     1      -6.899   3.982 119.910  0.00  0.00    +0.000 A 
ATOM     39  C   UNL     1      -5.847   3.698 120.775  0.00  0.00    +0.000 A 
ATOM     40  C   UNL     1      -6.120   3.297 122.072  0.00  0.00    +0.000 A 
ENDBRANCH  34  35
BRANCH  34  41
ATOM     41  C   UNL     1      -7.785   0.740 123.414  0.00  0.00    +0.000 A 
ATOM     42  C   UNL     1      -9.014   0.072 123.296  0.00  0.00    +0.000 A 
ATOM     43  C   UNL     1      -9.096  -1.279 122.980  0.00  0.00    +0.000 A 
ATOM     44  C   UNL     1      -7.946  -1.988 122.680  0.00  0.00    +0.000 A 
ATOM     45  C   UNL     1      -6.711  -1.378 122.816  0.00  0.00    +0.000 A 
ATOM     46  C   UNL     1      -6.639  -0.061 123.259  0.00  0.00    +0.000 A 
ENDBRANCH  34  41
ENDBRANCH  31  34
ENDBRANCH  27  28
ENDBRANCH  26  27
ENDBRANCH  25  26
ENDBRANCH   1  25
TORSDOF 12
ENDMDL
