MODEL 1
REMARK VINA RESULT:      -5.4      0.000      0.000
REMARK  Name = Mannitol busulfan
REMARK  15 active torsions:
REMARK  status: ('A' for Active; 'I' for Inactive)
REMARK    1  A    between atoms: C_1  and  S_2
REMARK    2  A    between atoms: S_2  and  O_5
REMARK    3  A    between atoms: O_5  and  C_6
REMARK    4  A    between atoms: C_6  and  C_7
REMARK    5  A    between atoms: C_7  and  O_8
REMARK    6  A    between atoms: C_7  and  C_9
REMARK    7  A    between atoms: C_9  and  O_10
REMARK    8  A    between atoms: C_9  and  C_11
REMARK    9  A    between atoms: C_11  and  O_12
REMARK   10  A    between atoms: C_11  and  C_13
REMARK   11  A    between atoms: C_13  and  O_14
REMARK   12  A    between atoms: C_13  and  C_15
REMARK   13  A    between atoms: C_15  and  O_16
REMARK   14  A    between atoms: O_16  and  S_17
REMARK   15  A    between atoms: S_17  and  C_18
REMARK                            x       y       z     vdW  Elec       q    Type
REMARK                         _______ _______ _______ _____ _____    ______ ____
ROOT
ATOM      1  C   UNL     1      -9.397   5.196 129.634  0.00  0.00    +0.000 C 
ENDROOT
BRANCH   1   2
ATOM      2  O   UNL     1      -9.516   5.714 128.304  0.00  0.00    +0.000 OA
ATOM      3  H   UNL     1     -10.427   5.974 128.106  0.00  0.00    +0.000 HD
ENDBRANCH   1   2
BRANCH   1   4
ATOM      4  C   UNL     1     -10.745   5.167 130.470  0.00  0.00    +0.000 C 
BRANCH   4   5
ATOM      5  O   UNL     1     -11.361   3.880 130.351  0.00  0.00    +0.000 OA
ATOM      6  H   UNL     1     -12.333   4.035 130.277  0.00  0.00    +0.000 HD
ENDBRANCH   4   5
BRANCH   4   7
ATOM      7  C   UNL     1     -11.726   6.245 130.011  0.00  0.00    +0.000 C 
BRANCH   7   8
ATOM      8  O   UNL     1     -12.604   6.000 128.873  0.00  0.00    +0.000 OA
BRANCH   8  10
ATOM      9  C   UNL     1     -11.633   8.600 128.403  0.00  0.00    +0.000 C 
ATOM     10  S   UNL     1     -12.533   7.243 127.798  0.00  0.00    +0.000 S 
ATOM     11  O   UNL     1     -13.887   7.760 127.748  0.00  0.00    +0.000 OA
ATOM     12  O   UNL     1     -11.843   6.768 126.623  0.00  0.00    +0.000 OA
ENDBRANCH   8  10
ENDBRANCH   7   8
ENDBRANCH   4   7
ENDBRANCH   1   4
BRANCH   1  13
ATOM     13  C   UNL     1      -8.587   3.846 129.673  0.00  0.00    +0.000 C 
BRANCH  13  14
ATOM     14  O   UNL     1      -9.393   2.767 129.182  0.00  0.00    +0.000 OA
ATOM     15  H   UNL     1      -9.477   2.110 129.908  0.00  0.00    +0.000 HD
ENDBRANCH  13  14
BRANCH  13  16
ATOM     16  C   UNL     1      -7.205   3.727 128.980  0.00  0.00    +0.000 C 
BRANCH  16  17
ATOM     17  O   UNL     1      -6.555   4.982 128.820  0.00  0.00    +0.000 OA
ATOM     18  H   UNL     1      -5.862   4.890 128.139  0.00  0.00    +0.000 HD
ENDBRANCH  16  17
BRANCH  16  19
ATOM     19  C   UNL     1      -7.206   2.992 127.625  0.00  0.00    +0.000 C 
BRANCH  19  20
ATOM     20  O   UNL     1      -8.303   3.305 126.772  0.00  0.00    +0.000 OA
BRANCH  20  21
ATOM     21  S   UNL     1      -7.980   4.231 125.440  0.00  0.00    +0.000 S 
ATOM     22  C   UNL     1      -6.201   3.965 125.401  0.00  0.00    +0.000 C 
ATOM     23  O   UNL     1      -8.512   3.581 124.268  0.00  0.00    +0.000 OA
ATOM     24  O   UNL     1      -8.360   5.596 125.734  0.00  0.00    +0.000 OA
ENDBRANCH  20  21
ENDBRANCH  19  20
ENDBRANCH  16  19
ENDBRANCH  13  16
ENDBRANCH   1  13
TORSDOF 13
ENDMDL
MODEL 2
REMARK VINA RESULT:      -5.3      2.625      6.165
REMARK  Name = Mannitol busulfan
REMARK  15 active torsions:
REMARK  status: ('A' for Active; 'I' for Inactive)
REMARK    1  A    between atoms: C_1  and  S_2
REMARK    2  A    between atoms: S_2  and  O_5
REMARK    3  A    between atoms: O_5  and  C_6
REMARK    4  A    between atoms: C_6  and  C_7
REMARK    5  A    between atoms: C_7  and  O_8
REMARK    6  A    between atoms: C_7  and  C_9
REMARK    7  A    between atoms: C_9  and  O_10
REMARK    8  A    between atoms: C_9  and  C_11
REMARK    9  A    between atoms: C_11  and  O_12
REMARK   10  A    between atoms: C_11  and  C_13
REMARK   11  A    between atoms: C_13  and  O_14
REMARK   12  A    between atoms: C_13  and  C_15
REMARK   13  A    between atoms: C_15  and  O_16
REMARK   14  A    between atoms: O_16  and  S_17
REMARK   15  A    between atoms: S_17  and  C_18
REMARK                            x       y       z     vdW  Elec       q    Type
REMARK                         _______ _______ _______ _____ _____    ______ ____
ROOT
ATOM      1  C   UNL     1      -8.533   5.188 130.225  0.00  0.00    +0.000 C 
ENDROOT
BRANCH   1   2
ATOM      2  O   UNL     1      -8.768   5.291 128.815  0.00  0.00    +0.000 OA
ATOM      3  H   UNL     1      -8.115   4.787 128.310  0.00  0.00    +0.000 HD
ENDBRANCH   1   2
BRANCH   1   4
ATOM      4  C   UNL     1      -7.215   5.902 130.743  0.00  0.00    +0.000 C 
BRANCH   4   5
ATOM      5  O   UNL     1      -7.315   7.315 130.532  0.00  0.00    +0.000 OA
ATOM      6  H   UNL     1      -6.929   7.498 129.642  0.00  0.00    +0.000 HD
ENDBRANCH   4   5
BRANCH   4   7
ATOM      7  C   UNL     1      -5.964   5.371 130.044  0.00  0.00    +0.000 C 
BRANCH   7   8
ATOM      8  O   UNL     1      -4.933   6.293 129.586  0.00  0.00    +0.000 OA
BRANCH   8  10
ATOM      9  C   UNL     1      -3.145   4.308 128.702  0.00  0.00    +0.000 C 
ATOM     10  S   UNL     1      -4.128   5.679 128.290  0.00  0.00    +0.000 S 
ATOM     11  O   UNL     1      -3.139   6.689 127.962  0.00  0.00    +0.000 OA
ATOM     12  O   UNL     1      -5.111   5.223 127.338  0.00  0.00    +0.000 OA
ENDBRANCH   8  10
ENDBRANCH   7   8
ENDBRANCH   4   7
ENDBRANCH   1   4
BRANCH   1  13
ATOM     13  C   UNL     1      -9.820   5.526 131.065  0.00  0.00    +0.000 C 
BRANCH  13  14
ATOM     14  O   UNL     1      -9.872   6.929 131.357  0.00  0.00    +0.000 OA
ATOM     15  H   UNL     1     -10.513   7.053 132.090  0.00  0.00    +0.000 HD
ENDBRANCH  13  14
BRANCH  13  16
ATOM     16  C   UNL     1     -11.230   5.119 130.561  0.00  0.00    +0.000 C 
BRANCH  16  17
ATOM     17  O   UNL     1     -11.233   3.878 129.866  0.00  0.00    +0.000 OA
ATOM     18  H   UNL     1     -11.456   3.167 130.498  0.00  0.00    +0.000 HD
ENDBRANCH  16  17
BRANCH  16  19
ATOM     19  C   UNL     1     -11.953   6.173 129.701  0.00  0.00    +0.000 C 
BRANCH  19  20
ATOM     20  O   UNL     1     -11.341   6.446 128.444  0.00  0.00    +0.000 OA
BRANCH  20  21
ATOM     21  S   UNL     1     -10.872   8.007 128.158  0.00  0.00    +0.000 S 
ATOM     22  C   UNL     1     -12.218   8.815 129.037  0.00  0.00    +0.000 C 
ATOM     23  O   UNL     1      -9.673   8.289 128.907  0.00  0.00    +0.000 OA
ATOM     24  O   UNL     1     -10.891   8.231 126.729  0.00  0.00    +0.000 OA
ENDBRANCH  20  21
ENDBRANCH  19  20
ENDBRANCH  16  19
ENDBRANCH  13  16
ENDBRANCH   1  13
TORSDOF 13
ENDMDL
MODEL 3
REMARK VINA RESULT:      -5.2      3.003      5.964
REMARK  Name = Mannitol busulfan
REMARK  15 active torsions:
REMARK  status: ('A' for Active; 'I' for Inactive)
REMARK    1  A    between atoms: C_1  and  S_2
REMARK    2  A    between atoms: S_2  and  O_5
REMARK    3  A    between atoms: O_5  and  C_6
REMARK    4  A    between atoms: C_6  and  C_7
REMARK    5  A    between atoms: C_7  and  O_8
REMARK    6  A    between atoms: C_7  and  C_9
REMARK    7  A    between atoms: C_9  and  O_10
REMARK    8  A    between atoms: C_9  and  C_11
REMARK    9  A    between atoms: C_11  and  O_12
REMARK   10  A    between atoms: C_11  and  C_13
REMARK   11  A    between atoms: C_13  and  O_14
REMARK   12  A    between atoms: C_13  and  C_15
REMARK   13  A    between atoms: C_15  and  O_16
REMARK   14  A    between atoms: O_16  and  S_17
REMARK   15  A    between atoms: S_17  and  C_18
REMARK                            x       y       z     vdW  Elec       q    Type
REMARK                         _______ _______ _______ _____ _____    ______ ____
ROOT
ATOM      1  C   UNL     1      -8.804   6.442 131.540  0.00  0.00    +0.000 C 
ENDROOT
BRANCH   1   2
ATOM      2  O   UNL     1      -9.093   6.347 132.940  0.00  0.00    +0.000 OA
ATOM      3  H   UNL     1      -8.501   5.722 133.381  0.00  0.00    +0.000 HD
ENDBRANCH   1   2
BRANCH   1   4
ATOM      4  C   UNL     1      -7.472   5.717 131.076  0.00  0.00    +0.000 C 
BRANCH   4   5
ATOM      5  O   UNL     1      -7.566   5.374 129.688  0.00  0.00    +0.000 OA
ATOM      6  H   UNL     1      -7.026   4.558 129.560  0.00  0.00    +0.000 HD
ENDBRANCH   4   5
BRANCH   4   7
ATOM      7  C   UNL     1      -7.191   4.457 131.893  0.00  0.00    +0.000 C 
BRANCH   7   8
ATOM      8  O   UNL     1      -7.700   3.166 131.449  0.00  0.00    +0.000 OA
BRANCH   8  10
ATOM      9  C   UNL     1      -9.851   1.439 132.006  0.00  0.00    +0.000 C 
ATOM     10  S   UNL     1      -8.579   2.441 132.635  0.00  0.00    +0.000 S 
ATOM     11  O   UNL     1      -9.312   3.525 133.262  0.00  0.00    +0.000 OA
ATOM     12  O   UNL     1      -7.690   1.580 133.376  0.00  0.00    +0.000 OA
ENDBRANCH   8  10
ENDBRANCH   7   8
ENDBRANCH   4   7
ENDBRANCH   1   4
BRANCH   1  13
ATOM     13  C   UNL     1     -10.060   6.110 130.652  0.00  0.00    +0.000 C 
BRANCH  13  14
ATOM     14  O   UNL     1     -10.180   4.692 130.468  0.00  0.00    +0.000 OA
ATOM     15  H   UNL     1     -11.049   4.525 130.043  0.00  0.00    +0.000 HD
ENDBRANCH  13  14
BRANCH  13  16
ATOM     16  C   UNL     1     -11.469   6.634 131.037  0.00  0.00    +0.000 C 
BRANCH  16  17
ATOM     17  O   UNL     1     -11.990   6.016 132.207  0.00  0.00    +0.000 OA
ATOM     18  H   UNL     1     -11.999   5.049 132.071  0.00  0.00    +0.000 HD
ENDBRANCH  16  17
BRANCH  16  19
ATOM     19  C   UNL     1     -12.529   6.559 129.920  0.00  0.00    +0.000 C 
BRANCH  19  20
ATOM     20  O   UNL     1     -12.017   6.257 128.625  0.00  0.00    +0.000 OA
BRANCH  20  21
ATOM     21  S   UNL     1     -12.251   7.388 127.441  0.00  0.00    +0.000 S 
ATOM     22  C   UNL     1     -10.809   8.401 127.803  0.00  0.00    +0.000 C 
ATOM     23  O   UNL     1     -12.009   6.785 126.153  0.00  0.00    +0.000 OA
ATOM     24  O   UNL     1     -13.511   8.054 127.691  0.00  0.00    +0.000 OA
ENDBRANCH  20  21
ENDBRANCH  19  20
ENDBRANCH  16  19
ENDBRANCH  13  16
ENDBRANCH   1  13
TORSDOF 13
ENDMDL
MODEL 4
REMARK VINA RESULT:      -5.2      2.326      5.784
REMARK  Name = Mannitol busulfan
REMARK  15 active torsions:
REMARK  status: ('A' for Active; 'I' for Inactive)
REMARK    1  A    between atoms: C_1  and  S_2
REMARK    2  A    between atoms: S_2  and  O_5
REMARK    3  A    between atoms: O_5  and  C_6
REMARK    4  A    between atoms: C_6  and  C_7
REMARK    5  A    between atoms: C_7  and  O_8
REMARK    6  A    between atoms: C_7  and  C_9
REMARK    7  A    between atoms: C_9  and  O_10
REMARK    8  A    between atoms: C_9  and  C_11
REMARK    9  A    between atoms: C_11  and  O_12
REMARK   10  A    between atoms: C_11  and  C_13
REMARK   11  A    between atoms: C_13  and  O_14
REMARK   12  A    between atoms: C_13  and  C_15
REMARK   13  A    between atoms: C_15  and  O_16
REMARK   14  A    between atoms: O_16  and  S_17
REMARK   15  A    between atoms: S_17  and  C_18
REMARK                            x       y       z     vdW  Elec       q    Type
REMARK                         _______ _______ _______ _____ _____    ______ ____
ROOT
ATOM      1  C   UNL     1      -9.384   5.766 132.531  0.00  0.00    +0.000 C 
ENDROOT
BRANCH   1   2
ATOM      2  O   UNL     1      -9.382   6.421 133.805  0.00  0.00    +0.000 OA
ATOM      3  H   UNL     1     -10.257   6.395 134.218  0.00  0.00    +0.000 HD
ENDBRANCH   1   2
BRANCH   1   4
ATOM      4  C   UNL     1      -9.685   4.209 132.574  0.00  0.00    +0.000 C 
BRANCH   4   5
ATOM      5  O   UNL     1      -9.669   3.751 133.931  0.00  0.00    +0.000 OA
ATOM      6  H   UNL     1     -10.553   3.966 134.314  0.00  0.00    +0.000 HD
ENDBRANCH   4   5
BRANCH   4   7
ATOM      7  C   UNL     1      -8.675   3.408 131.754  0.00  0.00    +0.000 C 
BRANCH   7   8
ATOM      8  O   UNL     1      -7.827   4.079 130.778  0.00  0.00    +0.000 OA
BRANCH   8  10
ATOM      9  C   UNL     1      -7.164   2.613 128.469  0.00  0.00    +0.000 C 
ATOM     10  S   UNL     1      -8.279   3.695 129.243  0.00  0.00    +0.000 S 
ATOM     11  O   UNL     1      -8.100   4.923 128.492  0.00  0.00    +0.000 OA
ATOM     12  O   UNL     1      -9.548   3.012 129.317  0.00  0.00    +0.000 OA
ENDBRANCH   8  10
ENDBRANCH   7   8
ENDBRANCH   4   7
ENDBRANCH   1   4
BRANCH   1  13
ATOM     13  C   UNL     1     -10.226   6.555 131.461  0.00  0.00    +0.000 C 
BRANCH  13  14
ATOM     14  O   UNL     1      -9.431   6.819 130.297  0.00  0.00    +0.000 OA
ATOM     15  H   UNL     1      -9.235   7.781 130.288  0.00  0.00    +0.000 HD
ENDBRANCH  13  14
BRANCH  13  16
ATOM     16  C   UNL     1     -11.590   6.010 130.961  0.00  0.00    +0.000 C 
BRANCH  16  17
ATOM     17  O   UNL     1     -11.486   5.302 129.732  0.00  0.00    +0.000 OA
ATOM     18  H   UNL     1     -10.864   5.777 129.149  0.00  0.00    +0.000 HD
ENDBRANCH  16  17
BRANCH  16  19
ATOM     19  C   UNL     1     -12.714   7.058 130.838  0.00  0.00    +0.000 C 
BRANCH  19  20
ATOM     20  O   UNL     1     -12.355   8.246 130.140  0.00  0.00    +0.000 OA
BRANCH  20  21
ATOM     21  S   UNL     1     -12.871   8.386 128.575  0.00  0.00    +0.000 S 
ATOM     22  C   UNL     1     -11.249   8.384 127.797  0.00  0.00    +0.000 C 
ATOM     23  O   UNL     1     -13.513   7.159 128.174  0.00  0.00    +0.000 OA
ATOM     24  O   UNL     1     -13.581   9.640 128.442  0.00  0.00    +0.000 OA
ENDBRANCH  20  21
ENDBRANCH  19  20
ENDBRANCH  16  19
ENDBRANCH  13  16
ENDBRANCH   1  13
TORSDOF 13
ENDMDL
MODEL 5
REMARK VINA RESULT:      -5.1      2.575      3.634
REMARK  Name = Mannitol busulfan
REMARK  15 active torsions:
REMARK  status: ('A' for Active; 'I' for Inactive)
REMARK    1  A    between atoms: C_1  and  S_2
REMARK    2  A    between atoms: S_2  and  O_5
REMARK    3  A    between atoms: O_5  and  C_6
REMARK    4  A    between atoms: C_6  and  C_7
REMARK    5  A    between atoms: C_7  and  O_8
REMARK    6  A    between atoms: C_7  and  C_9
REMARK    7  A    between atoms: C_9  and  O_10
REMARK    8  A    between atoms: C_9  and  C_11
REMARK    9  A    between atoms: C_11  and  O_12
REMARK   10  A    between atoms: C_11  and  C_13
REMARK   11  A    between atoms: C_13  and  O_14
REMARK   12  A    between atoms: C_13  and  C_15
REMARK   13  A    between atoms: C_15  and  O_16
REMARK   14  A    between atoms: O_16  and  S_17
REMARK   15  A    between atoms: S_17  and  C_18
REMARK                            x       y       z     vdW  Elec       q    Type
REMARK                         _______ _______ _______ _____ _____    ______ ____
ROOT
ATOM      1  C   UNL     1      -9.376   6.667 130.901  0.00  0.00    +0.000 C 
ENDROOT
BRANCH   1   2
ATOM      2  O   UNL     1      -8.144   7.250 130.459  0.00  0.00    +0.000 OA
ATOM      3  H   UNL     1      -8.155   8.213 130.551  0.00  0.00    +0.000 HD
ENDBRANCH   1   2
BRANCH   1   4
ATOM      4  C   UNL     1     -10.120   5.768 129.828  0.00  0.00    +0.000 C 
BRANCH   4   5
ATOM      5  O   UNL     1      -9.561   6.000 128.530  0.00  0.00    +0.000 OA
ATOM      6  H   UNL     1      -8.595   6.157 128.661  0.00  0.00    +0.000 HD
ENDBRANCH   4   5
BRANCH   4   7
ATOM      7  C   UNL     1     -11.623   6.046 129.791  0.00  0.00    +0.000 C 
BRANCH   7   8
ATOM      8  O   UNL     1     -12.296   6.265 128.518  0.00  0.00    +0.000 OA
BRANCH   8  10
ATOM      9  C   UNL     1     -12.585   8.808 129.688  0.00  0.00    +0.000 C 
ATOM     10  S   UNL     1     -12.497   7.872 128.228  0.00  0.00    +0.000 S 
ATOM     11  O   UNL     1     -13.844   7.982 127.700  0.00  0.00    +0.000 OA
ATOM     12  O   UNL     1     -11.341   8.334 127.499  0.00  0.00    +0.000 OA
ENDBRANCH   8  10
ENDBRANCH   7   8
ENDBRANCH   4   7
ENDBRANCH   1   4
BRANCH   1  13
ATOM     13  C   UNL     1      -9.238   5.997 132.319  0.00  0.00    +0.000 C 
BRANCH  13  14
ATOM     14  O   UNL     1     -10.192   6.557 133.230  0.00  0.00    +0.000 OA
ATOM     15  H   UNL     1      -9.705   6.810 134.045  0.00  0.00    +0.000 HD
ENDBRANCH  13  14
BRANCH  13  16
ATOM     16  C   UNL     1      -9.312   4.455 132.481  0.00  0.00    +0.000 C 
BRANCH  16  17
ATOM     17  O   UNL     1      -9.827   4.056 133.745  0.00  0.00    +0.000 OA
ATOM     18  H   UNL     1     -10.662   4.535 133.907  0.00  0.00    +0.000 HD
ENDBRANCH  16  17
BRANCH  16  19
ATOM     19  C   UNL     1      -7.994   3.700 132.219  0.00  0.00    +0.000 C 
BRANCH  19  20
ATOM     20  O   UNL     1      -7.035   4.415 131.447  0.00  0.00    +0.000 OA
BRANCH  20  21
ATOM     21  S   UNL     1      -6.799   3.915 129.888  0.00  0.00    +0.000 S 
ATOM     22  C   UNL     1      -5.225   3.083 130.150  0.00  0.00    +0.000 C 
ATOM     23  O   UNL     1      -7.753   2.882 129.569  0.00  0.00    +0.000 OA
ATOM     24  O   UNL     1      -6.706   5.086 129.044  0.00  0.00    +0.000 OA
ENDBRANCH  20  21
ENDBRANCH  19  20
ENDBRANCH  16  19
ENDBRANCH  13  16
ENDBRANCH   1  13
TORSDOF 13
ENDMDL
MODEL 6
REMARK VINA RESULT:      -5.1      2.100      3.011
REMARK  Name = Mannitol busulfan
REMARK  15 active torsions:
REMARK  status: ('A' for Active; 'I' for Inactive)
REMARK    1  A    between atoms: C_1  and  S_2
REMARK    2  A    between atoms: S_2  and  O_5
REMARK    3  A    between atoms: O_5  and  C_6
REMARK    4  A    between atoms: C_6  and  C_7
REMARK    5  A    between atoms: C_7  and  O_8
REMARK    6  A    between atoms: C_7  and  C_9
REMARK    7  A    between atoms: C_9  and  O_10
REMARK    8  A    between atoms: C_9  and  C_11
REMARK    9  A    between atoms: C_11  and  O_12
REMARK   10  A    between atoms: C_11  and  C_13
REMARK   11  A    between atoms: C_13  and  O_14
REMARK   12  A    between atoms: C_13  and  C_15
REMARK   13  A    between atoms: C_15  and  O_16
REMARK   14  A    between atoms: O_16  and  S_17
REMARK   15  A    between atoms: S_17  and  C_18
REMARK                            x       y       z     vdW  Elec       q    Type
REMARK                         _______ _______ _______ _____ _____    ______ ____
ROOT
ATOM      1  C   UNL     1     -10.154   6.445 131.429  0.00  0.00    +0.000 C 
ENDROOT
BRANCH   1   2
ATOM      2  O   UNL     1      -9.267   7.189 130.585  0.00  0.00    +0.000 OA
ATOM      3  H   UNL     1      -8.582   6.622 130.204  0.00  0.00    +0.000 HD
ENDBRANCH   1   2
BRANCH   1   4
ATOM      4  C   UNL     1     -11.304   5.657 130.672  0.00  0.00    +0.000 C 
BRANCH   4   5
ATOM      5  O   UNL     1     -10.731   4.618 129.870  0.00  0.00    +0.000 OA
ATOM      6  H   UNL     1     -11.133   4.698 128.972  0.00  0.00    +0.000 HD
ENDBRANCH   4   5
BRANCH   4   7
ATOM      7  C   UNL     1     -12.142   6.579 129.787  0.00  0.00    +0.000 C 
BRANCH   7   8
ATOM      8  O   UNL     1     -12.092   6.447 128.337  0.00  0.00    +0.000 OA
BRANCH   8  10
ATOM      9  C   UNL     1     -11.138   7.760 126.038  0.00  0.00    +0.000 C 
ATOM     10  S   UNL     1     -10.874   7.354 127.706  0.00  0.00    +0.000 S 
ATOM     11  O   UNL     1      -9.743   6.448 127.634  0.00  0.00    +0.000 OA
ATOM     12  O   UNL     1     -10.825   8.595 128.440  0.00  0.00    +0.000 OA
ENDBRANCH   8  10
ENDBRANCH   7   8
ENDBRANCH   4   7
ENDBRANCH   1   4
BRANCH   1  13
ATOM     13  C   UNL     1      -9.376   5.583 132.492  0.00  0.00    +0.000 C 
BRANCH  13  14
ATOM     14  O   UNL     1     -10.072   4.355 132.745  0.00  0.00    +0.000 OA
ATOM     15  H   UNL     1     -10.030   4.189 133.712  0.00  0.00    +0.000 HD
ENDBRANCH  13  14
BRANCH  13  16
ATOM     16  C   UNL     1      -7.882   5.218 132.282  0.00  0.00    +0.000 C 
BRANCH  16  17
ATOM     17  O   UNL     1      -7.049   6.361 132.134  0.00  0.00    +0.000 OA
ATOM     18  H   UNL     1      -7.560   7.155 132.382  0.00  0.00    +0.000 HD
ENDBRANCH  16  17
BRANCH  16  19
ATOM     19  C   UNL     1      -7.598   4.242 131.124  0.00  0.00    +0.000 C 
BRANCH  19  20
ATOM     20  O   UNL     1      -7.590   4.832 129.828  0.00  0.00    +0.000 OA
BRANCH  20  21
ATOM     21  S   UNL     1      -7.462   3.809 128.534  0.00  0.00    +0.000 S 
ATOM     22  C   UNL     1      -6.268   2.674 129.257  0.00  0.00    +0.000 C 
ATOM     23  O   UNL     1      -8.690   3.067 128.391  0.00  0.00    +0.000 OA
ATOM     24  O   UNL     1      -6.947   4.561 127.411  0.00  0.00    +0.000 OA
ENDBRANCH  20  21
ENDBRANCH  19  20
ENDBRANCH  16  19
ENDBRANCH  13  16
ENDBRANCH   1  13
TORSDOF 13
ENDMDL
MODEL 7
REMARK VINA RESULT:      -5.0      2.160      2.899
REMARK  Name = Mannitol busulfan
REMARK  15 active torsions:
REMARK  status: ('A' for Active; 'I' for Inactive)
REMARK    1  A    between atoms: C_1  and  S_2
REMARK    2  A    between atoms: S_2  and  O_5
REMARK    3  A    between atoms: O_5  and  C_6
REMARK    4  A    between atoms: C_6  and  C_7
REMARK    5  A    between atoms: C_7  and  O_8
REMARK    6  A    between atoms: C_7  and  C_9
REMARK    7  A    between atoms: C_9  and  O_10
REMARK    8  A    between atoms: C_9  and  C_11
REMARK    9  A    between atoms: C_11  and  O_12
REMARK   10  A    between atoms: C_11  and  C_13
REMARK   11  A    between atoms: C_13  and  O_14
REMARK   12  A    between atoms: C_13  and  C_15
REMARK   13  A    between atoms: C_15  and  O_16
REMARK   14  A    between atoms: O_16  and  S_17
REMARK   15  A    between atoms: S_17  and  C_18
REMARK                            x       y       z     vdW  Elec       q    Type
REMARK                         _______ _______ _______ _____ _____    ______ ____
ROOT
ATOM      1  C   UNL     1      -9.582   6.802 130.527  0.00  0.00    +0.000 C 
ENDROOT
BRANCH   1   2
ATOM      2  O   UNL     1      -9.267   6.323 129.214  0.00  0.00    +0.000 OA
ATOM      3  H   UNL     1      -9.621   5.436 129.067  0.00  0.00    +0.000 HD
ENDBRANCH   1   2
BRANCH   1   4
ATOM      4  C   UNL     1     -11.004   6.368 131.080  0.00  0.00    +0.000 C 
BRANCH   4   5
ATOM      5  O   UNL     1     -10.985   4.979 131.427  0.00  0.00    +0.000 OA
ATOM      6  H   UNL     1     -10.546   4.505 130.680  0.00  0.00    +0.000 HD
ENDBRANCH   4   5
BRANCH   4   7
ATOM      7  C   UNL     1     -12.116   6.623 130.062  0.00  0.00    +0.000 C 
BRANCH   7   8
ATOM      8  O   UNL     1     -11.912   6.296 128.657  0.00  0.00    +0.000 OA
BRANCH   8  10
ATOM      9  C   UNL     1     -12.927   8.919 128.541  0.00  0.00    +0.000 C 
ATOM     10  S   UNL     1     -12.126   7.622 127.708  0.00  0.00    +0.000 S 
ATOM     11  O   UNL     1     -13.119   7.215 126.730  0.00  0.00    +0.000 OA
ATOM     12  O   UNL     1     -10.821   8.106 127.328  0.00  0.00    +0.000 OA
ENDBRANCH   8  10
ENDBRANCH   7   8
ENDBRANCH   4   7
ENDBRANCH   1   4
BRANCH   1  13
ATOM     13  C   UNL     1      -8.401   6.572 131.542  0.00  0.00    +0.000 C 
BRANCH  13  14
ATOM     14  O   UNL     1      -8.915   6.248 132.841  0.00  0.00    +0.000 OA
ATOM     15  H   UNL     1      -8.791   7.039 133.410  0.00  0.00    +0.000 HD
ENDBRANCH  13  14
BRANCH  13  16
ATOM     16  C   UNL     1      -7.275   5.549 131.234  0.00  0.00    +0.000 C 
BRANCH  16  17
ATOM     17  O   UNL     1      -6.659   5.767 129.971  0.00  0.00    +0.000 OA
ATOM     18  H   UNL     1      -6.395   4.903 129.600  0.00  0.00    +0.000 HD
ENDBRANCH  16  17
BRANCH  16  19
ATOM     19  C   UNL     1      -7.684   4.067 131.340  0.00  0.00    +0.000 C 
BRANCH  19  20
ATOM     20  O   UNL     1      -7.341   3.267 130.213  0.00  0.00    +0.000 OA
BRANCH  20  21
ATOM     21  S   UNL     1      -8.500   3.068 129.050  0.00  0.00    +0.000 S 
ATOM     22  C   UNL     1      -8.246   1.309 128.771  0.00  0.00    +0.000 C 
ATOM     23  O   UNL     1      -9.805   3.198 129.651  0.00  0.00    +0.000 OA
ATOM     24  O   UNL     1      -8.151   3.895 127.915  0.00  0.00    +0.000 OA
ENDBRANCH  20  21
ENDBRANCH  19  20
ENDBRANCH  16  19
ENDBRANCH  13  16
ENDBRANCH   1  13
TORSDOF 13
ENDMDL
MODEL 8
REMARK VINA RESULT:      -5.0      1.364      5.258
REMARK  Name = Mannitol busulfan
REMARK  15 active torsions:
REMARK  status: ('A' for Active; 'I' for Inactive)
REMARK    1  A    between atoms: C_1  and  S_2
REMARK    2  A    between atoms: S_2  and  O_5
REMARK    3  A    between atoms: O_5  and  C_6
REMARK    4  A    between atoms: C_6  and  C_7
REMARK    5  A    between atoms: C_7  and  O_8
REMARK    6  A    between atoms: C_7  and  C_9
REMARK    7  A    between atoms: C_9  and  O_10
REMARK    8  A    between atoms: C_9  and  C_11
REMARK    9  A    between atoms: C_11  and  O_12
REMARK   10  A    between atoms: C_11  and  C_13
REMARK   11  A    between atoms: C_13  and  O_14
REMARK   12  A    between atoms: C_13  and  C_15
REMARK   13  A    between atoms: C_15  and  O_16
REMARK   14  A    between atoms: O_16  and  S_17
REMARK   15  A    between atoms: S_17  and  C_18
REMARK                            x       y       z     vdW  Elec       q    Type
REMARK                         _______ _______ _______ _____ _____    ______ ____
ROOT
ATOM      1  C   UNL     1      -8.613   3.544 130.154  0.00  0.00    +0.000 C 
ENDROOT
BRANCH   1   2
ATOM      2  O   UNL     1      -9.183   3.008 128.954  0.00  0.00    +0.000 OA
ATOM      3  H   UNL     1     -10.113   2.773 129.078  0.00  0.00    +0.000 HD
ENDBRANCH   1   2
BRANCH   1   4
ATOM      4  C   UNL     1      -7.029   3.499 130.227  0.00  0.00    +0.000 C 
BRANCH   4   5
ATOM      5  O   UNL     1      -6.549   4.610 130.993  0.00  0.00    +0.000 OA
ATOM      6  H   UNL     1      -7.048   5.405 130.686  0.00  0.00    +0.000 HD
ENDBRANCH   4   5
BRANCH   4   7
ATOM      7  C   UNL     1      -6.391   3.525 128.839  0.00  0.00    +0.000 C 
BRANCH   7   8
ATOM      8  O   UNL     1      -6.532   4.700 127.989  0.00  0.00    +0.000 OA
BRANCH   8  10
ATOM      9  C   UNL     1      -6.541   4.955 125.186  0.00  0.00    +0.000 C 
ATOM     10  S   UNL     1      -7.332   4.329 126.600  0.00  0.00    +0.000 S 
ATOM     11  O   UNL     1      -8.548   5.118 126.657  0.00  0.00    +0.000 OA
ATOM     12  O   UNL     1      -7.348   2.892 126.473  0.00  0.00    +0.000 OA
ENDBRANCH   8  10
ENDBRANCH   7   8
ENDBRANCH   4   7
ENDBRANCH   1   4
BRANCH   1  13
ATOM     13  C   UNL     1      -9.236   4.939 130.534  0.00  0.00    +0.000 C 
BRANCH  13  14
ATOM     14  O   UNL     1      -8.835   5.938 129.586  0.00  0.00    +0.000 OA
ATOM     15  H   UNL     1      -7.910   5.738 129.323  0.00  0.00    +0.000 HD
ENDBRANCH  13  14
BRANCH  13  16
ATOM     16  C   UNL     1     -10.765   5.099 130.738  0.00  0.00    +0.000 C 
BRANCH  16  17
ATOM     17  O   UNL     1     -11.511   4.001 130.226  0.00  0.00    +0.000 OA
ATOM     18  H   UNL     1     -11.931   4.274 129.388  0.00  0.00    +0.000 HD
ENDBRANCH  16  17
BRANCH  16  19
ATOM     19  C   UNL     1     -11.370   6.408 130.194  0.00  0.00    +0.000 C 
BRANCH  19  20
ATOM     20  O   UNL     1     -11.516   6.461 128.778  0.00  0.00    +0.000 OA
BRANCH  20  21
ATOM     21  S   UNL     1     -11.298   7.931 128.052  0.00  0.00    +0.000 S 
ATOM     22  C   UNL     1     -11.447   7.370 126.349  0.00  0.00    +0.000 C 
ATOM     23  O   UNL     1     -12.449   8.763 128.306  0.00  0.00    +0.000 OA
ATOM     24  O   UNL     1      -9.978   8.414 128.395  0.00  0.00    +0.000 OA
ENDBRANCH  20  21
ENDBRANCH  19  20
ENDBRANCH  16  19
ENDBRANCH  13  16
ENDBRANCH   1  13
TORSDOF 13
ENDMDL
MODEL 9
REMARK VINA RESULT:      -5.0      3.412      4.509
REMARK  Name = Mannitol busulfan
REMARK  15 active torsions:
REMARK  status: ('A' for Active; 'I' for Inactive)
REMARK    1  A    between atoms: C_1  and  S_2
REMARK    2  A    between atoms: S_2  and  O_5
REMARK    3  A    between atoms: O_5  and  C_6
REMARK    4  A    between atoms: C_6  and  C_7
REMARK    5  A    between atoms: C_7  and  O_8
REMARK    6  A    between atoms: C_7  and  C_9
REMARK    7  A    between atoms: C_9  and  O_10
REMARK    8  A    between atoms: C_9  and  C_11
REMARK    9  A    between atoms: C_11  and  O_12
REMARK   10  A    between atoms: C_11  and  C_13
REMARK   11  A    between atoms: C_13  and  O_14
REMARK   12  A    between atoms: C_13  and  C_15
REMARK   13  A    between atoms: C_15  and  O_16
REMARK   14  A    between atoms: O_16  and  S_17
REMARK   15  A    between atoms: S_17  and  C_18
REMARK                            x       y       z     vdW  Elec       q    Type
REMARK                         _______ _______ _______ _____ _____    ______ ____
ROOT
ATOM      1  C   UNL     1     -10.422   6.773 131.151  0.00  0.00    +0.000 C 
ENDROOT
BRANCH   1   2
ATOM      2  O   UNL     1      -9.748   7.316 130.009  0.00  0.00    +0.000 OA
ATOM      3  H   UNL     1      -9.787   6.712 129.255  0.00  0.00    +0.000 HD
ENDBRANCH   1   2
BRANCH   1   4
ATOM      4  C   UNL     1     -11.810   6.069 130.843  0.00  0.00    +0.000 C 
BRANCH   4   5
ATOM      5  O   UNL     1     -11.672   5.201 129.712  0.00  0.00    +0.000 OA
ATOM      6  H   UNL     1     -12.254   4.421 129.880  0.00  0.00    +0.000 HD
ENDBRANCH   4   5
BRANCH   4   7
ATOM      7  C   UNL     1     -12.919   7.085 130.573  0.00  0.00    +0.000 C 
BRANCH   7   8
ATOM      8  O   UNL     1     -12.586   8.468 130.256  0.00  0.00    +0.000 OA
BRANCH   8  10
ATOM      9  C   UNL     1     -13.699   7.510 127.855  0.00  0.00    +0.000 C 
ATOM     10  S   UNL     1     -12.834   8.782 128.661  0.00  0.00    +0.000 S 
ATOM     11  O   UNL     1     -11.515   8.696 128.062  0.00  0.00    +0.000 OA
ATOM     12  O   UNL     1     -13.647   9.970 128.569  0.00  0.00    +0.000 OA
ENDBRANCH   8  10
ENDBRANCH   7   8
ENDBRANCH   4   7
ENDBRANCH   1   4
BRANCH   1  13
ATOM     13  C   UNL     1      -9.458   5.923 132.059  0.00  0.00    +0.000 C 
BRANCH  13  14
ATOM     14  O   UNL     1     -10.212   5.160 133.011  0.00  0.00    +0.000 OA
ATOM     15  H   UNL     1     -11.152   5.187 132.729  0.00  0.00    +0.000 HD
ENDBRANCH  13  14
BRANCH  13  16
ATOM     16  C   UNL     1      -8.418   4.958 131.431  0.00  0.00    +0.000 C 
BRANCH  16  17
ATOM     17  O   UNL     1      -8.749   4.574 130.102  0.00  0.00    +0.000 OA
ATOM     18  H   UNL     1      -8.378   3.687 129.932  0.00  0.00    +0.000 HD
ENDBRANCH  16  17
BRANCH  16  19
ATOM     19  C   UNL     1      -8.112   3.691 132.254  0.00  0.00    +0.000 C 
BRANCH  19  20
ATOM     20  O   UNL     1      -9.096   2.665 132.166  0.00  0.00    +0.000 OA
BRANCH  20  21
ATOM     21  S   UNL     1      -8.554   1.104 132.098  0.00  0.00    +0.000 S 
ATOM     22  C   UNL     1      -7.487   1.294 130.661  0.00  0.00    +0.000 C 
ATOM     23  O   UNL     1      -7.681   0.853 133.218  0.00  0.00    +0.000 OA
ATOM     24  O   UNL     1      -9.691   0.238 131.870  0.00  0.00    +0.000 OA
ENDBRANCH  20  21
ENDBRANCH  19  20
ENDBRANCH  16  19
ENDBRANCH  13  16
ENDBRANCH   1  13
TORSDOF 13
ENDMDL
