MODEL 1
REMARK VINA RESULT:      -5.0      0.000      0.000
REMARK  Name = Mannitol
REMARK  11 active torsions:
REMARK  status: ('A' for Active; 'I' for Inactive)
REMARK    1  A    between atoms: O_1  and  C_2
REMARK    2  A    between atoms: C_2  and  C_3
REMARK    3  A    between atoms: C_3  and  O_4
REMARK    4  A    between atoms: C_3  and  C_5
REMARK    5  A    between atoms: C_5  and  O_6
REMARK    6  A    between atoms: C_5  and  C_7
REMARK    7  A    between atoms: C_7  and  O_8
REMARK    8  A    between atoms: C_7  and  C_9
REMARK    9  A    between atoms: C_9  and  O_10
REMARK   10  A    between atoms: C_9  and  C_11
REMARK   11  A    between atoms: C_11  and  O_12
REMARK                            x       y       z     vdW  Elec       q    Type
REMARK                         _______ _______ _______ _____ _____    ______ ____
ROOT
ATOM      1  C   UNL     1     -10.376   7.244 128.904  0.00  0.00    +0.000 C 
ENDROOT
BRANCH   1   2
ATOM      2  O   UNL     1      -9.745   6.127 128.251  0.00  0.00    +0.000 OA
ATOM      3  H   UNL     1      -8.876   6.394 127.904  0.00  0.00    +0.000 HD
ENDBRANCH   1   2
BRANCH   1   4
ATOM      4  C   UNL     1     -10.771   8.293 127.831  0.00  0.00    +0.000 C 
BRANCH   4   5
ATOM      5  O   UNL     1     -11.977   9.004 128.102  0.00  0.00    +0.000 OA
ATOM      6  H   UNL     1     -12.771   8.600 127.683  0.00  0.00    +0.000 HD
ENDBRANCH   4   5
BRANCH   4   7
ATOM      7  C   UNL     1     -10.740   7.679 126.418  0.00  0.00    +0.000 C 
BRANCH   7   8
ATOM      8  O   UNL     1     -11.743   6.689 126.270  0.00  0.00    +0.000 OA
ATOM      9  H   UNL     1     -12.608   7.138 126.302  0.00  0.00    +0.000 HD
ENDBRANCH   7   8
ENDBRANCH   4   7
ENDBRANCH   1   4
BRANCH   1  10
ATOM     10  C   UNL     1     -11.544   6.753 129.812  0.00  0.00    +0.000 C 
BRANCH  10  11
ATOM     11  O   UNL     1     -12.430   5.921 129.037  0.00  0.00    +0.000 OA
ATOM     12  H   UNL     1     -12.710   6.459 128.266  0.00  0.00    +0.000 HD
ENDBRANCH  10  11
BRANCH  10  13
ATOM     13  C   UNL     1     -11.098   5.944 131.058  0.00  0.00    +0.000 C 
BRANCH  13  14
ATOM     14  O   UNL     1     -12.026   5.918 132.146  0.00  0.00    +0.000 OA
ATOM     15  H   UNL     1     -11.592   5.926 133.015  0.00  0.00    +0.000 HD
ENDBRANCH  13  14
BRANCH  13  16
ATOM     16  C   UNL     1      -9.737   6.435 131.592  0.00  0.00    +0.000 C 
BRANCH  16  17
ATOM     17  O   UNL     1      -9.703   6.381 133.011  0.00  0.00    +0.000 OA
ATOM     18  H   UNL     1     -10.613   6.538 133.317  0.00  0.00    +0.000 HD
ENDBRANCH  16  17
ENDBRANCH  13  16
ENDBRANCH  10  13
ENDBRANCH   1  10
TORSDOF 11
ENDMDL
MODEL 2
REMARK VINA RESULT:      -4.9      0.803      4.772
REMARK  Name = Mannitol
REMARK  11 active torsions:
REMARK  status: ('A' for Active; 'I' for Inactive)
REMARK    1  A    between atoms: O_1  and  C_2
REMARK    2  A    between atoms: C_2  and  C_3
REMARK    3  A    between atoms: C_3  and  O_4
REMARK    4  A    between atoms: C_3  and  C_5
REMARK    5  A    between atoms: C_5  and  O_6
REMARK    6  A    between atoms: C_5  and  C_7
REMARK    7  A    between atoms: C_7  and  O_8
REMARK    8  A    between atoms: C_7  and  C_9
REMARK    9  A    between atoms: C_9  and  O_10
REMARK   10  A    between atoms: C_9  and  C_11
REMARK   11  A    between atoms: C_11  and  O_12
REMARK                            x       y       z     vdW  Elec       q    Type
REMARK                         _______ _______ _______ _____ _____    ______ ____
ROOT
ATOM      1  C   UNL     1     -11.394   6.656 129.739  0.00  0.00    +0.000 C 
ENDROOT
BRANCH   1   2
ATOM      2  O   UNL     1     -12.404   5.966 128.979  0.00  0.00    +0.000 OA
ATOM      3  H   UNL     1     -12.628   5.125 129.414  0.00  0.00    +0.000 HD
ENDBRANCH   1   2
BRANCH   1   4
ATOM      4  C   UNL     1     -10.871   5.710 130.851  0.00  0.00    +0.000 C 
BRANCH   4   5
ATOM      5  O   UNL     1     -11.292   4.353 130.731  0.00  0.00    +0.000 OA
ATOM      6  H   UNL     1     -10.726   3.722 131.232  0.00  0.00    +0.000 HD
ENDBRANCH   4   5
BRANCH   4   7
ATOM      7  C   UNL     1     -11.136   6.299 132.250  0.00  0.00    +0.000 C 
BRANCH   7   8
ATOM      8  O   UNL     1      -9.939   6.382 133.004  0.00  0.00    +0.000 OA
ATOM      9  H   UNL     1     -10.157   6.793 133.860  0.00  0.00    +0.000 HD
ENDBRANCH   7   8
ENDBRANCH   4   7
ENDBRANCH   1   4
BRANCH   1  10
ATOM     10  C   UNL     1     -10.300   7.232 128.789  0.00  0.00    +0.000 C 
BRANCH  10  11
ATOM     11  O   UNL     1      -9.696   6.152 128.050  0.00  0.00    +0.000 OA
ATOM     12  H   UNL     1     -10.003   6.245 127.123  0.00  0.00    +0.000 HD
ENDBRANCH  10  11
BRANCH  10  13
ATOM     13  C   UNL     1     -10.816   8.279 127.768  0.00  0.00    +0.000 C 
BRANCH  13  14
ATOM     14  O   UNL     1     -12.092   8.856 128.062  0.00  0.00    +0.000 OA
ATOM     15  H   UNL     1     -12.072   9.447 128.832  0.00  0.00    +0.000 HD
ENDBRANCH  13  14
BRANCH  13  16
ATOM     16  C   UNL     1     -10.865   7.697 126.340  0.00  0.00    +0.000 C 
BRANCH  16  17
ATOM     17  O   UNL     1     -11.856   6.685 126.241  0.00  0.00    +0.000 OA
ATOM     18  H   UNL     1     -11.459   5.956 125.733  0.00  0.00    +0.000 HD
ENDBRANCH  16  17
ENDBRANCH  13  16
ENDBRANCH  10  13
ENDBRANCH   1  10
TORSDOF 11
ENDMDL
MODEL 3
REMARK VINA RESULT:      -4.8      1.156      1.731
REMARK  Name = Mannitol
REMARK  11 active torsions:
REMARK  status: ('A' for Active; 'I' for Inactive)
REMARK    1  A    between atoms: O_1  and  C_2
REMARK    2  A    between atoms: C_2  and  C_3
REMARK    3  A    between atoms: C_3  and  O_4
REMARK    4  A    between atoms: C_3  and  C_5
REMARK    5  A    between atoms: C_5  and  O_6
REMARK    6  A    between atoms: C_5  and  C_7
REMARK    7  A    between atoms: C_7  and  O_8
REMARK    8  A    between atoms: C_7  and  C_9
REMARK    9  A    between atoms: C_9  and  O_10
REMARK   10  A    between atoms: C_9  and  C_11
REMARK   11  A    between atoms: C_11  and  O_12
REMARK                            x       y       z     vdW  Elec       q    Type
REMARK                         _______ _______ _______ _____ _____    ______ ____
ROOT
ATOM      1  C   UNL     1     -10.297   7.239 128.763  0.00  0.00    +0.000 C 
ENDROOT
BRANCH   1   2
ATOM      2  O   UNL     1      -9.637   6.201 128.013  0.00  0.00    +0.000 OA
ATOM      3  H   UNL     1      -8.998   5.737 128.582  0.00  0.00    +0.000 HD
ENDBRANCH   1   2
BRANCH   1   4
ATOM      4  C   UNL     1     -10.880   8.280 127.771  0.00  0.00    +0.000 C 
BRANCH   4   5
ATOM      5  O   UNL     1     -12.121   8.857 128.170  0.00  0.00    +0.000 OA
ATOM      6  H   UNL     1     -12.853   8.688 127.534  0.00  0.00    +0.000 HD
ENDBRANCH   4   5
BRANCH   4   7
ATOM      7  C   UNL     1     -10.910   7.721 126.336  0.00  0.00    +0.000 C 
BRANCH   7   8
ATOM      8  O   UNL     1     -11.879   6.695 126.208  0.00  0.00    +0.000 OA
ATOM      9  H   UNL     1     -11.451   5.853 126.445  0.00  0.00    +0.000 HD
ENDBRANCH   7   8
ENDBRANCH   4   7
ENDBRANCH   1   4
BRANCH   1  10
ATOM     10  C   UNL     1     -11.326   6.619 129.756  0.00  0.00    +0.000 C 
BRANCH  10  11
ATOM     11  O   UNL     1     -12.294   5.848 129.017  0.00  0.00    +0.000 OA
ATOM     12  H   UNL     1     -11.796   5.122 128.583  0.00  0.00    +0.000 HD
ENDBRANCH  10  11
BRANCH  10  13
ATOM     13  C   UNL     1     -10.706   5.695 130.837  0.00  0.00    +0.000 C 
BRANCH  13  14
ATOM     14  O   UNL     1      -9.298   5.842 131.045  0.00  0.00    +0.000 OA
ATOM     15  H   UNL     1      -9.070   6.061 131.964  0.00  0.00    +0.000 HD
ENDBRANCH  13  14
BRANCH  13  16
ATOM     16  C   UNL     1     -11.000   4.209 130.546  0.00  0.00    +0.000 C 
BRANCH  16  17
ATOM     17  O   UNL     1     -10.083   3.691 129.593  0.00  0.00    +0.000 OA
ATOM     18  H   UNL     1      -9.192   3.845 129.952  0.00  0.00    +0.000 HD
ENDBRANCH  16  17
ENDBRANCH  13  16
ENDBRANCH  10  13
ENDBRANCH   1  10
TORSDOF 11
ENDMDL
MODEL 4
REMARK VINA RESULT:      -4.5      1.612      2.560
REMARK  Name = Mannitol
REMARK  11 active torsions:
REMARK  status: ('A' for Active; 'I' for Inactive)
REMARK    1  A    between atoms: O_1  and  C_2
REMARK    2  A    between atoms: C_2  and  C_3
REMARK    3  A    between atoms: C_3  and  O_4
REMARK    4  A    between atoms: C_3  and  C_5
REMARK    5  A    between atoms: C_5  and  O_6
REMARK    6  A    between atoms: C_5  and  C_7
REMARK    7  A    between atoms: C_7  and  O_8
REMARK    8  A    between atoms: C_7  and  C_9
REMARK    9  A    between atoms: C_9  and  O_10
REMARK   10  A    between atoms: C_9  and  C_11
REMARK   11  A    between atoms: C_11  and  O_12
REMARK                            x       y       z     vdW  Elec       q    Type
REMARK                         _______ _______ _______ _____ _____    ______ ____
ROOT
ATOM      1  C   UNL     1     -12.000   6.780 128.599  0.00  0.00    +0.000 C 
ENDROOT
BRANCH   1   2
ATOM      2  O   UNL     1     -13.054   6.686 129.575  0.00  0.00    +0.000 OA
ATOM      3  H   UNL     1     -12.851   5.981 130.214  0.00  0.00    +0.000 HD
ENDBRANCH   1   2
BRANCH   1   4
ATOM      4  C   UNL     1     -12.143   8.122 127.834  0.00  0.00    +0.000 C 
BRANCH   4   5
ATOM      5  O   UNL     1     -10.912   8.778 127.536  0.00  0.00    +0.000 OA
ATOM      6  H   UNL     1     -10.346   8.278 126.905  0.00  0.00    +0.000 HD
ENDBRANCH   4   5
BRANCH   4   7
ATOM      7  C   UNL     1     -13.164   9.047 128.525  0.00  0.00    +0.000 C 
BRANCH   7   8
ATOM      8  O   UNL     1     -12.714   9.434 129.811  0.00  0.00    +0.000 OA
ATOM      9  H   UNL     1     -13.093   8.812 130.457  0.00  0.00    +0.000 HD
ENDBRANCH   7   8
ENDBRANCH   4   7
ENDBRANCH   1   4
BRANCH   1  10
ATOM     10  C   UNL     1     -10.614   6.546 129.273  0.00  0.00    +0.000 C 
BRANCH  10  11
ATOM     11  O   UNL     1     -10.273   7.697 130.070  0.00  0.00    +0.000 OA
ATOM     12  H   UNL     1     -11.076   8.261 130.099  0.00  0.00    +0.000 HD
ENDBRANCH  10  11
BRANCH  10  13
ATOM     13  C   UNL     1     -10.543   5.295 130.188  0.00  0.00    +0.000 C 
BRANCH  13  14
ATOM     14  O   UNL     1     -11.554   4.307 129.967  0.00  0.00    +0.000 OA
ATOM     15  H   UNL     1     -11.922   4.334 129.069  0.00  0.00    +0.000 HD
ENDBRANCH  13  14
BRANCH  13  16
ATOM     16  C   UNL     1     -10.565   5.686 131.680  0.00  0.00    +0.000 C 
BRANCH  16  17
ATOM     17  O   UNL     1     -11.881   6.023 132.094  0.00  0.00    +0.000 OA
ATOM     18  H   UNL     1     -11.934   6.995 132.087  0.00  0.00    +0.000 HD
ENDBRANCH  16  17
ENDBRANCH  13  16
ENDBRANCH  10  13
ENDBRANCH   1  10
TORSDOF 11
ENDMDL
MODEL 5
REMARK VINA RESULT:      -4.5      1.652      4.626
REMARK  Name = Mannitol
REMARK  11 active torsions:
REMARK  status: ('A' for Active; 'I' for Inactive)
REMARK    1  A    between atoms: O_1  and  C_2
REMARK    2  A    between atoms: C_2  and  C_3
REMARK    3  A    between atoms: C_3  and  O_4
REMARK    4  A    between atoms: C_3  and  C_5
REMARK    5  A    between atoms: C_5  and  O_6
REMARK    6  A    between atoms: C_5  and  C_7
REMARK    7  A    between atoms: C_7  and  O_8
REMARK    8  A    between atoms: C_7  and  C_9
REMARK    9  A    between atoms: C_9  and  O_10
REMARK   10  A    between atoms: C_9  and  C_11
REMARK   11  A    between atoms: C_11  and  O_12
REMARK                            x       y       z     vdW  Elec       q    Type
REMARK                         _______ _______ _______ _____ _____    ______ ____
ROOT
ATOM      1  C   UNL     1     -10.854   6.139 131.170  0.00  0.00    +0.000 C 
ENDROOT
BRANCH   1   2
ATOM      2  O   UNL     1     -12.088   6.055 131.907  0.00  0.00    +0.000 OA
ATOM      3  H   UNL     1     -12.709   6.734 131.591  0.00  0.00    +0.000 HD
ENDBRANCH   1   2
BRANCH   1   4
ATOM      4  C   UNL     1     -10.354   4.702 130.866  0.00  0.00    +0.000 C 
BRANCH   4   5
ATOM      5  O   UNL     1     -11.352   3.812 130.371  0.00  0.00    +0.000 OA
ATOM      6  H   UNL     1     -11.225   2.881 130.663  0.00  0.00    +0.000 HD
ENDBRANCH   4   5
BRANCH   4   7
ATOM      7  C   UNL     1      -9.572   4.123 132.061  0.00  0.00    +0.000 C 
BRANCH   7   8
ATOM      8  O   UNL     1     -10.007   4.697 133.281  0.00  0.00    +0.000 OA
ATOM      9  H   UNL     1     -10.625   5.418 133.065  0.00  0.00    +0.000 HD
ENDBRANCH   7   8
ENDBRANCH   4   7
ENDBRANCH   1   4
BRANCH   1  10
ATOM     10  C   UNL     1     -11.028   7.058 129.924  0.00  0.00    +0.000 C 
BRANCH  10  11
ATOM     11  O   UNL     1     -10.820   6.281 128.728  0.00  0.00    +0.000 OA
ATOM     12  H   UNL     1     -10.966   5.343 128.979  0.00  0.00    +0.000 HD
ENDBRANCH  10  11
BRANCH  10  13
ATOM     13  C   UNL     1     -12.416   7.741 129.813  0.00  0.00    +0.000 C 
BRANCH  13  14
ATOM     14  O   UNL     1     -13.478   6.913 129.332  0.00  0.00    +0.000 OA
ATOM     15  H   UNL     1     -14.309   7.398 129.199  0.00  0.00    +0.000 HD
ENDBRANCH  13  14
BRANCH  13  16
ATOM     16  C   UNL     1     -12.353   9.008 128.935  0.00  0.00    +0.000 C 
BRANCH  16  17
ATOM     17  O   UNL     1     -11.217   8.976 128.083  0.00  0.00    +0.000 OA
ATOM     18  H   UNL     1     -10.779   9.840 128.171  0.00  0.00    +0.000 HD
ENDBRANCH  16  17
ENDBRANCH  13  16
ENDBRANCH  10  13
ENDBRANCH   1  10
TORSDOF 11
ENDMDL
MODEL 6
REMARK VINA RESULT:      -4.4      8.569      9.851
REMARK  Name = Mannitol
REMARK  11 active torsions:
REMARK  status: ('A' for Active; 'I' for Inactive)
REMARK    1  A    between atoms: O_1  and  C_2
REMARK    2  A    between atoms: C_2  and  C_3
REMARK    3  A    between atoms: C_3  and  O_4
REMARK    4  A    between atoms: C_3  and  C_5
REMARK    5  A    between atoms: C_5  and  O_6
REMARK    6  A    between atoms: C_5  and  C_7
REMARK    7  A    between atoms: C_7  and  O_8
REMARK    8  A    between atoms: C_7  and  C_9
REMARK    9  A    between atoms: C_9  and  O_10
REMARK   10  A    between atoms: C_9  and  C_11
REMARK   11  A    between atoms: C_11  and  O_12
REMARK                            x       y       z     vdW  Elec       q    Type
REMARK                         _______ _______ _______ _____ _____    ______ ____
ROOT
ATOM      1  C   UNL     1      -8.983   0.152 123.323  0.00  0.00    +0.000 C 
ENDROOT
BRANCH   1   2
ATOM      2  O   UNL     1     -10.149  -0.336 122.635  0.00  0.00    +0.000 OA
ATOM      3  H   UNL     1      -9.971  -1.220 122.269  0.00  0.00    +0.000 HD
ENDBRANCH   1   2
BRANCH   1   4
ATOM      4  C   UNL     1      -9.240   1.616 123.769  0.00  0.00    +0.000 C 
BRANCH   4   5
ATOM      5  O   UNL     1     -10.509   1.842 124.379  0.00  0.00    +0.000 OA
ATOM      6  H   UNL     1     -11.174   2.229 123.765  0.00  0.00    +0.000 HD
ENDBRANCH   4   5
BRANCH   4   7
ATOM      7  C   UNL     1      -8.937   2.605 122.627  0.00  0.00    +0.000 C 
BRANCH   7   8
ATOM      8  O   UNL     1      -8.262   3.752 123.112  0.00  0.00    +0.000 OA
ATOM      9  H   UNL     1      -8.803   4.530 122.887  0.00  0.00    +0.000 HD
ENDBRANCH   7   8
ENDBRANCH   4   7
ENDBRANCH   1   4
BRANCH   1  10
ATOM     10  C   UNL     1      -8.577  -0.828 124.465  0.00  0.00    +0.000 C 
BRANCH  10  11
ATOM     11  O   UNL     1      -9.710  -1.044 125.329  0.00  0.00    +0.000 OA
ATOM     12  H   UNL     1      -9.909  -2.005 125.291  0.00  0.00    +0.000 HD
ENDBRANCH  10  11
BRANCH  10  13
ATOM     13  C   UNL     1      -8.076  -2.214 123.981  0.00  0.00    +0.000 C 
BRANCH  13  14
ATOM     14  O   UNL     1      -7.749  -2.304 122.591  0.00  0.00    +0.000 OA
ATOM     15  H   UNL     1      -6.801  -2.440 122.432  0.00  0.00    +0.000 HD
ENDBRANCH  13  14
BRANCH  13  16
ATOM     16  C   UNL     1      -9.089  -3.328 124.313  0.00  0.00    +0.000 C 
BRANCH  16  17
ATOM     17  O   UNL     1     -10.172  -3.317 123.394  0.00  0.00    +0.000 OA
ATOM     18  H   UNL     1     -10.961  -3.049 123.897  0.00  0.00    +0.000 HD
ENDBRANCH  16  17
ENDBRANCH  13  16
ENDBRANCH  10  13
ENDBRANCH   1  10
TORSDOF 11
ENDMDL
MODEL 7
REMARK VINA RESULT:      -4.4      1.688      2.396
REMARK  Name = Mannitol
REMARK  11 active torsions:
REMARK  status: ('A' for Active; 'I' for Inactive)
REMARK    1  A    between atoms: O_1  and  C_2
REMARK    2  A    between atoms: C_2  and  C_3
REMARK    3  A    between atoms: C_3  and  O_4
REMARK    4  A    between atoms: C_3  and  C_5
REMARK    5  A    between atoms: C_5  and  O_6
REMARK    6  A    between atoms: C_5  and  C_7
REMARK    7  A    between atoms: C_7  and  O_8
REMARK    8  A    between atoms: C_7  and  C_9
REMARK    9  A    between atoms: C_9  and  O_10
REMARK   10  A    between atoms: C_9  and  C_11
REMARK   11  A    between atoms: C_11  and  O_12
REMARK                            x       y       z     vdW  Elec       q    Type
REMARK                         _______ _______ _______ _____ _____    ______ ____
ROOT
ATOM      1  C   UNL     1     -10.922   6.988 130.011  0.00  0.00    +0.000 C 
ENDROOT
BRANCH   1   2
ATOM      2  O   UNL     1     -10.562   6.201 128.860  0.00  0.00    +0.000 OA
ATOM      3  H   UNL     1      -9.660   6.428 128.573  0.00  0.00    +0.000 HD
ENDBRANCH   1   2
BRANCH   1   4
ATOM      4  C   UNL     1     -12.341   7.576 129.792  0.00  0.00    +0.000 C 
BRANCH   4   5
ATOM      5  O   UNL     1     -13.273   6.683 129.184  0.00  0.00    +0.000 OA
ATOM      6  H   UNL     1     -12.844   5.949 128.689  0.00  0.00    +0.000 HD
ENDBRANCH   4   5
BRANCH   4   7
ATOM      7  C   UNL     1     -12.271   8.943 129.085  0.00  0.00    +0.000 C 
BRANCH   7   8
ATOM      8  O   UNL     1     -11.270   8.949 128.083  0.00  0.00    +0.000 OA
ATOM      9  H   UNL     1     -10.924   9.857 128.016  0.00  0.00    +0.000 HD
ENDBRANCH   7   8
ENDBRANCH   4   7
ENDBRANCH   1   4
BRANCH   1  10
ATOM     10  C   UNL     1     -10.745   6.153 131.316  0.00  0.00    +0.000 C 
BRANCH  10  11
ATOM     11  O   UNL     1     -12.023   6.011 131.966  0.00  0.00    +0.000 OA
ATOM     12  H   UNL     1     -12.667   5.775 131.263  0.00  0.00    +0.000 HD
ENDBRANCH  10  11
BRANCH  10  13
ATOM     13  C   UNL     1     -10.159   4.733 131.100  0.00  0.00    +0.000 C 
BRANCH  13  14
ATOM     14  O   UNL     1     -11.108   3.716 130.765  0.00  0.00    +0.000 OA
ATOM     15  H   UNL     1     -11.213   3.049 131.464  0.00  0.00    +0.000 HD
ENDBRANCH  13  14
BRANCH  13  16
ATOM     16  C   UNL     1      -9.356   4.261 132.329  0.00  0.00    +0.000 C 
BRANCH  16  17
ATOM     17  O   UNL     1     -10.102   4.450 133.523  0.00  0.00    +0.000 OA
ATOM     18  H   UNL     1     -10.978   4.056 133.369  0.00  0.00    +0.000 HD
ENDBRANCH  16  17
ENDBRANCH  13  16
ENDBRANCH  10  13
ENDBRANCH   1  10
TORSDOF 11
ENDMDL
MODEL 8
REMARK VINA RESULT:      -4.4      1.389      4.445
REMARK  Name = Mannitol
REMARK  11 active torsions:
REMARK  status: ('A' for Active; 'I' for Inactive)
REMARK    1  A    between atoms: O_1  and  C_2
REMARK    2  A    between atoms: C_2  and  C_3
REMARK    3  A    between atoms: C_3  and  O_4
REMARK    4  A    between atoms: C_3  and  C_5
REMARK    5  A    between atoms: C_5  and  O_6
REMARK    6  A    between atoms: C_5  and  C_7
REMARK    7  A    between atoms: C_7  and  O_8
REMARK    8  A    between atoms: C_7  and  C_9
REMARK    9  A    between atoms: C_9  and  O_10
REMARK   10  A    between atoms: C_9  and  C_11
REMARK   11  A    between atoms: C_11  and  O_12
REMARK                            x       y       z     vdW  Elec       q    Type
REMARK                         _______ _______ _______ _____ _____    ______ ____
ROOT
ATOM      1  C   UNL     1     -10.446   6.222 129.664  0.00  0.00    +0.000 C 
ENDROOT
BRANCH   1   2
ATOM      2  O   UNL     1      -9.663   6.156 128.458  0.00  0.00    +0.000 OA
ATOM      3  H   UNL     1      -8.891   6.744 128.532  0.00  0.00    +0.000 HD
ENDBRANCH   1   2
BRANCH   1   4
ATOM      4  C   UNL     1      -9.589   6.871 130.783  0.00  0.00    +0.000 C 
BRANCH   4   5
ATOM      5  O   UNL     1      -8.308   7.336 130.363  0.00  0.00    +0.000 OA
ATOM      6  H   UNL     1      -8.075   7.067 129.445  0.00  0.00    +0.000 HD
ENDBRANCH   4   5
BRANCH   4   7
ATOM      7  C   UNL     1      -9.521   5.964 132.026  0.00  0.00    +0.000 C 
BRANCH   7   8
ATOM      8  O   UNL     1     -10.759   5.950 132.715  0.00  0.00    +0.000 OA
ATOM      9  H   UNL     1     -10.868   5.066 133.109  0.00  0.00    +0.000 HD
ENDBRANCH   7   8
ENDBRANCH   4   7
ENDBRANCH   1   4
BRANCH   1  10
ATOM     10  C   UNL     1     -11.812   6.920 129.386  0.00  0.00    +0.000 C 
BRANCH  10  11
ATOM     11  O   UNL     1     -12.227   7.637 130.566  0.00  0.00    +0.000 OA
ATOM     12  H   UNL     1     -11.800   7.189 131.327  0.00  0.00    +0.000 HD
ENDBRANCH  10  11
BRANCH  10  13
ATOM     13  C   UNL     1     -11.798   7.920 128.201  0.00  0.00    +0.000 C 
BRANCH  13  14
ATOM     14  O   UNL     1     -12.330   9.219 128.479  0.00  0.00    +0.000 OA
ATOM     15  H   UNL     1     -11.747   9.756 129.040  0.00  0.00    +0.000 HD
ENDBRANCH  13  14
BRANCH  13  16
ATOM     16  C   UNL     1     -12.532   7.349 126.970  0.00  0.00    +0.000 C 
BRANCH  16  17
ATOM     17  O   UNL     1     -11.658   6.546 126.190  0.00  0.00    +0.000 OA
ATOM     18  H   UNL     1     -10.875   7.092 125.998  0.00  0.00    +0.000 HD
ENDBRANCH  16  17
ENDBRANCH  13  16
ENDBRANCH  10  13
ENDBRANCH   1  10
TORSDOF 11
ENDMDL
MODEL 9
REMARK VINA RESULT:      -4.3      7.968      9.379
REMARK  Name = Mannitol
REMARK  11 active torsions:
REMARK  status: ('A' for Active; 'I' for Inactive)
REMARK    1  A    between atoms: O_1  and  C_2
REMARK    2  A    between atoms: C_2  and  C_3
REMARK    3  A    between atoms: C_3  and  O_4
REMARK    4  A    between atoms: C_3  and  C_5
REMARK    5  A    between atoms: C_5  and  O_6
REMARK    6  A    between atoms: C_5  and  C_7
REMARK    7  A    between atoms: C_7  and  O_8
REMARK    8  A    between atoms: C_7  and  C_9
REMARK    9  A    between atoms: C_9  and  O_10
REMARK   10  A    between atoms: C_9  and  C_11
REMARK   11  A    between atoms: C_11  and  O_12
REMARK                            x       y       z     vdW  Elec       q    Type
REMARK                         _______ _______ _______ _____ _____    ______ ____
ROOT
ATOM      1  C   UNL     1      -8.521  -0.655 124.588  0.00  0.00    +0.000 C 
ENDROOT
BRANCH   1   2
ATOM      2  O   UNL     1      -9.662  -0.732 125.464  0.00  0.00    +0.000 OA
ATOM      3  H   UNL     1     -10.376  -1.234 125.034  0.00  0.00    +0.000 HD
ENDBRANCH   1   2
BRANCH   1   4
ATOM      4  C   UNL     1      -8.914  -1.232 123.203  0.00  0.00    +0.000 C 
BRANCH   4   5
ATOM      5  O   UNL     1     -10.111  -0.692 122.646  0.00  0.00    +0.000 OA
ATOM      6  H   UNL     1     -10.930  -1.094 123.014  0.00  0.00    +0.000 HD
ENDBRANCH   4   5
BRANCH   4   7
ATOM      7  C   UNL     1      -8.902  -2.773 123.220  0.00  0.00    +0.000 C 
BRANCH   7   8
ATOM      8  O   UNL     1     -10.133  -3.287 123.695  0.00  0.00    +0.000 OA
ATOM      9  H   UNL     1     -10.148  -3.173 124.662  0.00  0.00    +0.000 HD
ENDBRANCH   7   8
ENDBRANCH   4   7
ENDBRANCH   1   4
BRANCH   1  10
ATOM     10  C   UNL     1      -7.952   0.796 124.566  0.00  0.00    +0.000 C 
BRANCH  10  11
ATOM     11  O   UNL     1      -7.562   1.131 123.219  0.00  0.00    +0.000 OA
ATOM     12  H   UNL     1      -7.029   0.377 122.889  0.00  0.00    +0.000 HD
ENDBRANCH  10  11
BRANCH  10  13
ATOM     13  C   UNL     1      -8.938   1.885 125.062  0.00  0.00    +0.000 C 
BRANCH  13  14
ATOM     14  O   UNL     1     -10.173   1.976 124.347  0.00  0.00    +0.000 OA
ATOM     15  H   UNL     1     -10.182   1.444 123.534  0.00  0.00    +0.000 HD
ENDBRANCH  13  14
BRANCH  13  16
ATOM     16  C   UNL     1      -8.280   3.280 125.073  0.00  0.00    +0.000 C 
BRANCH  16  17
ATOM     17  O   UNL     1      -8.263   3.839 123.767  0.00  0.00    +0.000 OA
ATOM     18  H   UNL     1      -8.864   3.299 123.225  0.00  0.00    +0.000 HD
ENDBRANCH  16  17
ENDBRANCH  13  16
ENDBRANCH  10  13
ENDBRANCH   1  10
TORSDOF 11
ENDMDL
