MODEL 1
REMARK VINA RESULT:      -7.6      0.000      0.000
REMARK  Name = Maprotiline
REMARK  5 active torsions:
REMARK  status: ('A' for Active; 'I' for Inactive)
REMARK    1  A    between atoms: C_1  and  N_2
REMARK    2  A    between atoms: N_2  and  C_3
REMARK    3  A    between atoms: C_3  and  C_4
REMARK    4  A    between atoms: C_4  and  C_5
REMARK    5  A    between atoms: C_5  and  C_6
REMARK                            x       y       z     vdW  Elec       q    Type
REMARK                         _______ _______ _______ _____ _____    ______ ____
ROOT
ATOM      1  C   UNL     1      -8.375  -2.070 125.468  0.00  0.00    +0.000 C 
ATOM      2  C   UNL     1      -9.350  -3.205 124.989  0.00  0.00    +0.000 C 
ATOM      3  C   UNL     1      -9.495  -3.213 123.443  0.00  0.00    +0.000 C 
ATOM      4  C   UNL     1      -8.632  -2.090 122.826  0.00  0.00    +0.000 C 
ATOM      5  C   UNL     1      -7.206  -2.360 123.301  0.00  0.00    +0.000 A 
ATOM      6  C   UNL     1      -6.116  -2.584 122.469  0.00  0.00    +0.000 A 
ATOM      7  C   UNL     1      -4.865  -2.796 123.048  0.00  0.00    +0.000 A 
ATOM      8  C   UNL     1      -4.707  -2.784 124.439  0.00  0.00    +0.000 A 
ATOM      9  C   UNL     1      -5.799  -2.556 125.279  0.00  0.00    +0.000 A 
ATOM     10  C   UNL     1      -7.055  -2.348 124.715  0.00  0.00    +0.000 A 
ATOM     11  C   UNL     1      -9.095  -0.787 123.474  0.00  0.00    +0.000 A 
ATOM     12  C   UNL     1      -9.591   0.318 122.791  0.00  0.00    +0.000 A 
ATOM     13  C   UNL     1      -9.943   1.458 123.518  0.00  0.00    +0.000 A 
ATOM     14  C   UNL     1      -9.779   1.502 124.904  0.00  0.00    +0.000 A 
ATOM     15  C   UNL     1      -9.257   0.405 125.588  0.00  0.00    +0.000 A 
ATOM     16  C   UNL     1      -8.941  -0.756 124.884  0.00  0.00    +0.000 A 
ENDROOT
BRANCH   1  17
ATOM     17  C   UNL     1      -8.226  -2.068 127.000  0.00  0.00    +0.000 C 
BRANCH  17  18
ATOM     18  C   UNL     1      -8.604  -3.401 127.651  0.00  0.00    +0.000 C 
BRANCH  18  19
ATOM     19  C   UNL     1      -8.221  -3.404 129.119  0.00  0.00    +0.000 C 
BRANCH  19  21
ATOM     20  C   UNL     1      -6.216  -4.077 130.223  0.00  0.00    +0.000 C 
ATOM     21  N   UNL     1      -6.779  -3.202 129.210  0.00  0.00    +0.000 NA
ATOM     22  H   UNL     1      -6.348  -3.395 128.306  0.00  0.00    +0.000 HD
ENDBRANCH  19  21
ENDBRANCH  18  19
ENDBRANCH  17  18
ENDBRANCH   1  17
TORSDOF 4
ENDMDL
MODEL 2
REMARK VINA RESULT:      -7.5      2.124      5.385
REMARK  Name = Maprotiline
REMARK  5 active torsions:
REMARK  status: ('A' for Active; 'I' for Inactive)
REMARK    1  A    between atoms: C_1  and  N_2
REMARK    2  A    between atoms: N_2  and  C_3
REMARK    3  A    between atoms: C_3  and  C_4
REMARK    4  A    between atoms: C_4  and  C_5
REMARK    5  A    between atoms: C_5  and  C_6
REMARK                            x       y       z     vdW  Elec       q    Type
REMARK                         _______ _______ _______ _____ _____    ______ ____
ROOT
ATOM      1  C   UNL     1      -7.433  -1.504 125.051  0.00  0.00    +0.000 C 
ATOM      2  C   UNL     1      -8.738  -1.743 124.208  0.00  0.00    +0.000 C 
ATOM      3  C   UNL     1      -9.194  -3.225 124.277  0.00  0.00    +0.000 C 
ATOM      4  C   UNL     1      -8.220  -4.036 125.161  0.00  0.00    +0.000 C 
ATOM      5  C   UNL     1      -8.220  -3.339 126.520  0.00  0.00    +0.000 A 
ATOM      6  C   UNL     1      -8.574  -3.936 127.723  0.00  0.00    +0.000 A 
ATOM      7  C   UNL     1      -8.505  -3.177 128.892  0.00  0.00    +0.000 A 
ATOM      8  C   UNL     1      -8.087  -1.842 128.856  0.00  0.00    +0.000 A 
ATOM      9  C   UNL     1      -7.727  -1.239 127.649  0.00  0.00    +0.000 A 
ATOM     10  C   UNL     1      -7.796  -1.983 126.474  0.00  0.00    +0.000 A 
ATOM     11  C   UNL     1      -6.833  -3.855 124.550  0.00  0.00    +0.000 A 
ATOM     12  C   UNL     1      -6.014  -4.884 124.098  0.00  0.00    +0.000 A 
ATOM     13  C   UNL     1      -4.750  -4.568 123.594  0.00  0.00    +0.000 A 
ATOM     14  C   UNL     1      -4.302  -3.246 123.563  0.00  0.00    +0.000 A 
ATOM     15  C   UNL     1      -5.111  -2.215 124.039  0.00  0.00    +0.000 A 
ATOM     16  C   UNL     1      -6.392  -2.508 124.506  0.00  0.00    +0.000 A 
ENDROOT
BRANCH   1  17
ATOM     17  C   UNL     1      -6.985  -0.033 124.987  0.00  0.00    +0.000 C 
BRANCH  17  18
ATOM     18  C   UNL     1      -7.873   0.837 124.093  0.00  0.00    +0.000 C 
BRANCH  18  19
ATOM     19  C   UNL     1      -8.473   1.981 124.889  0.00  0.00    +0.000 C 
BRANCH  19  21
ATOM     20  C   UNL     1     -10.144   1.462 123.268  0.00  0.00    +0.000 C 
ATOM     21  N   UNL     1      -9.895   2.055 124.570  0.00  0.00    +0.000 NA
ATOM     22  H   UNL     1     -10.433   1.564 125.284  0.00  0.00    +0.000 HD
ENDBRANCH  19  21
ENDBRANCH  18  19
ENDBRANCH  17  18
ENDBRANCH   1  17
TORSDOF 4
ENDMDL
MODEL 3
REMARK VINA RESULT:      -6.9      2.606      6.727
REMARK  Name = Maprotiline
REMARK  5 active torsions:
REMARK  status: ('A' for Active; 'I' for Inactive)
REMARK    1  A    between atoms: C_1  and  N_2
REMARK    2  A    between atoms: N_2  and  C_3
REMARK    3  A    between atoms: C_3  and  C_4
REMARK    4  A    between atoms: C_4  and  C_5
REMARK    5  A    between atoms: C_5  and  C_6
REMARK                            x       y       z     vdW  Elec       q    Type
REMARK                         _______ _______ _______ _____ _____    ______ ____
ROOT
ATOM      1  C   UNL     1      -6.994  -1.993 127.854  0.00  0.00    +0.000 C 
ATOM      2  C   UNL     1      -8.162  -3.043 127.792  0.00  0.00    +0.000 C 
ATOM      3  C   UNL     1      -8.587  -3.502 129.213  0.00  0.00    +0.000 C 
ATOM      4  C   UNL     1      -7.728  -2.786 130.278  0.00  0.00    +0.000 C 
ATOM      5  C   UNL     1      -7.936  -1.292 130.037  0.00  0.00    +0.000 A 
ATOM      6  C   UNL     1      -8.441  -0.395 130.971  0.00  0.00    +0.000 A 
ATOM      7  C   UNL     1      -8.555   0.949 130.614  0.00  0.00    +0.000 A 
ATOM      8  C   UNL     1      -8.168   1.387 129.342  0.00  0.00    +0.000 A 
ATOM      9  C   UNL     1      -7.657   0.491 128.402  0.00  0.00    +0.000 A 
ATOM     10  C   UNL     1      -7.543  -0.855 128.743  0.00  0.00    +0.000 A 
ATOM     11  C   UNL     1      -6.274  -3.109 129.945  0.00  0.00    +0.000 A 
ATOM     12  C   UNL     1      -5.374  -3.737 130.800  0.00  0.00    +0.000 A 
ATOM     13  C   UNL     1      -4.060  -3.934 130.369  0.00  0.00    +0.000 A 
ATOM     14  C   UNL     1      -3.645  -3.491 129.112  0.00  0.00    +0.000 A 
ATOM     15  C   UNL     1      -4.537  -2.837 128.264  0.00  0.00    +0.000 A 
ATOM     16  C   UNL     1      -5.864  -2.670 128.660  0.00  0.00    +0.000 A 
ENDROOT
BRANCH   1  17
ATOM     17  C   UNL     1      -6.578  -1.533 126.445  0.00  0.00    +0.000 C 
BRANCH  17  18
ATOM     18  C   UNL     1      -7.425  -2.148 125.328  0.00  0.00    +0.000 C 
BRANCH  18  19
ATOM     19  C   UNL     1      -8.291  -1.089 124.672  0.00  0.00    +0.000 C 
BRANCH  19  21
ATOM     20  C   UNL     1      -9.151  -3.202 123.976  0.00  0.00    +0.000 C 
ATOM     21  N   UNL     1      -9.368  -1.766 123.958  0.00  0.00    +0.000 NA
ATOM     22  H   UNL     1     -10.263  -1.545 124.395  0.00  0.00    +0.000 HD
ENDBRANCH  19  21
ENDBRANCH  18  19
ENDBRANCH  17  18
ENDBRANCH   1  17
TORSDOF 4
ENDMDL
MODEL 4
REMARK VINA RESULT:      -6.8      2.866      5.000
REMARK  Name = Maprotiline
REMARK  5 active torsions:
REMARK  status: ('A' for Active; 'I' for Inactive)
REMARK    1  A    between atoms: C_1  and  N_2
REMARK    2  A    between atoms: N_2  and  C_3
REMARK    3  A    between atoms: C_3  and  C_4
REMARK    4  A    between atoms: C_4  and  C_5
REMARK    5  A    between atoms: C_5  and  C_6
REMARK                            x       y       z     vdW  Elec       q    Type
REMARK                         _______ _______ _______ _____ _____    ______ ____
ROOT
ATOM      1  C   UNL     1      -6.924  -0.536 125.592  0.00  0.00    +0.000 C 
ATOM      2  C   UNL     1      -5.776  -1.274 124.812  0.00  0.00    +0.000 C 
ATOM      3  C   UNL     1      -6.307  -2.540 124.088  0.00  0.00    +0.000 C 
ATOM      4  C   UNL     1      -7.820  -2.704 124.351  0.00  0.00    +0.000 C 
ATOM      5  C   UNL     1      -8.466  -1.410 123.859  0.00  0.00    +0.000 A 
ATOM      6  C   UNL     1      -9.441  -1.329 122.872  0.00  0.00    +0.000 A 
ATOM      7  C   UNL     1      -9.954  -0.075 122.540  0.00  0.00    +0.000 A 
ATOM      8  C   UNL     1      -9.499   1.080 123.187  0.00  0.00    +0.000 A 
ATOM      9  C   UNL     1      -8.521   1.003 124.181  0.00  0.00    +0.000 A 
ATOM     10  C   UNL     1      -7.996  -0.241 124.519  0.00  0.00    +0.000 A 
ATOM     11  C   UNL     1      -7.989  -2.755 125.868  0.00  0.00    +0.000 A 
ATOM     12  C   UNL     1      -8.568  -3.802 126.576  0.00  0.00    +0.000 A 
ATOM     13  C   UNL     1      -8.688  -3.692 127.964  0.00  0.00    +0.000 A 
ATOM     14  C   UNL     1      -8.257  -2.544 128.631  0.00  0.00    +0.000 A 
ATOM     15  C   UNL     1      -7.701  -1.482 127.920  0.00  0.00    +0.000 A 
ATOM     16  C   UNL     1      -7.534  -1.592 126.540  0.00  0.00    +0.000 A 
ENDROOT
BRANCH   1  17
ATOM     17  C   UNL     1      -6.399   0.724 126.304  0.00  0.00    +0.000 C 
BRANCH  17  18
ATOM     18  C   UNL     1      -4.878   0.882 126.222  0.00  0.00    +0.000 C 
BRANCH  18  19
ATOM     19  C   UNL     1      -4.467   2.293 126.597  0.00  0.00    +0.000 C 
BRANCH  19  21
ATOM     20  C   UNL     1      -2.567   3.675 127.009  0.00  0.00    +0.000 C 
ATOM     21  N   UNL     1      -3.011   2.334 126.670  0.00  0.00    +0.000 NA
ATOM     22  H   UNL     1      -2.684   1.672 127.374  0.00  0.00    +0.000 HD
ENDBRANCH  19  21
ENDBRANCH  18  19
ENDBRANCH  17  18
ENDBRANCH   1  17
TORSDOF 4
ENDMDL
MODEL 5
REMARK VINA RESULT:      -6.7      3.319      4.413
REMARK  Name = Maprotiline
REMARK  5 active torsions:
REMARK  status: ('A' for Active; 'I' for Inactive)
REMARK    1  A    between atoms: C_1  and  N_2
REMARK    2  A    between atoms: N_2  and  C_3
REMARK    3  A    between atoms: C_3  and  C_4
REMARK    4  A    between atoms: C_4  and  C_5
REMARK    5  A    between atoms: C_5  and  C_6
REMARK                            x       y       z     vdW  Elec       q    Type
REMARK                         _______ _______ _______ _____ _____    ______ ____
ROOT
ATOM      1  C   UNL     1      -6.691   0.722 125.458  0.00  0.00    +0.000 C 
ATOM      2  C   UNL     1      -7.703   0.922 126.643  0.00  0.00    +0.000 C 
ATOM      3  C   UNL     1      -9.157   0.597 126.207  0.00  0.00    +0.000 C 
ATOM      4  C   UNL     1      -9.181   0.172 124.722  0.00  0.00    +0.000 C 
ATOM      5  C   UNL     1      -8.238  -1.025 124.622  0.00  0.00    +0.000 A 
ATOM      6  C   UNL     1      -8.599  -2.292 124.180  0.00  0.00    +0.000 A 
ATOM      7  C   UNL     1      -7.621  -3.285 124.123  0.00  0.00    +0.000 A 
ATOM      8  C   UNL     1      -6.302  -3.014 124.502  0.00  0.00    +0.000 A 
ATOM      9  C   UNL     1      -5.932  -1.741 124.943  0.00  0.00    +0.000 A 
ATOM     10  C   UNL     1      -6.900  -0.742 125.011  0.00  0.00    +0.000 A 
ATOM     11  C   UNL     1      -8.552   1.320 123.937  0.00  0.00    +0.000 A 
ATOM     12  C   UNL     1      -9.173   2.028 122.913  0.00  0.00    +0.000 A 
ATOM     13  C   UNL     1      -8.457   3.034 122.258  0.00  0.00    +0.000 A 
ATOM     14  C   UNL     1      -7.134   3.313 122.605  0.00  0.00    +0.000 A 
ATOM     15  C   UNL     1      -6.501   2.587 123.613  0.00  0.00    +0.000 A 
ATOM     16  C   UNL     1      -7.213   1.609 124.306  0.00  0.00    +0.000 A 
ENDROOT
BRANCH   1  17
ATOM     17  C   UNL     1      -5.248   1.037 125.894  0.00  0.00    +0.000 C 
BRANCH  17  18
ATOM     18  C   UNL     1      -5.166   1.998 127.082  0.00  0.00    +0.000 C 
BRANCH  18  19
ATOM     19  C   UNL     1      -4.077   3.031 126.858  0.00  0.00    +0.000 C 
BRANCH  19  21
ATOM     20  C   UNL     1      -1.713   3.046 126.541  0.00  0.00    +0.000 C 
ATOM     21  N   UNL     1      -2.809   2.449 127.284  0.00  0.00    +0.000 NA
ATOM     22  H   UNL     1      -2.678   2.605 128.283  0.00  0.00    +0.000 HD
ENDBRANCH  19  21
ENDBRANCH  18  19
ENDBRANCH  17  18
ENDBRANCH   1  17
TORSDOF 4
ENDMDL
MODEL 6
REMARK VINA RESULT:      -6.7      2.597      3.041
REMARK  Name = Maprotiline
REMARK  5 active torsions:
REMARK  status: ('A' for Active; 'I' for Inactive)
REMARK    1  A    between atoms: C_1  and  N_2
REMARK    2  A    between atoms: N_2  and  C_3
REMARK    3  A    between atoms: C_3  and  C_4
REMARK    4  A    between atoms: C_4  and  C_5
REMARK    5  A    between atoms: C_5  and  C_6
REMARK                            x       y       z     vdW  Elec       q    Type
REMARK                         _______ _______ _______ _____ _____    ______ ____
ROOT
ATOM      1  C   UNL     1      -6.910   0.396 125.745  0.00  0.00    +0.000 C 
ATOM      2  C   UNL     1      -8.475   0.333 125.618  0.00  0.00    +0.000 C 
ATOM      3  C   UNL     1      -8.926   0.415 124.135  0.00  0.00    +0.000 C 
ATOM      4  C   UNL     1      -7.692   0.539 123.213  0.00  0.00    +0.000 C 
ATOM      5  C   UNL     1      -6.829  -0.685 123.516  0.00  0.00    +0.000 A 
ATOM      6  C   UNL     1      -6.453  -1.646 122.586  0.00  0.00    +0.000 A 
ATOM      7  C   UNL     1      -5.642  -2.701 123.005  0.00  0.00    +0.000 A 
ATOM      8  C   UNL     1      -5.215  -2.792 124.335  0.00  0.00    +0.000 A 
ATOM      9  C   UNL     1      -5.587  -1.826 125.272  0.00  0.00    +0.000 A 
ATOM     10  C   UNL     1      -6.401  -0.771 124.869  0.00  0.00    +0.000 A 
ATOM     11  C   UNL     1      -6.925   1.771 123.685  0.00  0.00    +0.000 A 
ATOM     12  C   UNL     1      -6.622   2.878 122.900  0.00  0.00    +0.000 A 
ATOM     13  C   UNL     1      -5.879   3.920 123.461  0.00  0.00    +0.000 A 
ATOM     14  C   UNL     1      -5.426   3.847 124.779  0.00  0.00    +0.000 A 
ATOM     15  C   UNL     1      -5.706   2.727 125.560  0.00  0.00    +0.000 A 
ATOM     16  C   UNL     1      -6.482   1.697 125.031  0.00  0.00    +0.000 A 
ENDROOT
BRANCH   1  17
ATOM     17  C   UNL     1      -6.463   0.306 127.216  0.00  0.00    +0.000 C 
BRANCH  17  18
ATOM     18  C   UNL     1      -7.626   0.152 128.199  0.00  0.00    +0.000 C 
BRANCH  18  19
ATOM     19  C   UNL     1      -7.434  -1.080 129.063  0.00  0.00    +0.000 C 
BRANCH  19  21
ATOM     20  C   UNL     1      -8.360  -3.277 128.984  0.00  0.00    +0.000 C 
ATOM     21  N   UNL     1      -7.657  -2.255 128.228  0.00  0.00    +0.000 NA
ATOM     22  H   UNL     1      -8.203  -1.994 127.407  0.00  0.00    +0.000 HD
ENDBRANCH  19  21
ENDBRANCH  18  19
ENDBRANCH  17  18
ENDBRANCH   1  17
TORSDOF 4
ENDMDL
MODEL 7
REMARK VINA RESULT:      -6.6      3.234      3.992
REMARK  Name = Maprotiline
REMARK  5 active torsions:
REMARK  status: ('A' for Active; 'I' for Inactive)
REMARK    1  A    between atoms: C_1  and  N_2
REMARK    2  A    between atoms: N_2  and  C_3
REMARK    3  A    between atoms: C_3  and  C_4
REMARK    4  A    between atoms: C_4  and  C_5
REMARK    5  A    between atoms: C_5  and  C_6
REMARK                            x       y       z     vdW  Elec       q    Type
REMARK                         _______ _______ _______ _____ _____    ______ ____
ROOT
ATOM      1  C   UNL     1      -6.993   0.632 125.745  0.00  0.00    +0.000 C 
ATOM      2  C   UNL     1      -8.554   0.596 125.564  0.00  0.00    +0.000 C 
ATOM      3  C   UNL     1      -8.951   0.624 124.064  0.00  0.00    +0.000 C 
ATOM      4  C   UNL     1      -7.684   0.682 123.183  0.00  0.00    +0.000 C 
ATOM      5  C   UNL     1      -6.859  -0.545 123.568  0.00  0.00    +0.000 A 
ATOM      6  C   UNL     1      -6.472  -1.553 122.694  0.00  0.00    +0.000 A 
ATOM      7  C   UNL     1      -5.699  -2.606 123.186  0.00  0.00    +0.000 A 
ATOM      8  C   UNL     1      -5.320  -2.647 124.533  0.00  0.00    +0.000 A 
ATOM      9  C   UNL     1      -5.704  -1.634 125.414  0.00  0.00    +0.000 A 
ATOM     10  C   UNL     1      -6.480  -0.581 124.937  0.00  0.00    +0.000 A 
ATOM     11  C   UNL     1      -6.907   1.918 123.629  0.00  0.00    +0.000 A 
ATOM     12  C   UNL     1      -6.553   2.983 122.808  0.00  0.00    +0.000 A 
ATOM     13  C   UNL     1      -5.807   4.033 123.350  0.00  0.00    +0.000 A 
ATOM     14  C   UNL     1      -5.402   4.007 124.686  0.00  0.00    +0.000 A 
ATOM     15  C   UNL     1      -5.732   2.928 125.503  0.00  0.00    +0.000 A 
ATOM     16  C   UNL     1      -6.513   1.892 124.991  0.00  0.00    +0.000 A 
ENDROOT
BRANCH   1  17
ATOM     17  C   UNL     1      -6.599   0.598 127.233  0.00  0.00    +0.000 C 
BRANCH  17  18
ATOM     18  C   UNL     1      -7.801   0.562 128.181  0.00  0.00    +0.000 C 
BRANCH  18  19
ATOM     19  C   UNL     1      -7.811   1.788 129.075  0.00  0.00    +0.000 C 
BRANCH  19  21
ATOM     20  C   UNL     1      -7.924   4.039 128.294  0.00  0.00    +0.000 C 
ATOM     21  N   UNL     1      -8.659   2.796 128.447  0.00  0.00    +0.000 NA
ATOM     22  H   UNL     1      -8.970   2.463 127.535  0.00  0.00    +0.000 HD
ENDBRANCH  19  21
ENDBRANCH  18  19
ENDBRANCH  17  18
ENDBRANCH   1  17
TORSDOF 4
ENDMDL
MODEL 8
REMARK VINA RESULT:      -6.6      2.920      5.764
REMARK  Name = Maprotiline
REMARK  5 active torsions:
REMARK  status: ('A' for Active; 'I' for Inactive)
REMARK    1  A    between atoms: C_1  and  N_2
REMARK    2  A    between atoms: N_2  and  C_3
REMARK    3  A    between atoms: C_3  and  C_4
REMARK    4  A    between atoms: C_4  and  C_5
REMARK    5  A    between atoms: C_5  and  C_6
REMARK                            x       y       z     vdW  Elec       q    Type
REMARK                         _______ _______ _______ _____ _____    ______ ____
ROOT
ATOM      1  C   UNL     1      -6.309  -1.279 128.231  0.00  0.00    +0.000 C 
ATOM      2  C   UNL     1      -7.198  -0.549 129.302  0.00  0.00    +0.000 C 
ATOM      3  C   UNL     1      -8.149  -1.542 130.022  0.00  0.00    +0.000 C 
ATOM      4  C   UNL     1      -7.941  -2.969 129.466  0.00  0.00    +0.000 C 
ATOM      5  C   UNL     1      -6.462  -3.282 129.682  0.00  0.00    +0.000 A 
ATOM      6  C   UNL     1      -5.972  -4.346 130.430  0.00  0.00    +0.000 A 
ATOM      7  C   UNL     1      -4.591  -4.520 130.521  0.00  0.00    +0.000 A 
ATOM      8  C   UNL     1      -3.714  -3.643 129.873  0.00  0.00    +0.000 A 
ATOM      9  C   UNL     1      -4.201  -2.575 129.117  0.00  0.00    +0.000 A 
ATOM     10  C   UNL     1      -5.578  -2.386 129.022  0.00  0.00    +0.000 A 
ATOM     11  C   UNL     1      -8.179  -2.882 127.961  0.00  0.00    +0.000 A 
ATOM     12  C   UNL     1      -9.130  -3.610 127.254  0.00  0.00    +0.000 A 
ATOM     13  C   UNL     1      -9.208  -3.452 125.868  0.00  0.00    +0.000 A 
ATOM     14  C   UNL     1      -8.333  -2.596 125.196  0.00  0.00    +0.000 A 
ATOM     15  C   UNL     1      -7.362  -1.886 125.898  0.00  0.00    +0.000 A 
ATOM     16  C   UNL     1      -7.297  -1.998 127.286  0.00  0.00    +0.000 A 
ENDROOT
BRANCH   1  17
ATOM     17  C   UNL     1      -5.362  -0.294 127.522  0.00  0.00    +0.000 C 
BRANCH  17  18
ATOM     18  C   UNL     1      -5.857   1.154 127.546  0.00  0.00    +0.000 C 
BRANCH  18  19
ATOM     19  C   UNL     1      -5.276   1.936 126.383  0.00  0.00    +0.000 C 
BRANCH  19  21
ATOM     20  C   UNL     1      -3.324   3.084 127.133  0.00  0.00    +0.000 C 
ATOM     21  N   UNL     1      -3.822   1.883 126.486  0.00  0.00    +0.000 NA
ATOM     22  H   UNL     1      -3.546   1.060 127.021  0.00  0.00    +0.000 HD
ENDBRANCH  19  21
ENDBRANCH  18  19
ENDBRANCH  17  18
ENDBRANCH   1  17
TORSDOF 4
ENDMDL
MODEL 9
REMARK VINA RESULT:      -6.6      2.945      5.810
REMARK  Name = Maprotiline
REMARK  5 active torsions:
REMARK  status: ('A' for Active; 'I' for Inactive)
REMARK    1  A    between atoms: C_1  and  N_2
REMARK    2  A    between atoms: N_2  and  C_3
REMARK    3  A    between atoms: C_3  and  C_4
REMARK    4  A    between atoms: C_4  and  C_5
REMARK    5  A    between atoms: C_5  and  C_6
REMARK                            x       y       z     vdW  Elec       q    Type
REMARK                         _______ _______ _______ _____ _____    ______ ____
ROOT
ATOM      1  C   UNL     1      -7.161  -2.119 129.634  0.00  0.00    +0.000 C 
ATOM      2  C   UNL     1      -5.702  -1.692 129.236  0.00  0.00    +0.000 C 
ATOM      3  C   UNL     1      -5.712  -0.474 128.272  0.00  0.00    +0.000 C 
ATOM      4  C   UNL     1      -7.166  -0.040 127.984  0.00  0.00    +0.000 C 
ATOM      5  C   UNL     1      -7.782   0.263 129.349  0.00  0.00    +0.000 A 
ATOM      6  C   UNL     1      -8.319   1.487 129.728  0.00  0.00    +0.000 A 
ATOM      7  C   UNL     1      -8.867   1.611 131.005  0.00  0.00    +0.000 A 
ATOM      8  C   UNL     1      -8.879   0.524 131.887  0.00  0.00    +0.000 A 
ATOM      9  C   UNL     1      -8.344  -0.709 131.509  0.00  0.00    +0.000 A 
ATOM     10  C   UNL     1      -7.788  -0.844 130.240  0.00  0.00    +0.000 A 
ATOM     11  C   UNL     1      -7.877  -1.268 127.421  0.00  0.00    +0.000 A 
ATOM     12  C   UNL     1      -8.500  -1.335 126.179  0.00  0.00    +0.000 A 
ATOM     13  C   UNL     1      -9.145  -2.520 125.812  0.00  0.00    +0.000 A 
ATOM     14  C   UNL     1      -9.185  -3.612 126.681  0.00  0.00    +0.000 A 
ATOM     15  C   UNL     1      -8.585  -3.537 127.936  0.00  0.00    +0.000 A 
ATOM     16  C   UNL     1      -7.901  -2.378 128.303  0.00  0.00    +0.000 A 
ENDROOT
BRANCH   1  17
ATOM     17  C   UNL     1      -7.150  -3.322 130.595  0.00  0.00    +0.000 C 
BRANCH  17  18
ATOM     18  C   UNL     1      -5.999  -4.298 130.339  0.00  0.00    +0.000 C 
BRANCH  18  19
ATOM     19  C   UNL     1      -5.277  -4.623 131.633  0.00  0.00    +0.000 C 
BRANCH  19  21
ATOM     20  C   UNL     1      -3.817  -3.273 132.951  0.00  0.00    +0.000 C 
ATOM     21  N   UNL     1      -4.022  -3.880 131.648  0.00  0.00    +0.000 NA
ATOM     22  H   UNL     1      -3.248  -4.508 131.432  0.00  0.00    +0.000 HD
ENDBRANCH  19  21
ENDBRANCH  18  19
ENDBRANCH  17  18
ENDBRANCH   1  17
TORSDOF 4
ENDMDL
