MODEL 1
REMARK VINA RESULT:      -8.8      0.000      0.000
REMARK  Name = Maralixibat
REMARK  18 active torsions:
REMARK  status: ('A' for Active; 'I' for Inactive)
REMARK    1  A    between atoms: C_1  and  C_2
REMARK    2  A    between atoms: C_2  and  C_3
REMARK    3  A    between atoms: C_3  and  C_4
REMARK    4  A    between atoms: C_4  and  C_5
REMARK    5  A    between atoms: C_5  and  C_6
REMARK    6  A    between atoms: C_6  and  C_7
REMARK    7  A    between atoms: C_7  and  C_8
REMARK    8  A    between atoms: C_8  and  C_9
REMARK    9  A    between atoms: C_17  and  N_46
REMARK   10  A    between atoms: C_20  and  C_23
REMARK   11  A    between atoms: C_21  and  O_22
REMARK   12  A    between atoms: C_26  and  O_27
REMARK   13  A    between atoms: O_27  and  C_28
REMARK   14  A    between atoms: C_28  and  C_29
REMARK   15  A    between atoms: C_32  and  C_33
REMARK   16  A    between atoms: C_33  and  N_34
REMARK   17  A    between atoms: N_46  and  C_47
REMARK   18  A    between atoms: N_46  and  C_48
REMARK                            x       y       z     vdW  Elec       q    Type
REMARK                         _______ _______ _______ _____ _____    ______ ____
ROOT
ATOM      1  C   UNL     1      -6.902  -0.873 124.389  0.00  0.00    +0.000 C 
ATOM      2  C   UNL     1      -7.484  -2.122 125.082  0.00  0.00    +0.000 C 
ATOM      3  S   UNL     1      -8.802  -2.026 126.192  0.00  0.00    +0.000 S 
ATOM      4  O   UNL     1      -9.143  -3.397 126.497  0.00  0.00    +0.000 OA
ATOM      5  O   UNL     1      -9.902  -1.219 125.672  0.00  0.00    +0.000 OA
ATOM      6  C   UNL     1      -7.893  -1.323 127.581  0.00  0.00    +0.000 A 
ATOM      7  C   UNL     1      -7.988  -2.224 128.626  0.00  0.00    +0.000 A 
ATOM      8  C   UNL     1      -7.238  -2.094 129.768  0.00  0.00    +0.000 A 
ATOM      9  C   UNL     1      -6.385  -1.024 129.984  0.00  0.00    +0.000 A 
ATOM     10  C   UNL     1      -6.251  -0.140 128.912  0.00  0.00    +0.000 A 
ATOM     11  C   UNL     1      -6.901  -0.289 127.670  0.00  0.00    +0.000 A 
ATOM     12  C   UNL     1      -6.444   0.707 126.582  0.00  0.00    +0.000 C 
ATOM     13  C   UNL     1      -5.899  -0.023 125.293  0.00  0.00    +0.000 C 
ENDROOT
BRANCH  12  14
ATOM     14  C   UNL     1      -5.714   2.061 126.874  0.00  0.00    +0.000 A 
ATOM     15  C   UNL     1      -4.330   2.130 126.902  0.00  0.00    +0.000 A 
ATOM     16  C   UNL     1      -3.709   3.213 127.525  0.00  0.00    +0.000 A 
ATOM     17  C   UNL     1      -4.436   4.339 127.916  0.00  0.00    +0.000 A 
ATOM     18  C   UNL     1      -5.800   4.396 127.664  0.00  0.00    +0.000 A 
ATOM     19  C   UNL     1      -6.442   3.246 127.202  0.00  0.00    +0.000 A 
BRANCH  17  20
ATOM     20  O   UNL     1      -3.707   5.310 128.537  0.00  0.00    +0.000 OA
BRANCH  20  21
ATOM     21  C   UNL     1      -3.399   5.035 129.891  0.00  0.00    +0.000 C 
BRANCH  21  22
ATOM     22  C   UNL     1      -4.643   5.253 130.678  0.00  0.00    +0.000 A 
ATOM     23  C   UNL     1      -5.308   4.227 131.371  0.00  0.00    +0.000 A 
ATOM     24  C   UNL     1      -6.535   4.460 131.990  0.00  0.00    +0.000 A 
ATOM     25  C   UNL     1      -7.038   5.755 132.023  0.00  0.00    +0.000 A 
ATOM     26  C   UNL     1      -6.254   6.774 131.441  0.00  0.00    +0.000 A 
ATOM     27  C   UNL     1      -5.136   6.535 130.700  0.00  0.00    +0.000 A 
BRANCH  25  28
ATOM     28  C   UNL     1      -8.400   6.011 132.623  0.00  0.00    +0.000 C 
BRANCH  28  29
ATOM     29  N   UNL     1      -9.534   5.829 131.647  0.00  0.00    +0.000 N 
ATOM     30  C   UNL     1      -9.833   4.303 131.417  0.00  0.00    +0.000 C 
ATOM     31  C   UNL     1     -10.873   4.161 130.300  0.00  0.00    +0.000 C 
ATOM     32  N   UNL     1     -11.440   5.463 129.862  0.00  0.00    +0.000 NA
ATOM     33  C   UNL     1     -10.342   6.301 129.307  0.00  0.00    +0.000 C 
ATOM     34  C   UNL     1      -9.262   6.644 130.341  0.00  0.00    +0.000 C 
ATOM     35  C   UNL     1     -11.956   6.153 131.080  0.00  0.00    +0.000 C 
ATOM     36  C   UNL     1     -10.874   6.394 132.177  0.00  0.00    +0.000 C 
ENDBRANCH  28  29
ENDBRANCH  25  28
ENDBRANCH  21  22
ENDBRANCH  20  21
ENDBRANCH  17  20
ENDBRANCH  12  14
BRANCH   9  37
ATOM     37  N   UNL     1      -5.695  -0.876 131.168  0.00  0.00    +0.000 N 
ATOM     38  C   UNL     1      -5.127  -2.024 131.870  0.00  0.00    +0.000 C 
ATOM     39  C   UNL     1      -5.540   0.404 131.846  0.00  0.00    +0.000 C 
ENDBRANCH   9  37
BRANCH  13  40
ATOM     40  O   UNL     1      -4.802  -0.871 125.690  0.00  0.00    +0.000 OA
ATOM     41  H   UNL     1      -4.899  -1.092 126.632  0.00  0.00    +0.000 HD
ENDBRANCH  13  40
BRANCH   1  42
ATOM     42  C   UNL     1      -6.104  -1.472 123.140  0.00  0.00    +0.000 C 
BRANCH  42  43
ATOM     43  C   UNL     1      -5.839  -2.985 123.263  0.00  0.00    +0.000 C 
BRANCH  43  45
ATOM     44  C   UNL     1      -4.329  -4.885 123.653  0.00  0.00    +0.000 C 
ATOM     45  C   UNL     1      -4.392  -3.399 123.317  0.00  0.00    +0.000 C 
ENDBRANCH  43  45
ENDBRANCH  42  43
ENDBRANCH   1  42
BRANCH   1  46
ATOM     46  C   UNL     1      -8.026   0.067 123.840  0.00  0.00    +0.000 C 
BRANCH  46  47
ATOM     47  C   UNL     1      -7.486   1.288 123.123  0.00  0.00    +0.000 C 
BRANCH  47  48
ATOM     48  C   UNL     1      -7.656   2.685 123.609  0.00  0.00    +0.000 C 
ATOM     49  C   UNL     1      -8.901   2.726 124.510  0.00  0.00    +0.000 C 
ENDBRANCH  47  48
ENDBRANCH  46  47
ENDBRANCH   1  46
TORSDOF 14
ENDMDL
MODEL 2
REMARK VINA RESULT:      -8.5      1.832      2.697
REMARK  Name = Maralixibat
REMARK  18 active torsions:
REMARK  status: ('A' for Active; 'I' for Inactive)
REMARK    1  A    between atoms: C_1  and  C_2
REMARK    2  A    between atoms: C_2  and  C_3
REMARK    3  A    between atoms: C_3  and  C_4
REMARK    4  A    between atoms: C_4  and  C_5
REMARK    5  A    between atoms: C_5  and  C_6
REMARK    6  A    between atoms: C_6  and  C_7
REMARK    7  A    between atoms: C_7  and  C_8
REMARK    8  A    between atoms: C_8  and  C_9
REMARK    9  A    between atoms: C_17  and  N_46
REMARK   10  A    between atoms: C_20  and  C_23
REMARK   11  A    between atoms: C_21  and  O_22
REMARK   12  A    between atoms: C_26  and  O_27
REMARK   13  A    between atoms: O_27  and  C_28
REMARK   14  A    between atoms: C_28  and  C_29
REMARK   15  A    between atoms: C_32  and  C_33
REMARK   16  A    between atoms: C_33  and  N_34
REMARK   17  A    between atoms: N_46  and  C_47
REMARK   18  A    between atoms: N_46  and  C_48
REMARK                            x       y       z     vdW  Elec       q    Type
REMARK                         _______ _______ _______ _____ _____    ______ ____
ROOT
ATOM      1  C   UNL     1      -6.938  -0.899 124.492  0.00  0.00    +0.000 C 
ATOM      2  C   UNL     1      -7.475  -2.209 125.103  0.00  0.00    +0.000 C 
ATOM      3  S   UNL     1      -8.814  -2.232 126.193  0.00  0.00    +0.000 S 
ATOM      4  O   UNL     1      -9.100  -3.631 126.415  0.00  0.00    +0.000 OA
ATOM      5  O   UNL     1      -9.939  -1.444 125.698  0.00  0.00    +0.000 OA
ATOM      6  C   UNL     1      -7.959  -1.570 127.635  0.00  0.00    +0.000 A 
ATOM      7  C   UNL     1      -8.031  -2.532 128.626  0.00  0.00    +0.000 A 
ATOM      8  C   UNL     1      -7.305  -2.435 129.787  0.00  0.00    +0.000 A 
ATOM      9  C   UNL     1      -6.503  -1.344 130.078  0.00  0.00    +0.000 A 
ATOM     10  C   UNL     1      -6.390  -0.395 129.059  0.00  0.00    +0.000 A 
ATOM     11  C   UNL     1      -7.013  -0.502 127.799  0.00  0.00    +0.000 A 
ATOM     12  C   UNL     1      -6.584   0.573 126.777  0.00  0.00    +0.000 C 
ATOM     13  C   UNL     1      -5.987  -0.060 125.459  0.00  0.00    +0.000 C 
ENDROOT
BRANCH  12  14
ATOM     14  C   UNL     1      -5.918   1.938 127.157  0.00  0.00    +0.000 A 
ATOM     15  C   UNL     1      -6.650   2.937 127.780  0.00  0.00    +0.000 A 
ATOM     16  C   UNL     1      -6.174   4.248 127.765  0.00  0.00    +0.000 A 
ATOM     17  C   UNL     1      -4.877   4.543 127.345  0.00  0.00    +0.000 A 
ATOM     18  C   UNL     1      -4.032   3.514 126.951  0.00  0.00    +0.000 A 
ATOM     19  C   UNL     1      -4.566   2.233 126.803  0.00  0.00    +0.000 A 
BRANCH  17  20
ATOM     20  O   UNL     1      -4.553   5.868 127.356  0.00  0.00    +0.000 OA
BRANCH  20  21
ATOM     21  C   UNL     1      -3.281   6.155 127.909  0.00  0.00    +0.000 C 
BRANCH  21  22
ATOM     22  C   UNL     1      -3.441   6.186 129.389  0.00  0.00    +0.000 A 
ATOM     23  C   UNL     1      -2.889   5.218 130.244  0.00  0.00    +0.000 A 
ATOM     24  C   UNL     1      -3.171   5.226 131.610  0.00  0.00    +0.000 A 
ATOM     25  C   UNL     1      -3.908   6.278 132.139  0.00  0.00    +0.000 A 
ATOM     26  C   UNL     1      -4.310   7.302 131.256  0.00  0.00    +0.000 A 
ATOM     27  C   UNL     1      -4.175   7.227 129.903  0.00  0.00    +0.000 A 
BRANCH  25  28
ATOM     28  C   UNL     1      -4.287   6.263 133.602  0.00  0.00    +0.000 C 
BRANCH  28  29
ATOM     29  N   UNL     1      -5.588   5.555 133.881  0.00  0.00    +0.000 N 
ATOM     30  C   UNL     1      -6.630   5.830 132.737  0.00  0.00    +0.000 C 
ATOM     31  C   UNL     1      -7.983   5.233 133.139  0.00  0.00    +0.000 C 
ATOM     32  N   UNL     1      -7.916   4.424 134.385  0.00  0.00    +0.000 NA
ATOM     33  C   UNL     1      -7.497   5.307 135.508  0.00  0.00    +0.000 C 
ATOM     34  C   UNL     1      -6.094   5.898 135.320  0.00  0.00    +0.000 C 
ATOM     35  C   UNL     1      -6.843   3.405 134.193  0.00  0.00    +0.000 C 
ATOM     36  C   UNL     1      -5.440   4.014 133.887  0.00  0.00    +0.000 C 
ENDBRANCH  28  29
ENDBRANCH  25  28
ENDBRANCH  21  22
ENDBRANCH  20  21
ENDBRANCH  17  20
ENDBRANCH  12  14
BRANCH   9  37
ATOM     37  N   UNL     1      -5.839  -1.233 131.280  0.00  0.00    +0.000 N 
ATOM     38  C   UNL     1      -4.838  -2.214 131.694  0.00  0.00    +0.000 C 
ATOM     39  C   UNL     1      -6.124  -0.191 132.257  0.00  0.00    +0.000 C 
ENDBRANCH   9  37
BRANCH  13  40
ATOM     40  O   UNL     1      -4.861  -0.882 125.828  0.00  0.00    +0.000 OA
ATOM     41  H   UNL     1      -4.183  -0.819 125.133  0.00  0.00    +0.000 HD
ENDBRANCH  13  40
BRANCH   1  42
ATOM     42  C   UNL     1      -6.095  -1.392 123.225  0.00  0.00    +0.000 C 
BRANCH  42  43
ATOM     43  C   UNL     1      -5.830  -2.911 123.232  0.00  0.00    +0.000 C 
BRANCH  43  45
ATOM     44  C   UNL     1      -4.345  -4.826 123.642  0.00  0.00    +0.000 C 
ATOM     45  C   UNL     1      -4.388  -3.328 123.358  0.00  0.00    +0.000 C 
ENDBRANCH  43  45
ENDBRANCH  42  43
ENDBRANCH   1  42
BRANCH   1  46
ATOM     46  C   UNL     1      -8.093   0.021 123.976  0.00  0.00    +0.000 C 
BRANCH  46  47
ATOM     47  C   UNL     1      -7.595   1.247 123.237  0.00  0.00    +0.000 C 
BRANCH  47  48
ATOM     48  C   UNL     1      -7.896   2.647 123.643  0.00  0.00    +0.000 C 
ATOM     49  C   UNL     1      -6.562   3.356 123.929  0.00  0.00    +0.000 C 
ENDBRANCH  47  48
ENDBRANCH  46  47
ENDBRANCH   1  46
TORSDOF 14
ENDMDL
MODEL 3
REMARK VINA RESULT:      -8.5      2.838      5.120
REMARK  Name = Maralixibat
REMARK  18 active torsions:
REMARK  status: ('A' for Active; 'I' for Inactive)
REMARK    1  A    between atoms: C_1  and  C_2
REMARK    2  A    between atoms: C_2  and  C_3
REMARK    3  A    between atoms: C_3  and  C_4
REMARK    4  A    between atoms: C_4  and  C_5
REMARK    5  A    between atoms: C_5  and  C_6
REMARK    6  A    between atoms: C_6  and  C_7
REMARK    7  A    between atoms: C_7  and  C_8
REMARK    8  A    between atoms: C_8  and  C_9
REMARK    9  A    between atoms: C_17  and  N_46
REMARK   10  A    between atoms: C_20  and  C_23
REMARK   11  A    between atoms: C_21  and  O_22
REMARK   12  A    between atoms: C_26  and  O_27
REMARK   13  A    between atoms: O_27  and  C_28
REMARK   14  A    between atoms: C_28  and  C_29
REMARK   15  A    between atoms: C_32  and  C_33
REMARK   16  A    between atoms: C_33  and  N_34
REMARK   17  A    between atoms: N_46  and  C_47
REMARK   18  A    between atoms: N_46  and  C_48
REMARK                            x       y       z     vdW  Elec       q    Type
REMARK                         _______ _______ _______ _____ _____    ______ ____
ROOT
ATOM      1  C   UNL     1      -6.636  -1.442 127.475  0.00  0.00    +0.000 C 
ATOM      2  C   UNL     1      -5.341  -2.105 127.985  0.00  0.00    +0.000 C 
ATOM      3  S   UNL     1      -5.280  -2.976 129.474  0.00  0.00    +0.000 S 
ATOM      4  O   UNL     1      -3.959  -3.561 129.518  0.00  0.00    +0.000 OA
ATOM      5  O   UNL     1      -6.380  -3.928 129.600  0.00  0.00    +0.000 OA
ATOM      6  C   UNL     1      -5.332  -1.556 130.583  0.00  0.00    +0.000 A 
ATOM      7  C   UNL     1      -4.166  -1.579 131.326  0.00  0.00    +0.000 A 
ATOM      8  C   UNL     1      -3.791  -0.526 132.123  0.00  0.00    +0.000 A 
ATOM      9  C   UNL     1      -4.578   0.602 132.290  0.00  0.00    +0.000 A 
ATOM     10  C   UNL     1      -5.731   0.649 131.503  0.00  0.00    +0.000 A 
ATOM     11  C   UNL     1      -6.105  -0.346 130.577  0.00  0.00    +0.000 A 
ATOM     12  C   UNL     1      -7.315   0.023 129.691  0.00  0.00    +0.000 C 
ATOM     13  C   UNL     1      -6.969  -0.036 128.152  0.00  0.00    +0.000 C 
ENDROOT
BRANCH  12  14
ATOM     14  C   UNL     1      -8.361   1.133 130.042  0.00  0.00    +0.000 A 
ATOM     15  C   UNL     1      -8.576   2.203 129.186  0.00  0.00    +0.000 A 
ATOM     16  C   UNL     1      -9.202   3.352 129.668  0.00  0.00    +0.000 A 
ATOM     17  C   UNL     1      -9.823   3.370 130.918  0.00  0.00    +0.000 A 
ATOM     18  C   UNL     1      -9.838   2.217 131.693  0.00  0.00    +0.000 A 
ATOM     19  C   UNL     1      -9.065   1.130 131.285  0.00  0.00    +0.000 A 
BRANCH  17  20
ATOM     20  O   UNL     1     -10.373   4.567 131.274  0.00  0.00    +0.000 OA
BRANCH  20  21
ATOM     21  C   UNL     1      -9.948   5.054 132.534  0.00  0.00    +0.000 C 
BRANCH  21  22
ATOM     22  C   UNL     1      -8.513   5.424 132.402  0.00  0.00    +0.000 A 
ATOM     23  C   UNL     1      -7.485   4.799 133.127  0.00  0.00    +0.000 A 
ATOM     24  C   UNL     1      -6.173   5.266 133.056  0.00  0.00    +0.000 A 
ATOM     25  C   UNL     1      -5.868   6.284 132.161  0.00  0.00    +0.000 A 
ATOM     26  C   UNL     1      -6.912   6.773 131.349  0.00  0.00    +0.000 A 
ATOM     27  C   UNL     1      -8.221   6.434 131.518  0.00  0.00    +0.000 A 
BRANCH  25  28
ATOM     28  C   UNL     1      -4.468   6.852 132.126  0.00  0.00    +0.000 C 
BRANCH  28  29
ATOM     29  N   UNL     1      -3.742   6.590 130.832  0.00  0.00    +0.000 N 
ATOM     30  C   UNL     1      -4.056   7.712 129.777  0.00  0.00    +0.000 C 
ATOM     31  C   UNL     1      -3.435   7.321 128.432  0.00  0.00    +0.000 C 
ATOM     32  N   UNL     1      -2.577   6.110 128.515  0.00  0.00    +0.000 NA
ATOM     33  C   UNL     1      -3.417   4.956 128.940  0.00  0.00    +0.000 C 
ATOM     34  C   UNL     1      -4.024   5.133 130.338  0.00  0.00    +0.000 C 
ATOM     35  C   UNL     1      -1.573   6.353 129.593  0.00  0.00    +0.000 C 
ATOM     36  C   UNL     1      -2.203   6.647 130.989  0.00  0.00    +0.000 C 
ENDBRANCH  28  29
ENDBRANCH  25  28
ENDBRANCH  21  22
ENDBRANCH  20  21
ENDBRANCH  17  20
ENDBRANCH  12  14
BRANCH   9  37
ATOM     37  N   UNL     1      -4.217   1.616 133.149  0.00  0.00    +0.000 N 
ATOM     38  C   UNL     1      -5.001   1.921 134.344  0.00  0.00    +0.000 C 
ATOM     39  C   UNL     1      -3.086   2.503 132.907  0.00  0.00    +0.000 C 
ENDBRANCH   9  37
BRANCH  13  40
ATOM     40  O   UNL     1      -5.872   0.867 127.905  0.00  0.00    +0.000 OA
ATOM     41  H   UNL     1      -5.095   0.564 128.406  0.00  0.00    +0.000 HD
ENDBRANCH  13  40
BRANCH   1  42
ATOM     42  C   UNL     1      -6.359  -1.221 125.916  0.00  0.00    +0.000 C 
BRANCH  42  43
ATOM     43  C   UNL     1      -5.308  -2.195 125.347  0.00  0.00    +0.000 C 
BRANCH  43  45
ATOM     44  C   UNL     1      -4.589  -3.842 123.670  0.00  0.00    +0.000 C 
ATOM     45  C   UNL     1      -5.571  -2.711 123.957  0.00  0.00    +0.000 C 
ENDBRANCH  43  45
ENDBRANCH  42  43
ENDBRANCH   1  42
BRANCH   1  46
ATOM     46  C   UNL     1      -7.873  -2.390 127.618  0.00  0.00    +0.000 C 
BRANCH  46  47
ATOM     47  C   UNL     1      -8.750  -2.418 126.382  0.00  0.00    +0.000 C 
BRANCH  47  48
ATOM     48  C   UNL     1      -8.914  -3.606 125.501  0.00  0.00    +0.000 C 
ATOM     49  C   UNL     1      -9.255  -3.106 124.088  0.00  0.00    +0.000 C 
ENDBRANCH  47  48
ENDBRANCH  46  47
ENDBRANCH   1  46
TORSDOF 14
ENDMDL
MODEL 4
REMARK VINA RESULT:      -8.4      1.984      4.932
REMARK  Name = Maralixibat
REMARK  18 active torsions:
REMARK  status: ('A' for Active; 'I' for Inactive)
REMARK    1  A    between atoms: C_1  and  C_2
REMARK    2  A    between atoms: C_2  and  C_3
REMARK    3  A    between atoms: C_3  and  C_4
REMARK    4  A    between atoms: C_4  and  C_5
REMARK    5  A    between atoms: C_5  and  C_6
REMARK    6  A    between atoms: C_6  and  C_7
REMARK    7  A    between atoms: C_7  and  C_8
REMARK    8  A    between atoms: C_8  and  C_9
REMARK    9  A    between atoms: C_17  and  N_46
REMARK   10  A    between atoms: C_20  and  C_23
REMARK   11  A    between atoms: C_21  and  O_22
REMARK   12  A    between atoms: C_26  and  O_27
REMARK   13  A    between atoms: O_27  and  C_28
REMARK   14  A    between atoms: C_28  and  C_29
REMARK   15  A    between atoms: C_32  and  C_33
REMARK   16  A    between atoms: C_33  and  N_34
REMARK   17  A    between atoms: N_46  and  C_47
REMARK   18  A    between atoms: N_46  and  C_48
REMARK                            x       y       z     vdW  Elec       q    Type
REMARK                         _______ _______ _______ _____ _____    ______ ____
ROOT
ATOM      1  C   UNL     1      -6.551  -0.207 128.634  0.00  0.00    +0.000 C 
ATOM      2  C   UNL     1      -7.357  -1.082 127.653  0.00  0.00    +0.000 C 
ATOM      3  S   UNL     1      -6.631  -1.814 126.268  0.00  0.00    +0.000 S 
ATOM      4  O   UNL     1      -7.659  -2.659 125.702  0.00  0.00    +0.000 OA
ATOM      5  O   UNL     1      -5.384  -2.498 126.597  0.00  0.00    +0.000 OA
ATOM      6  C   UNL     1      -6.476  -0.325 125.264  0.00  0.00    +0.000 A 
ATOM      7  C   UNL     1      -7.222  -0.530 124.117  0.00  0.00    +0.000 A 
ATOM      8  C   UNL     1      -7.486   0.486 123.232  0.00  0.00    +0.000 A 
ATOM      9  C   UNL     1      -6.976   1.764 123.387  0.00  0.00    +0.000 A 
ATOM     10  C   UNL     1      -6.265   1.986 124.569  0.00  0.00    +0.000 A 
ATOM     11  C   UNL     1      -6.066   1.016 125.572  0.00  0.00    +0.000 A 
ATOM     12  C   UNL     1      -5.417   1.554 126.866  0.00  0.00    +0.000 C 
ATOM     13  C   UNL     1      -6.312   1.291 128.139  0.00  0.00    +0.000 C 
ENDROOT
BRANCH  12  14
ATOM     14  C   UNL     1      -4.600   2.887 126.956  0.00  0.00    +0.000 A 
ATOM     15  C   UNL     1      -3.218   2.867 127.071  0.00  0.00    +0.000 A 
ATOM     16  C   UNL     1      -2.551   4.004 127.528  0.00  0.00    +0.000 A 
ATOM     17  C   UNL     1      -3.208   5.229 127.652  0.00  0.00    +0.000 A 
ATOM     18  C   UNL     1      -4.547   5.329 127.297  0.00  0.00    +0.000 A 
ATOM     19  C   UNL     1      -5.249   4.158 127.008  0.00  0.00    +0.000 A 
BRANCH  17  20
ATOM     20  O   UNL     1      -2.442   6.249 128.135  0.00  0.00    +0.000 OA
BRANCH  20  21
ATOM     21  C   UNL     1      -2.049   6.097 129.487  0.00  0.00    +0.000 C 
BRANCH  21  22
ATOM     22  C   UNL     1      -3.293   5.973 130.295  0.00  0.00    +0.000 A 
ATOM     23  C   UNL     1      -3.667   4.793 130.959  0.00  0.00    +0.000 A 
ATOM     24  C   UNL     1      -4.901   4.694 131.601  0.00  0.00    +0.000 A 
ATOM     25  C   UNL     1      -5.710   5.821 131.683  0.00  0.00    +0.000 A 
ATOM     26  C   UNL     1      -5.217   7.020 131.127  0.00  0.00    +0.000 A 
ATOM     27  C   UNL     1      -4.089   7.090 130.367  0.00  0.00    +0.000 A 
BRANCH  25  28
ATOM     28  C   UNL     1      -7.082   5.710 132.308  0.00  0.00    +0.000 C 
BRANCH  28  29
ATOM     29  N   UNL     1      -8.193   5.566 131.301  0.00  0.00    +0.000 N 
ATOM     30  C   UNL     1      -7.702   4.776 130.034  0.00  0.00    +0.000 C 
ATOM     31  C   UNL     1      -8.807   4.796 128.972  0.00  0.00    +0.000 C 
ATOM     32  N   UNL     1     -10.079   5.387 129.466  0.00  0.00    +0.000 NA
ATOM     33  C   UNL     1      -9.834   6.806 129.843  0.00  0.00    +0.000 C 
ATOM     34  C   UNL     1      -8.830   6.961 130.993  0.00  0.00    +0.000 C 
ATOM     35  C   UNL     1     -10.454   4.652 130.709  0.00  0.00    +0.000 C 
ATOM     36  C   UNL     1      -9.374   4.718 131.833  0.00  0.00    +0.000 C 
ENDBRANCH  28  29
ENDBRANCH  25  28
ENDBRANCH  21  22
ENDBRANCH  20  21
ENDBRANCH  17  20
ENDBRANCH  12  14
BRANCH   9  37
ATOM     37  N   UNL     1      -7.195   2.750 122.450  0.00  0.00    +0.000 N 
ATOM     38  C   UNL     1      -6.096   3.543 121.903  0.00  0.00    +0.000 C 
ATOM     39  C   UNL     1      -8.523   3.130 121.986  0.00  0.00    +0.000 C 
ENDBRANCH   9  37
BRANCH  13  40
ATOM     40  O   UNL     1      -7.593   1.917 127.922  0.00  0.00    +0.000 OA
ATOM     41  H   UNL     1      -8.090   1.399 127.265  0.00  0.00    +0.000 HD
ENDBRANCH  13  40
BRANCH   1  42
ATOM     42  C   UNL     1      -7.457  -0.186 129.952  0.00  0.00    +0.000 C 
BRANCH  42  43
ATOM     43  C   UNL     1      -7.880  -1.594 130.415  0.00  0.00    +0.000 C 
BRANCH  43  45
ATOM     44  C   UNL     1      -6.531  -3.219 131.674  0.00  0.00    +0.000 C 
ATOM     45  C   UNL     1      -7.433  -1.995 131.797  0.00  0.00    +0.000 C 
ENDBRANCH  43  45
ENDBRANCH  42  43
ENDBRANCH   1  42
BRANCH   1  46
ATOM     46  C   UNL     1      -5.176  -0.856 129.002  0.00  0.00    +0.000 C 
BRANCH  46  47
ATOM     47  C   UNL     1      -4.321   0.022 129.894  0.00  0.00    +0.000 C 
BRANCH  47  48
ATOM     48  C   UNL     1      -4.069  -0.248 131.336  0.00  0.00    +0.000 C 
ATOM     49  C   UNL     1      -4.647   0.924 132.147  0.00  0.00    +0.000 C 
ENDBRANCH  47  48
ENDBRANCH  46  47
ENDBRANCH   1  46
TORSDOF 14
ENDMDL
MODEL 5
REMARK VINA RESULT:      -8.1      3.169      5.093
REMARK  Name = Maralixibat
REMARK  18 active torsions:
REMARK  status: ('A' for Active; 'I' for Inactive)
REMARK    1  A    between atoms: C_1  and  C_2
REMARK    2  A    between atoms: C_2  and  C_3
REMARK    3  A    between atoms: C_3  and  C_4
REMARK    4  A    between atoms: C_4  and  C_5
REMARK    5  A    between atoms: C_5  and  C_6
REMARK    6  A    between atoms: C_6  and  C_7
REMARK    7  A    between atoms: C_7  and  C_8
REMARK    8  A    between atoms: C_8  and  C_9
REMARK    9  A    between atoms: C_17  and  N_46
REMARK   10  A    between atoms: C_20  and  C_23
REMARK   11  A    between atoms: C_21  and  O_22
REMARK   12  A    between atoms: C_26  and  O_27
REMARK   13  A    between atoms: O_27  and  C_28
REMARK   14  A    between atoms: C_28  and  C_29
REMARK   15  A    between atoms: C_32  and  C_33
REMARK   16  A    between atoms: C_33  and  N_34
REMARK   17  A    between atoms: N_46  and  C_47
REMARK   18  A    between atoms: N_46  and  C_48
REMARK                            x       y       z     vdW  Elec       q    Type
REMARK                         _______ _______ _______ _____ _____    ______ ____
ROOT
ATOM      1  C   UNL     1      -6.891  -1.180 127.188  0.00  0.00    +0.000 C 
ATOM      2  C   UNL     1      -6.434  -2.339 128.097  0.00  0.00    +0.000 C 
ATOM      3  S   UNL     1      -7.468  -3.027 129.296  0.00  0.00    +0.000 S 
ATOM      4  O   UNL     1      -6.741  -4.162 129.818  0.00  0.00    +0.000 OA
ATOM      5  O   UNL     1      -8.794  -3.335 128.768  0.00  0.00    +0.000 OA
ATOM      6  C   UNL     1      -7.385  -1.677 130.487  0.00  0.00    +0.000 A 
ATOM      7  C   UNL     1      -6.848  -2.196 131.651  0.00  0.00    +0.000 A 
ATOM      8  C   UNL     1      -6.458  -1.390 132.693  0.00  0.00    +0.000 A 
ATOM      9  C   UNL     1      -6.631  -0.016 132.681  0.00  0.00    +0.000 A 
ATOM     10  C   UNL     1      -7.127   0.514 131.488  0.00  0.00    +0.000 A 
ATOM     11  C   UNL     1      -7.430  -0.249 130.342  0.00  0.00    +0.000 A 
ATOM     12  C   UNL     1      -7.779   0.584 129.089  0.00  0.00    +0.000 C 
ATOM     13  C   UNL     1      -6.828   0.260 127.871  0.00  0.00    +0.000 C 
ENDROOT
BRANCH  12  14
ATOM     14  C   UNL     1      -8.243   2.078 129.123  0.00  0.00    +0.000 A 
ATOM     15  C   UNL     1      -7.642   3.028 128.311  0.00  0.00    +0.000 A 
ATOM     16  C   UNL     1      -7.786   4.382 128.615  0.00  0.00    +0.000 A 
ATOM     17  C   UNL     1      -8.704   4.816 129.572  0.00  0.00    +0.000 A 
ATOM     18  C   UNL     1      -9.506   3.888 130.225  0.00  0.00    +0.000 A 
ATOM     19  C   UNL     1      -9.237   2.531 130.044  0.00  0.00    +0.000 A 
BRANCH  17  20
ATOM     20  O   UNL     1      -8.722   6.163 129.788  0.00  0.00    +0.000 OA
BRANCH  20  21
ATOM     21  C   UNL     1      -8.610   6.540 131.148  0.00  0.00    +0.000 C 
BRANCH  21  22
ATOM     22  C   UNL     1      -7.161   6.517 131.493  0.00  0.00    +0.000 A 
ATOM     23  C   UNL     1      -6.181   7.197 130.751  0.00  0.00    +0.000 A 
ATOM     24  C   UNL     1      -4.827   7.044 131.046  0.00  0.00    +0.000 A 
ATOM     25  C   UNL     1      -4.460   6.304 132.164  0.00  0.00    +0.000 A 
ATOM     26  C   UNL     1      -5.494   5.767 132.958  0.00  0.00    +0.000 A 
ATOM     27  C   UNL     1      -6.808   5.779 132.596  0.00  0.00    +0.000 A 
BRANCH  25  28
ATOM     28  C   UNL     1      -2.997   6.065 132.452  0.00  0.00    +0.000 C 
BRANCH  28  29
ATOM     29  N   UNL     1      -2.342   7.186 133.218  0.00  0.00    +0.000 N 
ATOM     30  C   UNL     1      -2.794   7.174 134.723  0.00  0.00    +0.000 C 
ATOM     31  C   UNL     1      -2.239   8.420 135.421  0.00  0.00    +0.000 C 
ATOM     32  N   UNL     1      -1.302   9.199 134.569  0.00  0.00    +0.000 NA
ATOM     33  C   UNL     1      -2.038   9.684 133.368  0.00  0.00    +0.000 C 
ATOM     34  C   UNL     1      -2.562   8.548 132.481  0.00  0.00    +0.000 C 
ATOM     35  C   UNL     1      -0.248   8.255 134.095  0.00  0.00    +0.000 C 
ATOM     36  C   UNL     1      -0.802   7.038 133.292  0.00  0.00    +0.000 C 
ENDBRANCH  28  29
ENDBRANCH  25  28
ENDBRANCH  21  22
ENDBRANCH  20  21
ENDBRANCH  17  20
ENDBRANCH  12  14
BRANCH   9  37
ATOM     37  N   UNL     1      -6.298   0.765 133.766  0.00  0.00    +0.000 N 
ATOM     38  C   UNL     1      -5.739   0.183 134.984  0.00  0.00    +0.000 C 
ATOM     39  C   UNL     1      -6.539   2.201 133.819  0.00  0.00    +0.000 C 
ENDBRANCH   9  37
BRANCH  13  40
ATOM     40  O   UNL     1      -5.470   0.517 128.283  0.00  0.00    +0.000 OA
ATOM     41  H   UNL     1      -5.399   0.373 129.243  0.00  0.00    +0.000 HD
ENDBRANCH  13  40
BRANCH   1  42
ATOM     42  C   UNL     1      -5.858  -1.228 125.968  0.00  0.00    +0.000 C 
BRANCH  42  43
ATOM     43  C   UNL     1      -5.661  -2.648 125.401  0.00  0.00    +0.000 C 
BRANCH  43  45
ATOM     44  C   UNL     1      -4.561  -4.073 123.726  0.00  0.00    +0.000 C 
ATOM     45  C   UNL     1      -5.243  -2.728 123.956  0.00  0.00    +0.000 C 
ENDBRANCH  43  45
ENDBRANCH  42  43
ENDBRANCH   1  42
BRANCH   1  46
ATOM     46  C   UNL     1      -8.327  -1.419 126.616  0.00  0.00    +0.000 C 
BRANCH  46  47
ATOM     47  C   UNL     1      -8.694  -0.456 125.504  0.00  0.00    +0.000 C 
BRANCH  47  48
ATOM     48  C   UNL     1      -9.608   0.707 125.673  0.00  0.00    +0.000 C 
ATOM     49  C   UNL     1      -8.933   1.936 125.042  0.00  0.00    +0.000 C 
ENDBRANCH  47  48
ENDBRANCH  46  47
ENDBRANCH   1  46
TORSDOF 14
ENDMDL
MODEL 6
REMARK VINA RESULT:      -8.0      4.837      8.391
REMARK  Name = Maralixibat
REMARK  18 active torsions:
REMARK  status: ('A' for Active; 'I' for Inactive)
REMARK    1  A    between atoms: C_1  and  C_2
REMARK    2  A    between atoms: C_2  and  C_3
REMARK    3  A    between atoms: C_3  and  C_4
REMARK    4  A    between atoms: C_4  and  C_5
REMARK    5  A    between atoms: C_5  and  C_6
REMARK    6  A    between atoms: C_6  and  C_7
REMARK    7  A    between atoms: C_7  and  C_8
REMARK    8  A    between atoms: C_8  and  C_9
REMARK    9  A    between atoms: C_17  and  N_46
REMARK   10  A    between atoms: C_20  and  C_23
REMARK   11  A    between atoms: C_21  and  O_22
REMARK   12  A    between atoms: C_26  and  O_27
REMARK   13  A    between atoms: O_27  and  C_28
REMARK   14  A    between atoms: C_28  and  C_29
REMARK   15  A    between atoms: C_32  and  C_33
REMARK   16  A    between atoms: C_33  and  N_34
REMARK   17  A    between atoms: N_46  and  C_47
REMARK   18  A    between atoms: N_46  and  C_48
REMARK                            x       y       z     vdW  Elec       q    Type
REMARK                         _______ _______ _______ _____ _____    ______ ____
ROOT
ATOM      1  C   UNL     1      -7.222  -2.447 126.110  0.00  0.00    +0.000 C 
ATOM      2  C   UNL     1      -8.033  -1.161 125.853  0.00  0.00    +0.000 C 
ATOM      3  S   UNL     1      -7.344   0.411 126.037  0.00  0.00    +0.000 S 
ATOM      4  O   UNL     1      -8.358   1.328 125.566  0.00  0.00    +0.000 OA
ATOM      5  O   UNL     1      -6.051   0.527 125.370  0.00  0.00    +0.000 OA
ATOM      6  C   UNL     1      -7.311   0.447 127.839  0.00  0.00    +0.000 A 
ATOM      7  C   UNL     1      -8.103   1.509 128.238  0.00  0.00    +0.000 A 
ATOM      8  C   UNL     1      -8.459   1.696 129.551  0.00  0.00    +0.000 A 
ATOM      9  C   UNL     1      -8.003   0.880 130.573  0.00  0.00    +0.000 A 
ATOM     10  C   UNL     1      -7.245  -0.221 130.167  0.00  0.00    +0.000 A 
ATOM     11  C   UNL     1      -6.950  -0.533 128.825  0.00  0.00    +0.000 A 
ATOM     12  C   UNL     1      -6.262  -1.901 128.619  0.00  0.00    +0.000 C 
ATOM     13  C   UNL     1      -7.079  -2.841 127.649  0.00  0.00    +0.000 C 
ENDROOT
BRANCH  12  14
ATOM     14  C   UNL     1      -5.506  -2.687 129.742  0.00  0.00    +0.000 A 
ATOM     15  C   UNL     1      -5.871  -3.984 130.070  0.00  0.00    +0.000 A 
ATOM     16  C   UNL     1      -5.467  -4.522 131.292  0.00  0.00    +0.000 A 
ATOM     17  C   UNL     1      -4.517  -3.880 132.088  0.00  0.00    +0.000 A 
ATOM     18  C   UNL     1      -3.946  -2.692 131.652  0.00  0.00    +0.000 A 
ATOM     19  C   UNL     1      -4.477  -2.073 130.520  0.00  0.00    +0.000 A 
BRANCH  17  20
ATOM     20  O   UNL     1      -4.235  -4.504 133.268  0.00  0.00    +0.000 OA
BRANCH  20  21
ATOM     21  C   UNL     1      -4.659  -3.798 134.420  0.00  0.00    +0.000 C 
BRANCH  21  22
ATOM     22  C   UNL     1      -6.013  -4.304 134.774  0.00  0.00    +0.000 A 
ATOM     23  C   UNL     1      -7.196  -3.594 134.509  0.00  0.00    +0.000 A 
ATOM     24  C   UNL     1      -8.427  -4.059 134.970  0.00  0.00    +0.000 A 
ATOM     25  C   UNL     1      -8.490  -5.300 135.591  0.00  0.00    +0.000 A 
ATOM     26  C   UNL     1      -7.292  -6.038 135.696  0.00  0.00    +0.000 A 
ATOM     27  C   UNL     1      -6.065  -5.530 135.391  0.00  0.00    +0.000 A 
BRANCH  25  28
ATOM     28  C   UNL     1      -9.802  -5.783 136.163  0.00  0.00    +0.000 C 
BRANCH  28  29
ATOM     29  N   UNL     1     -10.061  -5.302 137.568  0.00  0.00    +0.000 N 
ATOM     30  C   UNL     1      -9.047  -5.952 138.577  0.00  0.00    +0.000 C 
ATOM     31  C   UNL     1      -9.448  -5.568 140.006  0.00  0.00    +0.000 C 
ATOM     32  N   UNL     1     -10.550  -4.570 140.054  0.00  0.00    +0.000 NA
ATOM     33  C   UNL     1     -11.761  -5.164 139.424  0.00  0.00    +0.000 C 
ATOM     34  C   UNL     1     -11.567  -5.498 137.939  0.00  0.00    +0.000 C 
ATOM     35  C   UNL     1     -10.132  -3.410 139.214  0.00  0.00    +0.000 C 
ATOM     36  C   UNL     1      -9.824  -3.781 137.731  0.00  0.00    +0.000 C 
ENDBRANCH  28  29
ENDBRANCH  25  28
ENDBRANCH  21  22
ENDBRANCH  20  21
ENDBRANCH  17  20
ENDBRANCH  12  14
BRANCH   9  37
ATOM     37  N   UNL     1      -8.315   1.128 131.892  0.00  0.00    +0.000 N 
ATOM     38  C   UNL     1      -7.481   0.627 132.982  0.00  0.00    +0.000 C 
ATOM     39  C   UNL     1      -9.520   1.833 132.308  0.00  0.00    +0.000 C 
ENDBRANCH   9  37
BRANCH  13  40
ATOM     40  O   UNL     1      -8.398  -3.020 128.205  0.00  0.00    +0.000 OA
ATOM     41  H   UNL     1      -8.313  -3.276 129.140  0.00  0.00    +0.000 HD
ENDBRANCH  13  40
BRANCH   1  42
ATOM     42  C   UNL     1      -8.060  -3.579 125.353  0.00  0.00    +0.000 C 
BRANCH  42  43
ATOM     43  C   UNL     1      -9.369  -3.048 124.736  0.00  0.00    +0.000 C 
BRANCH  43  45
ATOM     44  C   UNL     1      -9.126  -1.807 122.628  0.00  0.00    +0.000 C 
ATOM     45  C   UNL     1      -9.483  -3.159 123.238  0.00  0.00    +0.000 C 
ENDBRANCH  43  45
ENDBRANCH  42  43
ENDBRANCH   1  42
BRANCH   1  46
ATOM     46  C   UNL     1      -5.801  -2.380 125.459  0.00  0.00    +0.000 C 
BRANCH  46  47
ATOM     47  C   UNL     1      -5.793  -2.782 123.998  0.00  0.00    +0.000 C 
BRANCH  47  48
ATOM     48  C   UNL     1      -4.599  -3.307 123.282  0.00  0.00    +0.000 C 
ATOM     49  C   UNL     1      -4.412  -4.779 123.686  0.00  0.00    +0.000 C 
ENDBRANCH  47  48
ENDBRANCH  46  47
ENDBRANCH   1  46
TORSDOF 14
ENDMDL
MODEL 7
REMARK VINA RESULT:      -8.0      2.949      6.088
REMARK  Name = Maralixibat
REMARK  18 active torsions:
REMARK  status: ('A' for Active; 'I' for Inactive)
REMARK    1  A    between atoms: C_1  and  C_2
REMARK    2  A    between atoms: C_2  and  C_3
REMARK    3  A    between atoms: C_3  and  C_4
REMARK    4  A    between atoms: C_4  and  C_5
REMARK    5  A    between atoms: C_5  and  C_6
REMARK    6  A    between atoms: C_6  and  C_7
REMARK    7  A    between atoms: C_7  and  C_8
REMARK    8  A    between atoms: C_8  and  C_9
REMARK    9  A    between atoms: C_17  and  N_46
REMARK   10  A    between atoms: C_20  and  C_23
REMARK   11  A    between atoms: C_21  and  O_22
REMARK   12  A    between atoms: C_26  and  O_27
REMARK   13  A    between atoms: O_27  and  C_28
REMARK   14  A    between atoms: C_28  and  C_29
REMARK   15  A    between atoms: C_32  and  C_33
REMARK   16  A    between atoms: C_33  and  N_34
REMARK   17  A    between atoms: N_46  and  C_47
REMARK   18  A    between atoms: N_46  and  C_48
REMARK                            x       y       z     vdW  Elec       q    Type
REMARK                         _______ _______ _______ _____ _____    ______ ____
ROOT
ATOM      1  C   UNL     1      -7.186  -2.519 125.954  0.00  0.00    +0.000 C 
ATOM      2  C   UNL     1      -7.904  -1.187 125.656  0.00  0.00    +0.000 C 
ATOM      3  S   UNL     1      -7.148   0.342 125.922  0.00  0.00    +0.000 S 
ATOM      4  O   UNL     1      -8.070   1.320 125.388  0.00  0.00    +0.000 OA
ATOM      5  O   UNL     1      -5.801   0.395 125.361  0.00  0.00    +0.000 OA
ATOM      6  C   UNL     1      -7.256   0.353 127.721  0.00  0.00    +0.000 A 
ATOM      7  C   UNL     1      -8.018   1.451 128.075  0.00  0.00    +0.000 A 
ATOM      8  C   UNL     1      -8.467   1.641 129.359  0.00  0.00    +0.000 A 
ATOM      9  C   UNL     1      -8.138   0.787 130.399  0.00  0.00    +0.000 A 
ATOM     10  C   UNL     1      -7.411  -0.348 130.035  0.00  0.00    +0.000 A 
ATOM     11  C   UNL     1      -7.028  -0.659 128.715  0.00  0.00    +0.000 A 
ATOM     12  C   UNL     1      -6.401  -2.059 128.540  0.00  0.00    +0.000 C 
ATOM     13  C   UNL     1      -7.188  -2.940 127.493  0.00  0.00    +0.000 C 
ENDROOT
BRANCH  12  14
ATOM     14  C   UNL     1      -5.780  -2.901 129.705  0.00  0.00    +0.000 A 
ATOM     15  C   UNL     1      -6.583  -3.441 130.698  0.00  0.00    +0.000 A 
ATOM     16  C   UNL     1      -6.008  -3.844 131.903  0.00  0.00    +0.000 A 
ATOM     17  C   UNL     1      -4.623  -3.935 132.050  0.00  0.00    +0.000 A 
ATOM     18  C   UNL     1      -3.797  -3.637 130.973  0.00  0.00    +0.000 A 
ATOM     19  C   UNL     1      -4.368  -3.071 129.833  0.00  0.00    +0.000 A 
BRANCH  17  20
ATOM     20  O   UNL     1      -4.197  -4.317 133.288  0.00  0.00    +0.000 OA
BRANCH  20  21
ATOM     21  C   UNL     1      -2.993  -3.701 133.709  0.00  0.00    +0.000 C 
BRANCH  21  22
ATOM     22  C   UNL     1      -3.293  -2.261 133.939  0.00  0.00    +0.000 A 
ATOM     23  C   UNL     1      -4.448  -1.809 134.599  0.00  0.00    +0.000 A 
ATOM     24  C   UNL     1      -4.739  -0.448 134.679  0.00  0.00    +0.000 A 
ATOM     25  C   UNL     1      -3.808   0.469 134.207  0.00  0.00    +0.000 A 
ATOM     26  C   UNL     1      -2.598  -0.037 133.690  0.00  0.00    +0.000 A 
ATOM     27  C   UNL     1      -2.370  -1.362 133.464  0.00  0.00    +0.000 A 
BRANCH  25  28
ATOM     28  C   UNL     1      -4.142   1.943 134.218  0.00  0.00    +0.000 C 
BRANCH  28  29
ATOM     29  N   UNL     1      -4.370   2.520 132.845  0.00  0.00    +0.000 N 
ATOM     30  C   UNL     1      -3.147   3.398 132.396  0.00  0.00    +0.000 C 
ATOM     31  C   UNL     1      -3.490   4.096 131.075  0.00  0.00    +0.000 C 
ATOM     32  N   UNL     1      -4.778   3.638 130.491  0.00  0.00    +0.000 NA
ATOM     33  C   UNL     1      -5.878   3.970 131.438  0.00  0.00    +0.000 C 
ATOM     34  C   UNL     1      -5.753   3.249 132.786  0.00  0.00    +0.000 C 
ATOM     35  C   UNL     1      -4.712   2.151 130.387  0.00  0.00    +0.000 C 
ATOM     36  C   UNL     1      -4.468   1.431 131.749  0.00  0.00    +0.000 C 
ENDBRANCH  28  29
ENDBRANCH  25  28
ENDBRANCH  21  22
ENDBRANCH  20  21
ENDBRANCH  17  20
ENDBRANCH  12  14
BRANCH   9  37
ATOM     37  N   UNL     1      -8.541   1.035 131.693  0.00  0.00    +0.000 N 
ATOM     38  C   UNL     1      -7.901   0.379 132.831  0.00  0.00    +0.000 C 
ATOM     39  C   UNL     1      -9.666   1.899 132.028  0.00  0.00    +0.000 C 
ENDBRANCH   9  37
BRANCH  13  40
ATOM     40  O   UNL     1      -8.554  -3.054 127.940  0.00  0.00    +0.000 OA
ATOM     41  H   UNL     1      -8.558  -3.325 128.874  0.00  0.00    +0.000 HD
ENDBRANCH  13  40
BRANCH   1  42
ATOM     42  C   UNL     1      -8.022  -3.593 125.115  0.00  0.00    +0.000 C 
BRANCH  42  43
ATOM     43  C   UNL     1      -9.356  -3.036 124.581  0.00  0.00    +0.000 C 
BRANCH  43  45
ATOM     44  C   UNL     1      -8.760  -2.139 122.372  0.00  0.00    +0.000 C 
ATOM     45  C   UNL     1      -9.590  -3.190 123.101  0.00  0.00    +0.000 C 
ENDBRANCH  43  45
ENDBRANCH  42  43
ENDBRANCH   1  42
BRANCH   1  46
ATOM     46  C   UNL     1      -5.716  -2.522 125.418  0.00  0.00    +0.000 C 
BRANCH  46  47
ATOM     47  C   UNL     1      -5.625  -2.769 123.926  0.00  0.00    +0.000 C 
BRANCH  47  48
ATOM     48  C   UNL     1      -4.446  -3.377 123.250  0.00  0.00    +0.000 C 
ATOM     49  C   UNL     1      -4.398  -4.866 123.629  0.00  0.00    +0.000 C 
ENDBRANCH  47  48
ENDBRANCH  46  47
ENDBRANCH   1  46
TORSDOF 14
ENDMDL
MODEL 8
REMARK VINA RESULT:      -7.9      2.664      5.463
REMARK  Name = Maralixibat
REMARK  18 active torsions:
REMARK  status: ('A' for Active; 'I' for Inactive)
REMARK    1  A    between atoms: C_1  and  C_2
REMARK    2  A    between atoms: C_2  and  C_3
REMARK    3  A    between atoms: C_3  and  C_4
REMARK    4  A    between atoms: C_4  and  C_5
REMARK    5  A    between atoms: C_5  and  C_6
REMARK    6  A    between atoms: C_6  and  C_7
REMARK    7  A    between atoms: C_7  and  C_8
REMARK    8  A    between atoms: C_8  and  C_9
REMARK    9  A    between atoms: C_17  and  N_46
REMARK   10  A    between atoms: C_20  and  C_23
REMARK   11  A    between atoms: C_21  and  O_22
REMARK   12  A    between atoms: C_26  and  O_27
REMARK   13  A    between atoms: O_27  and  C_28
REMARK   14  A    between atoms: C_28  and  C_29
REMARK   15  A    between atoms: C_32  and  C_33
REMARK   16  A    between atoms: C_33  and  N_34
REMARK   17  A    between atoms: N_46  and  C_47
REMARK   18  A    between atoms: N_46  and  C_48
REMARK                            x       y       z     vdW  Elec       q    Type
REMARK                         _______ _______ _______ _____ _____    ______ ____
ROOT
ATOM      1  C   UNL     1      -6.601  -0.270 128.506  0.00  0.00    +0.000 C 
ATOM      2  C   UNL     1      -7.474  -1.076 127.524  0.00  0.00    +0.000 C 
ATOM      3  S   UNL     1      -6.825  -1.794 126.095  0.00  0.00    +0.000 S 
ATOM      4  O   UNL     1      -7.907  -2.574 125.536  0.00  0.00    +0.000 OA
ATOM      5  O   UNL     1      -5.601  -2.543 126.363  0.00  0.00    +0.000 OA
ATOM      6  C   UNL     1      -6.633  -0.282 125.133  0.00  0.00    +0.000 A 
ATOM      7  C   UNL     1      -7.421  -0.416 124.005  0.00  0.00    +0.000 A 
ATOM      8  C   UNL     1      -7.665   0.639 123.160  0.00  0.00    +0.000 A 
ATOM      9  C   UNL     1      -7.094   1.887 123.338  0.00  0.00    +0.000 A 
ATOM     10  C   UNL     1      -6.338   2.038 124.503  0.00  0.00    +0.000 A 
ATOM     11  C   UNL     1      -6.153   1.029 125.469  0.00  0.00    +0.000 A 
ATOM     12  C   UNL     1      -5.441   1.495 126.758  0.00  0.00    +0.000 C 
ATOM     13  C   UNL     1      -6.309   1.231 128.050  0.00  0.00    +0.000 C 
ENDROOT
BRANCH  12  14
ATOM     14  C   UNL     1      -4.562   2.787 126.864  0.00  0.00    +0.000 A 
ATOM     15  C   UNL     1      -3.185   2.700 127.002  0.00  0.00    +0.000 A 
ATOM     16  C   UNL     1      -2.472   3.803 127.472  0.00  0.00    +0.000 A 
ATOM     17  C   UNL     1      -3.070   5.059 127.585  0.00  0.00    +0.000 A 
ATOM     18  C   UNL     1      -4.396   5.224 127.207  0.00  0.00    +0.000 A 
ATOM     19  C   UNL     1      -5.150   4.088 126.905  0.00  0.00    +0.000 A 
BRANCH  17  20
ATOM     20  O   UNL     1      -2.264   6.041 128.082  0.00  0.00    +0.000 OA
BRANCH  20  21
ATOM     21  C   UNL     1      -2.957   7.176 128.569  0.00  0.00    +0.000 C 
BRANCH  21  22
ATOM     22  C   UNL     1      -3.417   6.853 129.948  0.00  0.00    +0.000 A 
ATOM     23  C   UNL     1      -2.613   6.199 130.896  0.00  0.00    +0.000 A 
ATOM     24  C   UNL     1      -3.134   5.812 132.130  0.00  0.00    +0.000 A 
ATOM     25  C   UNL     1      -4.428   6.191 132.464  0.00  0.00    +0.000 A 
ATOM     26  C   UNL     1      -5.139   6.976 131.532  0.00  0.00    +0.000 A 
ATOM     27  C   UNL     1      -4.700   7.226 130.267  0.00  0.00    +0.000 A 
BRANCH  25  28
ATOM     28  C   UNL     1      -5.033   5.715 133.764  0.00  0.00    +0.000 C 
BRANCH  28  29
ATOM     29  N   UNL     1      -5.845   4.454 133.626  0.00  0.00    +0.000 N 
ATOM     30  C   UNL     1      -5.379   3.372 134.666  0.00  0.00    +0.000 C 
ATOM     31  C   UNL     1      -6.113   2.057 134.383  0.00  0.00    +0.000 C 
ATOM     32  N   UNL     1      -7.170   2.190 133.345  0.00  0.00    +0.000 NA
ATOM     33  C   UNL     1      -6.532   2.599 132.063  0.00  0.00    +0.000 C 
ATOM     34  C   UNL     1      -5.848   3.970 132.139  0.00  0.00    +0.000 C 
ATOM     35  C   UNL     1      -8.070   3.301 133.771  0.00  0.00    +0.000 C 
ATOM     36  C   UNL     1      -7.342   4.668 133.959  0.00  0.00    +0.000 C 
ENDBRANCH  28  29
ENDBRANCH  25  28
ENDBRANCH  21  22
ENDBRANCH  20  21
ENDBRANCH  17  20
ENDBRANCH  12  14
BRANCH   9  37
ATOM     37  N   UNL     1      -7.296   2.911 122.439  0.00  0.00    +0.000 N 
ATOM     38  C   UNL     1      -8.615   3.184 121.875  0.00  0.00    +0.000 C 
ATOM     39  C   UNL     1      -6.218   3.748 121.926  0.00  0.00    +0.000 C 
ENDBRANCH   9  37
BRANCH  13  40
ATOM     40  O   UNL     1      -7.566   1.920 127.893  0.00  0.00    +0.000 OA
ATOM     41  H   UNL     1      -7.494   2.803 128.297  0.00  0.00    +0.000 HD
ENDBRANCH  13  40
BRANCH   1  42
ATOM     42  C   UNL     1      -7.465  -0.251 129.851  0.00  0.00    +0.000 C 
BRANCH  42  43
ATOM     43  C   UNL     1      -7.926  -1.655 130.291  0.00  0.00    +0.000 C 
BRANCH  43  45
ATOM     44  C   UNL     1      -6.637  -3.380 131.477  0.00  0.00    +0.000 C 
ATOM     45  C   UNL     1      -7.458  -2.106 131.650  0.00  0.00    +0.000 C 
ENDBRANCH  43  45
ENDBRANCH  42  43
ENDBRANCH   1  42
BRANCH   1  46
ATOM     46  C   UNL     1      -5.246  -0.991 128.810  0.00  0.00    +0.000 C 
BRANCH  46  47
ATOM     47  C   UNL     1      -4.432  -0.302 129.886  0.00  0.00    +0.000 C 
BRANCH  47  48
ATOM     48  C   UNL     1      -3.762  -1.012 131.010  0.00  0.00    +0.000 C 
ATOM     49  C   UNL     1      -4.206  -0.348 132.324  0.00  0.00    +0.000 C 
ENDBRANCH  47  48
ENDBRANCH  46  47
ENDBRANCH   1  46
TORSDOF 14
ENDMDL
MODEL 9
REMARK VINA RESULT:      -7.9      2.611      8.678
REMARK  Name = Maralixibat
REMARK  18 active torsions:
REMARK  status: ('A' for Active; 'I' for Inactive)
REMARK    1  A    between atoms: C_1  and  C_2
REMARK    2  A    between atoms: C_2  and  C_3
REMARK    3  A    between atoms: C_3  and  C_4
REMARK    4  A    between atoms: C_4  and  C_5
REMARK    5  A    between atoms: C_5  and  C_6
REMARK    6  A    between atoms: C_6  and  C_7
REMARK    7  A    between atoms: C_7  and  C_8
REMARK    8  A    between atoms: C_8  and  C_9
REMARK    9  A    between atoms: C_17  and  N_46
REMARK   10  A    between atoms: C_20  and  C_23
REMARK   11  A    between atoms: C_21  and  O_22
REMARK   12  A    between atoms: C_26  and  O_27
REMARK   13  A    between atoms: O_27  and  C_28
REMARK   14  A    between atoms: C_28  and  C_29
REMARK   15  A    between atoms: C_32  and  C_33
REMARK   16  A    between atoms: C_33  and  N_34
REMARK   17  A    between atoms: N_46  and  C_47
REMARK   18  A    between atoms: N_46  and  C_48
REMARK                            x       y       z     vdW  Elec       q    Type
REMARK                         _______ _______ _______ _____ _____    ______ ____
ROOT
ATOM      1  C   UNL     1      -4.871   4.022 130.707  0.00  0.00    +0.000 C 
ATOM      2  C   UNL     1      -5.333   5.133 131.672  0.00  0.00    +0.000 C 
ATOM      3  S   UNL     1      -6.729   4.959 132.672  0.00  0.00    +0.000 S 
ATOM      4  O   UNL     1      -6.736   6.127 133.522  0.00  0.00    +0.000 OA
ATOM      5  O   UNL     1      -6.742   3.682 133.379  0.00  0.00    +0.000 OA
ATOM      6  C   UNL     1      -7.973   5.162 131.383  0.00  0.00    +0.000 A 
ATOM      7  C   UNL     1      -8.728   6.271 131.720  0.00  0.00    +0.000 A 
ATOM      8  C   UNL     1      -9.631   6.826 130.847  0.00  0.00    +0.000 A 
ATOM      9  C   UNL     1      -9.897   6.285 129.601  0.00  0.00    +0.000 A 
ATOM     10  C   UNL     1      -9.101   5.195 129.240  0.00  0.00    +0.000 A 
ATOM     11  C   UNL     1      -8.075   4.658 130.042  0.00  0.00    +0.000 A 
ATOM     12  C   UNL     1      -7.211   3.583 129.347  0.00  0.00    +0.000 C 
ATOM     13  C   UNL     1      -5.679   3.965 129.332  0.00  0.00    +0.000 C 
ENDROOT
BRANCH  12  14
ATOM     14  C   UNL     1      -7.654   2.777 128.080  0.00  0.00    +0.000 A 
ATOM     15  C   UNL     1      -8.665   1.831 128.156  0.00  0.00    +0.000 A 
ATOM     16  C   UNL     1      -8.786   0.873 127.150  0.00  0.00    +0.000 A 
ATOM     17  C   UNL     1      -8.069   0.979 125.958  0.00  0.00    +0.000 A 
ATOM     18  C   UNL     1      -7.231   2.069 125.755  0.00  0.00    +0.000 A 
ATOM     19  C   UNL     1      -6.982   2.926 126.828  0.00  0.00    +0.000 A 
BRANCH  17  20
ATOM     20  O   UNL     1      -8.263  -0.041 125.073  0.00  0.00    +0.000 OA
BRANCH  20  21
ATOM     21  C   UNL     1      -7.154  -0.910 124.929  0.00  0.00    +0.000 C 
BRANCH  21  22
ATOM     22  C   UNL     1      -7.015  -1.661 126.207  0.00  0.00    +0.000 A 
ATOM     23  C   UNL     1      -8.006  -2.522 126.708  0.00  0.00    +0.000 A 
ATOM     24  C   UNL     1      -7.875  -3.105 127.968  0.00  0.00    +0.000 A 
ATOM     25  C   UNL     1      -6.694  -2.923 128.676  0.00  0.00    +0.000 A 
ATOM     26  C   UNL     1      -5.673  -2.171 128.058  0.00  0.00    +0.000 A 
ATOM     27  C   UNL     1      -5.846  -1.471 126.902  0.00  0.00    +0.000 A 
BRANCH  25  28
ATOM     28  C   UNL     1      -6.567  -3.485 130.073  0.00  0.00    +0.000 C 
BRANCH  28  29
ATOM     29  N   UNL     1      -6.861  -2.479 131.156  0.00  0.00    +0.000 N 
ATOM     30  C   UNL     1      -7.947  -1.447 130.681  0.00  0.00    +0.000 C 
ATOM     31  C   UNL     1      -8.094  -0.352 131.743  0.00  0.00    +0.000 C 
ATOM     32  N   UNL     1      -7.326  -0.636 132.984  0.00  0.00    +0.000 NA
ATOM     33  C   UNL     1      -5.877  -0.701 132.647  0.00  0.00    +0.000 C 
ATOM     34  C   UNL     1      -5.533  -1.837 131.675  0.00  0.00    +0.000 C 
ATOM     35  C   UNL     1      -7.736  -1.991 133.457  0.00  0.00    +0.000 C 
ATOM     36  C   UNL     1      -7.489  -3.125 132.415  0.00  0.00    +0.000 C 
ENDBRANCH  28  29
ENDBRANCH  25  28
ENDBRANCH  21  22
ENDBRANCH  20  21
ENDBRANCH  17  20
ENDBRANCH  12  14
BRANCH   9  37
ATOM     37  N   UNL     1     -10.858   6.817 128.770  0.00  0.00    +0.000 N 
ATOM     38  C   UNL     1     -12.283   6.700 129.075  0.00  0.00    +0.000 C 
ATOM     39  C   UNL     1     -10.548   7.465 127.502  0.00  0.00    +0.000 C 
ENDBRANCH   9  37
BRANCH  13  40
ATOM     40  O   UNL     1      -5.540   5.233 128.660  0.00  0.00    +0.000 OA
ATOM     41  H   UNL     1      -6.026   5.198 127.817  0.00  0.00    +0.000 HD
ENDBRANCH  13  40
BRANCH   1  42
ATOM     42  C   UNL     1      -3.346   4.395 130.404  0.00  0.00    +0.000 C 
BRANCH  42  43
ATOM     43  C   UNL     1      -2.870   5.650 131.163  0.00  0.00    +0.000 C 
BRANCH  43  45
ATOM     44  C   UNL     1      -2.125   6.387 128.940  0.00  0.00    +0.000 C 
ATOM     45  C   UNL     1      -1.878   6.521 130.439  0.00  0.00    +0.000 C 
ENDBRANCH  43  45
ENDBRANCH  42  43
ENDBRANCH   1  42
BRANCH   1  46
ATOM     46  C   UNL     1      -4.900   2.612 131.383  0.00  0.00    +0.000 C 
BRANCH  46  47
ATOM     47  C   UNL     1      -3.528   2.121 131.799  0.00  0.00    +0.000 C 
BRANCH  47  48
ATOM     48  C   UNL     1      -3.132   1.842 133.207  0.00  0.00    +0.000 C 
ATOM     49  C   UNL     1      -3.361   3.123 134.027  0.00  0.00    +0.000 C 
ENDBRANCH  47  48
ENDBRANCH  46  47
ENDBRANCH   1  46
TORSDOF 14
ENDMDL
