MODEL 1
REMARK VINA RESULT:      -9.1      0.000      0.000
REMARK  Name = Maraviroc
REMARK  11 active torsions:
REMARK  status: ('A' for Active; 'I' for Inactive)
REMARK    1  A    between atoms: C_1  and  C_2
REMARK    2  A    between atoms: C_2  and  C_3
REMARK    3  A    between atoms: C_2  and  C_4
REMARK    4  A    between atoms: C_7  and  C_8
REMARK    5  A    between atoms: N_9  and  C_10
REMARK    6  A    between atoms: N_17  and  C_18
REMARK    7  A    between atoms: C_18  and  C_19
REMARK    8  A    between atoms: C_19  and  C_20
REMARK    9  A    between atoms: C_20  and  N_21
REMARK   10  A    between atoms: C_20  and  C_32
REMARK   11  A    between atoms: C_22  and  C_24
REMARK                            x       y       z     vdW  Elec       q    Type
REMARK                         _______ _______ _______ _____ _____    ______ ____
ROOT
ATOM      1  C   UNL     1      -7.049   4.182 129.188  0.00  0.00    +0.000 C 
ENDROOT
BRANCH   1   2
ATOM      2  C   UNL     1      -6.597   5.109 130.293  0.00  0.00    +0.000 C 
BRANCH   2  10
ATOM      3  C   UNL     1      -3.832   5.580 132.107  0.00  0.00    +0.000 C 
ATOM      4  C   UNL     1      -3.800   4.708 130.871  0.00  0.00    +0.000 C 
ATOM      5  C   UNL     1      -4.225   5.539 129.642  0.00  0.00    +0.000 C 
ATOM      6  C   UNL     1      -3.381   6.838 129.517  0.00  0.00    +0.000 C 
ATOM      7  C   UNL     1      -4.182   7.933 130.215  0.00  0.00    +0.000 C 
ATOM      8  C   UNL     1      -5.381   7.169 130.724  0.00  0.00    +0.000 C 
ATOM      9  C   UNL     1      -4.969   6.515 131.996  0.00  0.00    +0.000 C 
ATOM     10  N   UNL     1      -5.591   6.072 129.789  0.00  0.00    +0.000 NA
BRANCH   3  16
ATOM     11  C   UNL     1      -4.928   4.295 134.029  0.00  0.00    +0.000 A 
ATOM     12  N   UNL     1      -4.743   4.387 135.340  0.00  0.00    +0.000 NA
ATOM     13  N   UNL     1      -3.616   5.162 135.604  0.00  0.00    +0.000 NA
ATOM     14  C   UNL     1      -3.088   5.528 134.461  0.00  0.00    +0.000 A 
ATOM     15  C   UNL     1      -1.905   6.396 134.189  0.00  0.00    +0.000 C 
ATOM     16  N   UNL     1      -3.874   5.028 133.448  0.00  0.00    +0.000 N 
BRANCH  11  18
ATOM     17  C   UNL     1      -5.736   1.976 132.692  0.00  0.00    +0.000 C 
ATOM     18  C   UNL     1      -6.072   3.419 133.323  0.00  0.00    +0.000 C 
ATOM     19  C   UNL     1      -7.413   3.486 134.125  0.00  0.00    +0.000 C 
ENDBRANCH  11  18
ENDBRANCH   3  16
ENDBRANCH   2  10
ENDBRANCH   1   2
BRANCH   1  20
ATOM     20  C   UNL     1      -8.565   3.993 129.222  0.00  0.00    +0.000 C 
BRANCH  20  21
ATOM     21  C   UNL     1      -8.831   2.779 130.091  0.00  0.00    +0.000 A 
ATOM     22  C   UNL     1      -9.702   2.903 131.185  0.00  0.00    +0.000 A 
ATOM     23  C   UNL     1      -9.919   1.836 132.040  0.00  0.00    +0.000 A 
ATOM     24  C   UNL     1      -9.294   0.619 131.788  0.00  0.00    +0.000 A 
ATOM     25  C   UNL     1      -8.429   0.477 130.701  0.00  0.00    +0.000 A 
ATOM     26  C   UNL     1      -8.194   1.554 129.850  0.00  0.00    +0.000 A 
ENDBRANCH  20  21
BRANCH  20  27
ATOM     27  N   UNL     1      -9.159   5.234 129.728  0.00  0.00    +0.000 N 
ATOM     28  C   UNL     1      -9.570   6.209 128.847  0.00  0.00    +0.000 C 
ATOM     29  O   UNL     1      -9.526   6.059 127.651  0.00  0.00    +0.000 OA
ATOM     30  H   UNL     1      -8.931   5.510 130.672  0.00  0.00    +0.000 HD
BRANCH  28  31
ATOM     31  C   UNL     1     -10.180   7.461 129.483  0.00  0.00    +0.000 C 
ATOM     32  C   UNL     1     -10.536   8.447 128.355  0.00  0.00    +0.000 C 
ATOM     33  C   UNL     1     -11.697   7.957 127.477  0.00  0.00    +0.000 C 
ATOM     34  C   UNL     1     -12.906   7.616 128.321  0.00  0.00    +0.000 C 
ATOM     35  F   UNL     1     -13.886   7.107 127.536  0.00  0.00    +0.000 F 
ATOM     36  F   UNL     1     -13.398   8.764 128.858  0.00  0.00    +0.000 F 
ATOM     37  C   UNL     1     -12.589   6.639 129.446  0.00  0.00    +0.000 C 
ATOM     38  C   UNL     1     -11.432   7.141 130.316  0.00  0.00    +0.000 C 
ENDBRANCH  28  31
ENDBRANCH  20  27
ENDBRANCH   1  20
TORSDOF 8
ENDMDL
MODEL 2
REMARK VINA RESULT:      -8.7      4.322      6.842
REMARK  Name = Maraviroc
REMARK  11 active torsions:
REMARK  status: ('A' for Active; 'I' for Inactive)
REMARK    1  A    between atoms: C_1  and  C_2
REMARK    2  A    between atoms: C_2  and  C_3
REMARK    3  A    between atoms: C_2  and  C_4
REMARK    4  A    between atoms: C_7  and  C_8
REMARK    5  A    between atoms: N_9  and  C_10
REMARK    6  A    between atoms: N_17  and  C_18
REMARK    7  A    between atoms: C_18  and  C_19
REMARK    8  A    between atoms: C_19  and  C_20
REMARK    9  A    between atoms: C_20  and  N_21
REMARK   10  A    between atoms: C_20  and  C_32
REMARK   11  A    between atoms: C_22  and  C_24
REMARK                            x       y       z     vdW  Elec       q    Type
REMARK                         _______ _______ _______ _____ _____    ______ ____
ROOT
ATOM      1  C   UNL     1      -7.951   3.224 128.277  0.00  0.00    +0.000 C 
ENDROOT
BRANCH   1   2
ATOM      2  C   UNL     1      -8.136   2.091 127.294  0.00  0.00    +0.000 C 
BRANCH   2  10
ATOM      3  C   UNL     1      -7.619   0.034 124.714  0.00  0.00    +0.000 C 
ATOM      4  C   UNL     1      -9.023   0.314 125.203  0.00  0.00    +0.000 C 
ATOM      5  C   UNL     1      -9.310   1.827 125.106  0.00  0.00    +0.000 C 
ATOM      6  C   UNL     1      -9.021   2.369 123.679  0.00  0.00    +0.000 C 
ATOM      7  C   UNL     1      -7.591   2.901 123.709  0.00  0.00    +0.000 C 
ATOM      8  C   UNL     1      -7.165   2.576 125.120  0.00  0.00    +0.000 C 
ATOM      9  C   UNL     1      -6.743   1.149 125.127  0.00  0.00    +0.000 C 
ATOM     10  N   UNL     1      -8.374   2.614 125.930  0.00  0.00    +0.000 NA
BRANCH   3  16
ATOM     11  C   UNL     1      -6.418  -1.578 126.298  0.00  0.00    +0.000 A 
ATOM     12  N   UNL     1      -5.492  -2.497 126.050  0.00  0.00    +0.000 NA
ATOM     13  N   UNL     1      -5.382  -2.696 124.676  0.00  0.00    +0.000 NA
ATOM     14  C   UNL     1      -6.253  -1.921 124.074  0.00  0.00    +0.000 A 
ATOM     15  C   UNL     1      -6.508  -1.723 122.618  0.00  0.00    +0.000 C 
ATOM     16  N   UNL     1      -6.914  -1.193 125.037  0.00  0.00    +0.000 N 
BRANCH  11  18
ATOM     17  C   UNL     1      -7.829  -2.091 128.656  0.00  0.00    +0.000 C 
ATOM     18  C   UNL     1      -6.896  -1.129 127.763  0.00  0.00    +0.000 C 
ATOM     19  C   UNL     1      -5.739  -0.428 128.547  0.00  0.00    +0.000 C 
ENDBRANCH  11  18
ENDBRANCH   3  16
ENDBRANCH   2  10
ENDBRANCH   1   2
BRANCH   1  20
ATOM     20  C   UNL     1      -8.848   3.037 129.500  0.00  0.00    +0.000 C 
BRANCH  20  21
ATOM     21  C   UNL     1      -8.112   2.097 130.436  0.00  0.00    +0.000 A 
ATOM     22  C   UNL     1      -8.773   0.952 130.908  0.00  0.00    +0.000 A 
ATOM     23  C   UNL     1      -8.160   0.105 131.815  0.00  0.00    +0.000 A 
ATOM     24  C   UNL     1      -6.860   0.374 132.231  0.00  0.00    +0.000 A 
ATOM     25  C   UNL     1      -6.186   1.505 131.768  0.00  0.00    +0.000 A 
ATOM     26  C   UNL     1      -6.808   2.370 130.870  0.00  0.00    +0.000 A 
ENDBRANCH  20  21
BRANCH  20  27
ATOM     27  N   UNL     1      -9.112   4.362 130.068  0.00  0.00    +0.000 N 
ATOM     28  C   UNL     1     -10.408   4.765 130.298  0.00  0.00    +0.000 C 
ATOM     29  O   UNL     1     -11.353   4.038 130.115  0.00  0.00    +0.000 OA
ATOM     30  H   UNL     1      -8.407   5.074 129.942  0.00  0.00    +0.000 HD
BRANCH  28  31
ATOM     31  C   UNL     1     -10.569   6.165 130.896  0.00  0.00    +0.000 C 
ATOM     32  C   UNL     1      -9.777   7.154 130.022  0.00  0.00    +0.000 C 
ATOM     33  C   UNL     1     -10.394   7.346 128.628  0.00  0.00    +0.000 C 
ATOM     34  C   UNL     1     -11.853   7.739 128.732  0.00  0.00    +0.000 C 
ATOM     35  F   UNL     1     -12.396   7.820 127.494  0.00  0.00    +0.000 F 
ATOM     36  F   UNL     1     -11.930   8.985 129.271  0.00  0.00    +0.000 F 
ATOM     37  C   UNL     1     -12.667   6.778 129.589  0.00  0.00    +0.000 C 
ATOM     38  C   UNL     1     -12.042   6.598 130.977  0.00  0.00    +0.000 C 
ENDBRANCH  28  31
ENDBRANCH  20  27
ENDBRANCH   1  20
TORSDOF 8
ENDMDL
MODEL 3
REMARK VINA RESULT:      -8.7      5.885      7.954
REMARK  Name = Maraviroc
REMARK  11 active torsions:
REMARK  status: ('A' for Active; 'I' for Inactive)
REMARK    1  A    between atoms: C_1  and  C_2
REMARK    2  A    between atoms: C_2  and  C_3
REMARK    3  A    between atoms: C_2  and  C_4
REMARK    4  A    between atoms: C_7  and  C_8
REMARK    5  A    between atoms: N_9  and  C_10
REMARK    6  A    between atoms: N_17  and  C_18
REMARK    7  A    between atoms: C_18  and  C_19
REMARK    8  A    between atoms: C_19  and  C_20
REMARK    9  A    between atoms: C_20  and  N_21
REMARK   10  A    between atoms: C_20  and  C_32
REMARK   11  A    between atoms: C_22  and  C_24
REMARK                            x       y       z     vdW  Elec       q    Type
REMARK                         _______ _______ _______ _____ _____    ______ ____
ROOT
ATOM      1  C   UNL     1      -8.132   3.822 125.070  0.00  0.00    +0.000 C 
ENDROOT
BRANCH   1   2
ATOM      2  C   UNL     1      -7.403   3.165 126.219  0.00  0.00    +0.000 C 
BRANCH   2  10
ATOM      3  C   UNL     1      -5.181   3.467 128.695  0.00  0.00    +0.000 C 
ATOM      4  C   UNL     1      -5.600   2.099 128.202  0.00  0.00    +0.000 C 
ATOM      5  C   UNL     1      -5.265   1.968 126.701  0.00  0.00    +0.000 C 
ATOM      6  C   UNL     1      -3.775   2.309 126.419  0.00  0.00    +0.000 C 
ATOM      7  C   UNL     1      -3.744   3.785 126.036  0.00  0.00    +0.000 C 
ATOM      8  C   UNL     1      -5.194   4.178 126.179  0.00  0.00    +0.000 C 
ATOM      9  C   UNL     1      -5.428   4.452 127.623  0.00  0.00    +0.000 C 
ATOM     10  N   UNL     1      -5.970   2.980 125.893  0.00  0.00    +0.000 NA
BRANCH   3  16
ATOM     11  C   UNL     1      -6.998   4.549 130.136  0.00  0.00    +0.000 A 
ATOM     12  N   UNL     1      -6.896   5.353 131.187  0.00  0.00    +0.000 NA
ATOM     13  N   UNL     1      -5.577   5.380 131.633  0.00  0.00    +0.000 NA
ATOM     14  C   UNL     1      -4.867   4.575 130.878  0.00  0.00    +0.000 A 
ATOM     15  C   UNL     1      -3.405   4.280 130.908  0.00  0.00    +0.000 C 
ATOM     16  N   UNL     1      -5.700   4.043 129.921  0.00  0.00    +0.000 N 
BRANCH  11  18
ATOM     17  C   UNL     1      -9.057   2.743 129.572  0.00  0.00    +0.000 C 
ATOM     18  C   UNL     1      -8.370   4.188 129.386  0.00  0.00    +0.000 C 
ATOM     19  C   UNL     1      -9.365   5.394 129.414  0.00  0.00    +0.000 C 
ENDBRANCH  11  18
ENDBRANCH   3  16
ENDBRANCH   2  10
ENDBRANCH   1   2
BRANCH   1  20
ATOM     20  C   UNL     1      -8.587   2.782 124.047  0.00  0.00    +0.000 C 
BRANCH  20  21
ATOM     21  C   UNL     1      -7.883   3.119 122.746  0.00  0.00    +0.000 A 
ATOM     22  C   UNL     1      -6.480   3.108 122.709  0.00  0.00    +0.000 A 
ATOM     23  C   UNL     1      -5.800   3.473 121.561  0.00  0.00    +0.000 A 
ATOM     24  C   UNL     1      -6.519   3.818 120.421  0.00  0.00    +0.000 A 
ATOM     25  C   UNL     1      -7.915   3.829 120.438  0.00  0.00    +0.000 A 
ATOM     26  C   UNL     1      -8.602   3.480 121.598  0.00  0.00    +0.000 A 
ENDBRANCH  20  21
BRANCH  20  27
ATOM     27  N   UNL     1      -8.260   1.457 124.580  0.00  0.00    +0.000 N 
ATOM     28  C   UNL     1      -9.130   0.407 124.395  0.00  0.00    +0.000 C 
ATOM     29  O   UNL     1     -10.139   0.512 123.743  0.00  0.00    +0.000 OA
ATOM     30  H   UNL     1      -7.617   1.411 125.357  0.00  0.00    +0.000 HD
BRANCH  28  31
ATOM     31  C   UNL     1      -8.687  -0.933 124.989  0.00  0.00    +0.000 C 
ATOM     32  C   UNL     1      -9.003  -2.039 123.966  0.00  0.00    +0.000 C 
ATOM     33  C   UNL     1      -8.123  -1.959 122.709  0.00  0.00    +0.000 C 
ATOM     34  C   UNL     1      -6.655  -1.943 123.077  0.00  0.00    +0.000 C 
ATOM     35  F   UNL     1      -5.903  -1.787 121.961  0.00  0.00    +0.000 F 
ATOM     36  F   UNL     1      -6.325  -3.154 123.600  0.00  0.00    +0.000 F 
ATOM     37  C   UNL     1      -6.307  -0.857 124.087  0.00  0.00    +0.000 C 
ATOM     38  C   UNL     1      -7.190  -0.950 125.337  0.00  0.00    +0.000 C 
ENDBRANCH  28  31
ENDBRANCH  20  27
ENDBRANCH   1  20
TORSDOF 8
ENDMDL
MODEL 4
REMARK VINA RESULT:      -8.7      5.966      8.064
REMARK  Name = Maraviroc
REMARK  11 active torsions:
REMARK  status: ('A' for Active; 'I' for Inactive)
REMARK    1  A    between atoms: C_1  and  C_2
REMARK    2  A    between atoms: C_2  and  C_3
REMARK    3  A    between atoms: C_2  and  C_4
REMARK    4  A    between atoms: C_7  and  C_8
REMARK    5  A    between atoms: N_9  and  C_10
REMARK    6  A    between atoms: N_17  and  C_18
REMARK    7  A    between atoms: C_18  and  C_19
REMARK    8  A    between atoms: C_19  and  C_20
REMARK    9  A    between atoms: C_20  and  N_21
REMARK   10  A    between atoms: C_20  and  C_32
REMARK   11  A    between atoms: C_22  and  C_24
REMARK                            x       y       z     vdW  Elec       q    Type
REMARK                         _______ _______ _______ _____ _____    ______ ____
ROOT
ATOM      1  C   UNL     1      -6.785   4.023 124.979  0.00  0.00    +0.000 C 
ENDROOT
BRANCH   1   2
ATOM      2  C   UNL     1      -6.119   3.328 126.144  0.00  0.00    +0.000 C 
BRANCH   2  10
ATOM      3  C   UNL     1      -4.442   2.635 128.948  0.00  0.00    +0.000 C 
ATOM      4  C   UNL     1      -4.342   1.720 127.748  0.00  0.00    +0.000 C 
ATOM      5  C   UNL     1      -3.794   2.512 126.541  0.00  0.00    +0.000 C 
ATOM      6  C   UNL     1      -2.464   3.235 126.894  0.00  0.00    +0.000 C 
ATOM      7  C   UNL     1      -2.852   4.648 127.320  0.00  0.00    +0.000 C 
ATOM      8  C   UNL     1      -4.358   4.602 127.228  0.00  0.00    +0.000 C 
ATOM      9  C   UNL     1      -4.849   3.978 128.486  0.00  0.00    +0.000 C 
ATOM     10  N   UNL     1      -4.673   3.639 126.183  0.00  0.00    +0.000 NA
BRANCH   3  16
ATOM     11  C   UNL     1      -6.606   1.874 130.083  0.00  0.00    +0.000 A 
ATOM     12  N   UNL     1      -7.084   2.145 131.292  0.00  0.00    +0.000 NA
ATOM     13  N   UNL     1      -6.098   2.756 132.063  0.00  0.00    +0.000 NA
ATOM     14  C   UNL     1      -5.004   2.841 131.344  0.00  0.00    +0.000 A 
ATOM     15  C   UNL     1      -3.683   3.447 131.683  0.00  0.00    +0.000 C 
ATOM     16  N   UNL     1      -5.269   2.320 130.098  0.00  0.00    +0.000 N 
BRANCH  11  18
ATOM     17  C   UNL     1      -7.671  -0.489 129.035  0.00  0.00    +0.000 C 
ATOM     18  C   UNL     1      -7.409   1.097 128.932  0.00  0.00    +0.000 C 
ATOM     19  C   UNL     1      -8.634   1.931 128.434  0.00  0.00    +0.000 C 
ENDBRANCH  11  18
ENDBRANCH   3  16
ENDBRANCH   2  10
ENDBRANCH   1   2
BRANCH   1  20
ATOM     20  C   UNL     1      -7.128   3.027 123.872  0.00  0.00    +0.000 C 
BRANCH  20  21
ATOM     21  C   UNL     1      -6.528   3.578 122.593  0.00  0.00    +0.000 A 
ATOM     22  C   UNL     1      -5.280   4.218 122.648  0.00  0.00    +0.000 A 
ATOM     23  C   UNL     1      -4.729   4.793 121.516  0.00  0.00    +0.000 A 
ATOM     24  C   UNL     1      -5.406   4.700 120.304  0.00  0.00    +0.000 A 
ATOM     25  C   UNL     1      -6.645   4.063 120.230  0.00  0.00    +0.000 A 
ATOM     26  C   UNL     1      -7.211   3.500 121.372  0.00  0.00    +0.000 A 
ENDBRANCH  20  21
BRANCH  20  27
ATOM     27  N   UNL     1      -6.597   1.719 124.268  0.00  0.00    +0.000 N 
ATOM     28  C   UNL     1      -7.268   0.570 123.916  0.00  0.00    +0.000 C 
ATOM     29  O   UNL     1      -8.257   0.585 123.226  0.00  0.00    +0.000 OA
ATOM     30  H   UNL     1      -5.984   1.686 125.069  0.00  0.00    +0.000 HD
BRANCH  28  31
ATOM     31  C   UNL     1      -6.624  -0.740 124.377  0.00  0.00    +0.000 C 
ATOM     32  C   UNL     1      -7.510  -1.348 125.481  0.00  0.00    +0.000 C 
ATOM     33  C   UNL     1      -8.864  -1.845 124.954  0.00  0.00    +0.000 C 
ATOM     34  C   UNL     1      -8.676  -2.805 123.800  0.00  0.00    +0.000 C 
ATOM     35  F   UNL     1      -9.883  -3.163 123.299  0.00  0.00    +0.000 F 
ATOM     36  F   UNL     1      -8.100  -3.943 124.271  0.00  0.00    +0.000 F 
ATOM     37  C   UNL     1      -7.806  -2.234 122.687  0.00  0.00    +0.000 C 
ATOM     38  C   UNL     1      -6.457  -1.745 123.225  0.00  0.00    +0.000 C 
ENDBRANCH  28  31
ENDBRANCH  20  27
ENDBRANCH   1  20
TORSDOF 8
ENDMDL
MODEL 5
REMARK VINA RESULT:      -8.5      5.719      8.844
REMARK  Name = Maraviroc
REMARK  11 active torsions:
REMARK  status: ('A' for Active; 'I' for Inactive)
REMARK    1  A    between atoms: C_1  and  C_2
REMARK    2  A    between atoms: C_2  and  C_3
REMARK    3  A    between atoms: C_2  and  C_4
REMARK    4  A    between atoms: C_7  and  C_8
REMARK    5  A    between atoms: N_9  and  C_10
REMARK    6  A    between atoms: N_17  and  C_18
REMARK    7  A    between atoms: C_18  and  C_19
REMARK    8  A    between atoms: C_19  and  C_20
REMARK    9  A    between atoms: C_20  and  N_21
REMARK   10  A    between atoms: C_20  and  C_32
REMARK   11  A    between atoms: C_22  and  C_24
REMARK                            x       y       z     vdW  Elec       q    Type
REMARK                         _______ _______ _______ _____ _____    ______ ____
ROOT
ATOM      1  C   UNL     1      -8.303   2.003 128.755  0.00  0.00    +0.000 C 
ENDROOT
BRANCH   1   2
ATOM      2  C   UNL     1      -8.059   1.132 127.545  0.00  0.00    +0.000 C 
BRANCH   2  10
ATOM      3  C   UNL     1      -8.049  -0.697 124.750  0.00  0.00    +0.000 C 
ATOM      4  C   UNL     1      -9.267  -0.672 125.647  0.00  0.00    +0.000 C 
ATOM      5  C   UNL     1      -9.783   0.777 125.775  0.00  0.00    +0.000 C 
ATOM      6  C   UNL     1     -10.015   1.422 124.380  0.00  0.00    +0.000 C 
ATOM      7  C   UNL     1      -8.733   2.179 124.045  0.00  0.00    +0.000 C 
ATOM      8  C   UNL     1      -7.862   1.865 125.237  0.00  0.00    +0.000 C 
ATOM      9  C   UNL     1      -7.259   0.527 124.992  0.00  0.00    +0.000 C 
ATOM     10  N   UNL     1      -8.766   1.669 126.361  0.00  0.00    +0.000 NA
BRANCH   3  16
ATOM     11  C   UNL     1      -6.282  -2.219 125.804  0.00  0.00    +0.000 A 
ATOM     12  N   UNL     1      -5.313  -2.931 125.239  0.00  0.00    +0.000 NA
ATOM     13  N   UNL     1      -5.499  -2.968 123.859  0.00  0.00    +0.000 NA
ATOM     14  C   UNL     1      -6.593  -2.305 123.570  0.00  0.00    +0.000 A 
ATOM     15  C   UNL     1      -7.209  -2.010 122.244  0.00  0.00    +0.000 C 
ATOM     16  N   UNL     1      -7.112  -1.805 124.743  0.00  0.00    +0.000 N 
BRANCH  11  18
ATOM     17  C   UNL     1      -7.698  -2.691 128.168  0.00  0.00    +0.000 C 
ATOM     18  C   UNL     1      -6.466  -2.011 127.384  0.00  0.00    +0.000 C 
ATOM     19  C   UNL     1      -5.094  -2.089 128.130  0.00  0.00    +0.000 C 
ENDBRANCH  11  18
ENDBRANCH   3  16
ENDBRANCH   2  10
ENDBRANCH   1   2
BRANCH   1  20
ATOM     20  C   UNL     1      -6.995   2.608 129.264  0.00  0.00    +0.000 C 
BRANCH  20  21
ATOM     21  C   UNL     1      -6.262   1.501 129.997  0.00  0.00    +0.000 A 
ATOM     22  C   UNL     1      -6.996   0.620 130.807  0.00  0.00    +0.000 A 
ATOM     23  C   UNL     1      -6.357  -0.362 131.544  0.00  0.00    +0.000 A 
ATOM     24  C   UNL     1      -4.976  -0.499 131.448  0.00  0.00    +0.000 A 
ATOM     25  C   UNL     1      -4.231   0.365 130.644  0.00  0.00    +0.000 A 
ATOM     26  C   UNL     1      -4.870   1.367 129.916  0.00  0.00    +0.000 A 
ENDBRANCH  20  21
BRANCH  20  27
ATOM     27  N   UNL     1      -6.270   3.144 128.109  0.00  0.00    +0.000 N 
ATOM     28  C   UNL     1      -5.724   4.406 128.164  0.00  0.00    +0.000 C 
ATOM     29  O   UNL     1      -5.756   5.080 129.163  0.00  0.00    +0.000 OA
ATOM     30  H   UNL     1      -6.487   2.758 127.201  0.00  0.00    +0.000 HD
BRANCH  28  31
ATOM     31  C   UNL     1      -4.986   4.864 126.903  0.00  0.00    +0.000 C 
ATOM     32  C   UNL     1      -3.650   5.498 127.332  0.00  0.00    +0.000 C 
ATOM     33  C   UNL     1      -2.660   4.474 127.909  0.00  0.00    +0.000 C 
ATOM     34  C   UNL     1      -2.448   3.326 126.944  0.00  0.00    +0.000 C 
ATOM     35  F   UNL     1      -1.640   2.397 127.508  0.00  0.00    +0.000 F 
ATOM     36  F   UNL     1      -1.793   3.795 125.849  0.00  0.00    +0.000 F 
ATOM     37  C   UNL     1      -3.751   2.673 126.501  0.00  0.00    +0.000 C 
ATOM     38  C   UNL     1      -4.728   3.705 125.926  0.00  0.00    +0.000 C 
ENDBRANCH  28  31
ENDBRANCH  20  27
ENDBRANCH   1  20
TORSDOF 8
ENDMDL
MODEL 6
REMARK VINA RESULT:      -8.5      5.631      8.089
REMARK  Name = Maraviroc
REMARK  11 active torsions:
REMARK  status: ('A' for Active; 'I' for Inactive)
REMARK    1  A    between atoms: C_1  and  C_2
REMARK    2  A    between atoms: C_2  and  C_3
REMARK    3  A    between atoms: C_2  and  C_4
REMARK    4  A    between atoms: C_7  and  C_8
REMARK    5  A    between atoms: N_9  and  C_10
REMARK    6  A    between atoms: N_17  and  C_18
REMARK    7  A    between atoms: C_18  and  C_19
REMARK    8  A    between atoms: C_19  and  C_20
REMARK    9  A    between atoms: C_20  and  N_21
REMARK   10  A    between atoms: C_20  and  C_32
REMARK   11  A    between atoms: C_22  and  C_24
REMARK                            x       y       z     vdW  Elec       q    Type
REMARK                         _______ _______ _______ _____ _____    ______ ____
ROOT
ATOM      1  C   UNL     1      -7.907   2.234 126.953  0.00  0.00    +0.000 C 
ENDROOT
BRANCH   1   2
ATOM      2  C   UNL     1      -8.626   2.029 128.266  0.00  0.00    +0.000 C 
BRANCH   2  10
ATOM      3  C   UNL     1      -7.509   2.666 131.348  0.00  0.00    +0.000 C 
ATOM      4  C   UNL     1      -6.827   3.276 130.143  0.00  0.00    +0.000 C 
ATOM      5  C   UNL     1      -7.841   4.133 129.356  0.00  0.00    +0.000 C 
ATOM      6  C   UNL     1      -8.540   5.172 130.275  0.00  0.00    +0.000 C 
ATOM      7  C   UNL     1      -9.839   4.520 130.741  0.00  0.00    +0.000 C 
ATOM      8  C   UNL     1      -9.753   3.157 130.100  0.00  0.00    +0.000 C 
ATOM      9  C   UNL     1      -8.896   2.318 130.980  0.00  0.00    +0.000 C 
ATOM     10  N   UNL     1      -8.981   3.329 128.878  0.00  0.00    +0.000 NA
BRANCH   3  16
ATOM     11  C   UNL     1      -6.930   0.187 131.605  0.00  0.00    +0.000 A 
ATOM     12  N   UNL     1      -6.776  -0.551 132.698  0.00  0.00    +0.000 NA
ATOM     13  N   UNL     1      -6.723   0.273 133.820  0.00  0.00    +0.000 NA
ATOM     14  C   UNL     1      -6.817   1.520 133.423  0.00  0.00    +0.000 A 
ATOM     15  C   UNL     1      -6.856   2.777 134.225  0.00  0.00    +0.000 C 
ATOM     16  N   UNL     1      -6.963   1.523 132.054  0.00  0.00    +0.000 N 
BRANCH  11  18
ATOM     17  C   UNL     1      -5.629  -0.349 129.189  0.00  0.00    +0.000 C 
ATOM     18  C   UNL     1      -6.952  -0.386 130.106  0.00  0.00    +0.000 C 
ATOM     19  C   UNL     1      -7.771  -1.715 130.020  0.00  0.00    +0.000 C 
ENDBRANCH  11  18
ENDBRANCH   3  16
ENDBRANCH   2  10
ENDBRANCH   1   2
BRANCH   1  20
ATOM     20  C   UNL     1      -8.422   1.261 125.892  0.00  0.00    +0.000 C 
BRANCH  20  21
ATOM     21  C   UNL     1      -8.127   1.894 124.546  0.00  0.00    +0.000 A 
ATOM     22  C   UNL     1      -6.815   2.305 124.260  0.00  0.00    +0.000 A 
ATOM     23  C   UNL     1      -6.519   2.946 123.070  0.00  0.00    +0.000 A 
ATOM     24  C   UNL     1      -7.527   3.151 122.133  0.00  0.00    +0.000 A 
ATOM     25  C   UNL     1      -8.835   2.744 122.399  0.00  0.00    +0.000 A 
ATOM     26  C   UNL     1      -9.141   2.116 123.603  0.00  0.00    +0.000 A 
ENDBRANCH  20  21
BRANCH  20  27
ATOM     27  N   UNL     1      -7.758  -0.028 126.106  0.00  0.00    +0.000 N 
ATOM     28  C   UNL     1      -8.451  -1.200 125.906  0.00  0.00    +0.000 C 
ATOM     29  O   UNL     1      -9.583  -1.218 125.489  0.00  0.00    +0.000 OA
ATOM     30  H   UNL     1      -6.961  -0.045 126.725  0.00  0.00    +0.000 HD
BRANCH  28  31
ATOM     31  C   UNL     1      -7.660  -2.487 126.155  0.00  0.00    +0.000 C 
ATOM     32  C   UNL     1      -8.034  -3.500 125.057  0.00  0.00    +0.000 C 
ATOM     33  C   UNL     1      -7.520  -3.092 123.668  0.00  0.00    +0.000 C 
ATOM     34  C   UNL     1      -6.029  -2.828 123.700  0.00  0.00    +0.000 C 
ATOM     35  F   UNL     1      -5.615  -2.389 122.487  0.00  0.00    +0.000 F 
ATOM     36  F   UNL     1      -5.385  -4.004 123.926  0.00  0.00    +0.000 F 
ATOM     37  C   UNL     1      -5.625  -1.827 124.775  0.00  0.00    +0.000 C 
ATOM     38  C   UNL     1      -6.142  -2.247 126.155  0.00  0.00    +0.000 C 
ENDBRANCH  28  31
ENDBRANCH  20  27
ENDBRANCH   1  20
TORSDOF 8
ENDMDL
MODEL 7
REMARK VINA RESULT:      -8.4      5.335      8.968
REMARK  Name = Maraviroc
REMARK  11 active torsions:
REMARK  status: ('A' for Active; 'I' for Inactive)
REMARK    1  A    between atoms: C_1  and  C_2
REMARK    2  A    between atoms: C_2  and  C_3
REMARK    3  A    between atoms: C_2  and  C_4
REMARK    4  A    between atoms: C_7  and  C_8
REMARK    5  A    between atoms: N_9  and  C_10
REMARK    6  A    between atoms: N_17  and  C_18
REMARK    7  A    between atoms: C_18  and  C_19
REMARK    8  A    between atoms: C_19  and  C_20
REMARK    9  A    between atoms: C_20  and  N_21
REMARK   10  A    between atoms: C_20  and  C_32
REMARK   11  A    between atoms: C_22  and  C_24
REMARK                            x       y       z     vdW  Elec       q    Type
REMARK                         _______ _______ _______ _____ _____    ______ ____
ROOT
ATOM      1  C   UNL     1      -8.270   1.753 128.822  0.00  0.00    +0.000 C 
ENDROOT
BRANCH   1   2
ATOM      2  C   UNL     1      -7.322   1.150 127.812  0.00  0.00    +0.000 C 
BRANCH   2  10
ATOM      3  C   UNL     1      -7.115  -1.568 125.882  0.00  0.00    +0.000 C 
ATOM      4  C   UNL     1      -5.917  -0.661 126.062  0.00  0.00    +0.000 C 
ATOM      5  C   UNL     1      -5.547  -0.588 127.559  0.00  0.00    +0.000 C 
ATOM      6  C   UNL     1      -5.360  -2.005 128.168  0.00  0.00    +0.000 C 
ATOM      7  C   UNL     1      -6.705  -2.383 128.780  0.00  0.00    +0.000 C 
ATOM      8  C   UNL     1      -7.558  -1.188 128.430  0.00  0.00    +0.000 C 
ATOM      9  C   UNL     1      -8.024  -1.384 127.031  0.00  0.00    +0.000 C 
ATOM     10  N   UNL     1      -6.655  -0.048 128.369  0.00  0.00    +0.000 NA
BRANCH   3  16
ATOM     11  C   UNL     1      -8.571  -0.414 124.121  0.00  0.00    +0.000 A 
ATOM     12  N   UNL     1      -9.539  -0.900 123.355  0.00  0.00    +0.000 NA
ATOM     13  N   UNL     1      -9.546  -2.291 123.428  0.00  0.00    +0.000 NA
ATOM     14  C   UNL     1      -8.568  -2.669 124.216  0.00  0.00    +0.000 A 
ATOM     15  C   UNL     1      -8.173  -4.038 124.659  0.00  0.00    +0.000 C 
ATOM     16  N   UNL     1      -7.938  -1.540 124.687  0.00  0.00    +0.000 N 
BRANCH  11  18
ATOM     17  C   UNL     1      -7.063   1.788 123.288  0.00  0.00    +0.000 C 
ATOM     18  C   UNL     1      -8.187   1.139 124.242  0.00  0.00    +0.000 C 
ATOM     19  C   UNL     1      -9.461   2.023 124.446  0.00  0.00    +0.000 C 
ENDBRANCH  11  18
ENDBRANCH   3  16
ENDBRANCH   2  10
ENDBRANCH   1   2
BRANCH   1  20
ATOM     20  C   UNL     1      -7.677   3.020 129.438  0.00  0.00    +0.000 C 
BRANCH  20  21
ATOM     21  C   UNL     1      -8.322   3.181 130.801  0.00  0.00    +0.000 A 
ATOM     22  C   UNL     1      -8.849   4.432 131.161  0.00  0.00    +0.000 A 
ATOM     23  C   UNL     1      -9.386   4.637 132.420  0.00  0.00    +0.000 A 
ATOM     24  C   UNL     1      -9.437   3.579 133.322  0.00  0.00    +0.000 A 
ATOM     25  C   UNL     1      -8.923   2.328 132.979  0.00  0.00    +0.000 A 
ATOM     26  C   UNL     1      -8.364   2.124 131.720  0.00  0.00    +0.000 A 
ENDBRANCH  20  21
BRANCH  20  27
ATOM     27  N   UNL     1      -6.221   2.858 129.479  0.00  0.00    +0.000 N 
ATOM     28  C   UNL     1      -5.404   3.964 129.412  0.00  0.00    +0.000 C 
ATOM     29  O   UNL     1      -5.839   5.088 129.388  0.00  0.00    +0.000 OA
ATOM     30  H   UNL     1      -5.841   1.967 129.193  0.00  0.00    +0.000 HD
BRANCH  28  31
ATOM     31  C   UNL     1      -3.900   3.680 129.467  0.00  0.00    +0.000 C 
ATOM     32  C   UNL     1      -3.623   2.403 128.652  0.00  0.00    +0.000 C 
ATOM     33  C   UNL     1      -3.840   2.598 127.144  0.00  0.00    +0.000 C 
ATOM     34  C   UNL     1      -3.036   3.773 126.629  0.00  0.00    +0.000 C 
ATOM     35  F   UNL     1      -3.309   3.977 125.318  0.00  0.00    +0.000 F 
ATOM     36  F   UNL     1      -1.714   3.462 126.706  0.00  0.00    +0.000 F 
ATOM     37  C   UNL     1      -3.289   5.055 127.413  0.00  0.00    +0.000 C 
ATOM     38  C   UNL     1      -3.066   4.848 128.915  0.00  0.00    +0.000 C 
ENDBRANCH  28  31
ENDBRANCH  20  27
ENDBRANCH   1  20
TORSDOF 8
ENDMDL
MODEL 8
REMARK VINA RESULT:      -8.3      4.222      7.248
REMARK  Name = Maraviroc
REMARK  11 active torsions:
REMARK  status: ('A' for Active; 'I' for Inactive)
REMARK    1  A    between atoms: C_1  and  C_2
REMARK    2  A    between atoms: C_2  and  C_3
REMARK    3  A    between atoms: C_2  and  C_4
REMARK    4  A    between atoms: C_7  and  C_8
REMARK    5  A    between atoms: N_9  and  C_10
REMARK    6  A    between atoms: N_17  and  C_18
REMARK    7  A    between atoms: C_18  and  C_19
REMARK    8  A    between atoms: C_19  and  C_20
REMARK    9  A    between atoms: C_20  and  N_21
REMARK   10  A    between atoms: C_20  and  C_32
REMARK   11  A    between atoms: C_22  and  C_24
REMARK                            x       y       z     vdW  Elec       q    Type
REMARK                         _______ _______ _______ _____ _____    ______ ____
ROOT
ATOM      1  C   UNL     1      -7.747   3.854 128.359  0.00  0.00    +0.000 C 
ENDROOT
BRANCH   1   2
ATOM      2  C   UNL     1      -7.843   2.706 127.382  0.00  0.00    +0.000 C 
BRANCH   2  10
ATOM      3  C   UNL     1      -7.522   0.248 125.143  0.00  0.00    +0.000 C 
ATOM      4  C   UNL     1      -6.756   1.542 124.978  0.00  0.00    +0.000 C 
ATOM      5  C   UNL     1      -5.851   1.765 126.208  0.00  0.00    +0.000 C 
ATOM      6  C   UNL     1      -4.948   0.530 126.480  0.00  0.00    +0.000 C 
ATOM      7  C   UNL     1      -5.694  -0.322 127.503  0.00  0.00    +0.000 C 
ATOM      8  C   UNL     1      -6.972   0.458 127.690  0.00  0.00    +0.000 C 
ATOM      9  C   UNL     1      -7.875   0.086 126.568  0.00  0.00    +0.000 C 
ATOM     10  N   UNL     1      -6.634   1.855 127.454  0.00  0.00    +0.000 NA
BRANCH   3  16
ATOM     11  C   UNL     1      -9.106  -1.304 123.866  0.00  0.00    +0.000 A 
ATOM     12  N   UNL     1      -9.973  -1.038 122.896  0.00  0.00    +0.000 NA
ATOM     13  N   UNL     1     -10.136   0.340 122.774  0.00  0.00    +0.000 NA
ATOM     14  C   UNL     1      -9.393   0.927 123.681  0.00  0.00    +0.000 A 
ATOM     15  C   UNL     1      -9.175   2.379 123.944  0.00  0.00    +0.000 C 
ATOM     16  N   UNL     1      -8.719  -0.050 124.379  0.00  0.00    +0.000 N 
BRANCH  11  18
ATOM     17  C   UNL     1      -7.203  -3.319 124.235  0.00  0.00    +0.000 C 
ATOM     18  C   UNL     1      -8.714  -2.777 124.369  0.00  0.00    +0.000 C 
ATOM     19  C   UNL     1      -9.414  -3.117 125.725  0.00  0.00    +0.000 C 
ENDBRANCH  11  18
ENDBRANCH   3  16
ENDBRANCH   2  10
ENDBRANCH   1   2
BRANCH   1  20
ATOM     20  C   UNL     1      -8.903   3.817 129.359  0.00  0.00    +0.000 C 
BRANCH  20  21
ATOM     21  C   UNL     1      -8.431   2.983 130.534  0.00  0.00    +0.000 A 
ATOM     22  C   UNL     1      -7.486   3.528 131.418  0.00  0.00    +0.000 A 
ATOM     23  C   UNL     1      -6.982   2.775 132.465  0.00  0.00    +0.000 A 
ATOM     24  C   UNL     1      -7.446   1.479 132.661  0.00  0.00    +0.000 A 
ATOM     25  C   UNL     1      -8.389   0.923 131.795  0.00  0.00    +0.000 A 
ATOM     26  C   UNL     1      -8.885   1.672 130.730  0.00  0.00    +0.000 A 
ENDBRANCH  20  21
BRANCH  20  27
ATOM     27  N   UNL     1      -9.242   5.201 129.703  0.00  0.00    +0.000 N 
ATOM     28  C   UNL     1     -10.550   5.546 129.957  0.00  0.00    +0.000 C 
ATOM     29  O   UNL     1     -11.440   4.732 129.976  0.00  0.00    +0.000 OA
ATOM     30  H   UNL     1      -8.608   5.926 129.400  0.00  0.00    +0.000 HD
BRANCH  28  31
ATOM     31  C   UNL     1     -10.790   7.016 130.310  0.00  0.00    +0.000 C 
ATOM     32  C   UNL     1     -10.317   7.877 129.124  0.00  0.00    +0.000 C 
ATOM     33  C   UNL     1     -11.201   7.716 127.879  0.00  0.00    +0.000 C 
ATOM     34  C   UNL     1     -12.655   7.975 128.210  0.00  0.00    +0.000 C 
ATOM     35  F   UNL     1     -13.423   7.744 127.118  0.00  0.00    +0.000 F 
ATOM     36  F   UNL     1     -12.803   9.291 128.516  0.00  0.00    +0.000 F 
ATOM     37  C   UNL     1     -13.157   7.135 129.378  0.00  0.00    +0.000 C 
ATOM     38  C   UNL     1     -12.269   7.308 130.615  0.00  0.00    +0.000 C 
ENDBRANCH  28  31
ENDBRANCH  20  27
ENDBRANCH   1  20
TORSDOF 8
ENDMDL
MODEL 9
REMARK VINA RESULT:      -8.2      5.103      7.085
REMARK  Name = Maraviroc
REMARK  11 active torsions:
REMARK  status: ('A' for Active; 'I' for Inactive)
REMARK    1  A    between atoms: C_1  and  C_2
REMARK    2  A    between atoms: C_2  and  C_3
REMARK    3  A    between atoms: C_2  and  C_4
REMARK    4  A    between atoms: C_7  and  C_8
REMARK    5  A    between atoms: N_9  and  C_10
REMARK    6  A    between atoms: N_17  and  C_18
REMARK    7  A    between atoms: C_18  and  C_19
REMARK    8  A    between atoms: C_19  and  C_20
REMARK    9  A    between atoms: C_20  and  N_21
REMARK   10  A    between atoms: C_20  and  C_32
REMARK   11  A    between atoms: C_22  and  C_24
REMARK                            x       y       z     vdW  Elec       q    Type
REMARK                         _______ _______ _______ _____ _____    ______ ____
ROOT
ATOM      1  C   UNL     1      -5.633   0.513 129.006  0.00  0.00    +0.000 C 
ENDROOT
BRANCH   1   2
ATOM      2  C   UNL     1      -5.872   1.844 128.330  0.00  0.00    +0.000 C 
BRANCH   2  10
ATOM      3  C   UNL     1      -4.315   4.737 128.932  0.00  0.00    +0.000 C 
ATOM      4  C   UNL     1      -3.713   3.430 129.399  0.00  0.00    +0.000 C 
ATOM      5  C   UNL     1      -3.470   2.511 128.183  0.00  0.00    +0.000 C 
ATOM      6  C   UNL     1      -2.638   3.230 127.085  0.00  0.00    +0.000 C 
ATOM      7  C   UNL     1      -3.648   3.826 126.110  0.00  0.00    +0.000 C 
ATOM      8  C   UNL     1      -4.962   3.450 126.750  0.00  0.00    +0.000 C 
ATOM      9  C   UNL     1      -5.233   4.460 127.809  0.00  0.00    +0.000 C 
ATOM     10  N   UNL     1      -4.724   2.207 127.469  0.00  0.00    +0.000 NA
BRANCH   3  16
ATOM     11  C   UNL     1      -6.260   5.416 130.450  0.00  0.00    +0.000 A 
ATOM     12  N   UNL     1      -6.704   6.620 130.791  0.00  0.00    +0.000 NA
ATOM     13  N   UNL     1      -5.786   7.590 130.398  0.00  0.00    +0.000 NA
ATOM     14  C   UNL     1      -4.762   6.990 129.838  0.00  0.00    +0.000 A 
ATOM     15  C   UNL     1      -3.539   7.571 129.213  0.00  0.00    +0.000 C 
ATOM     16  N   UNL     1      -5.013   5.637 129.831  0.00  0.00    +0.000 N 
BRANCH  11  18
ATOM     17  C   UNL     1      -6.566   3.180 132.100  0.00  0.00    +0.000 C 
ATOM     18  C   UNL     1      -6.993   4.033 130.803  0.00  0.00    +0.000 C 
ATOM     19  C   UNL     1      -8.535   4.132 130.564  0.00  0.00    +0.000 C 
ENDBRANCH  11  18
ENDBRANCH   3  16
ENDBRANCH   2  10
ENDBRANCH   1   2
BRANCH   1  20
ATOM     20  C   UNL     1      -5.536  -0.612 127.976  0.00  0.00    +0.000 C 
BRANCH  20  21
ATOM     21  C   UNL     1      -5.702  -1.912 128.738  0.00  0.00    +0.000 A 
ATOM     22  C   UNL     1      -6.991  -2.445 128.901  0.00  0.00    +0.000 A 
ATOM     23  C   UNL     1      -7.192  -3.594 129.646  0.00  0.00    +0.000 A 
ATOM     24  C   UNL     1      -6.098  -4.246 130.207  0.00  0.00    +0.000 A 
ATOM     25  C   UNL     1      -4.809  -3.733 130.050  0.00  0.00    +0.000 A 
ATOM     26  C   UNL     1      -4.606  -2.566 129.317  0.00  0.00    +0.000 A 
ENDBRANCH  20  21
BRANCH  20  27
ATOM     27  N   UNL     1      -6.565  -0.377 126.959  0.00  0.00    +0.000 N 
ATOM     28  C   UNL     1      -6.285  -0.608 125.631  0.00  0.00    +0.000 C 
ATOM     29  O   UNL     1      -5.232  -1.068 125.264  0.00  0.00    +0.000 OA
ATOM     30  H   UNL     1      -7.305   0.272 127.184  0.00  0.00    +0.000 HD
BRANCH  28  31
ATOM     31  C   UNL     1      -7.432  -0.334 124.655  0.00  0.00    +0.000 C 
ATOM     32  C   UNL     1      -7.174  -1.144 123.371  0.00  0.00    +0.000 C 
ATOM     33  C   UNL     1      -7.310  -2.659 123.583  0.00  0.00    +0.000 C 
ATOM     34  C   UNL     1      -8.651  -3.001 124.196  0.00  0.00    +0.000 C 
ATOM     35  F   UNL     1      -8.715  -4.330 124.451  0.00  0.00    +0.000 F 
ATOM     36  F   UNL     1      -9.626  -2.734 123.285  0.00  0.00    +0.000 F 
ATOM     37  C   UNL     1      -8.938  -2.218 125.471  0.00  0.00    +0.000 C 
ATOM     38  C   UNL     1      -8.801  -0.709 125.246  0.00  0.00    +0.000 C 
ENDBRANCH  28  31
ENDBRANCH  20  27
ENDBRANCH   1  20
TORSDOF 8
ENDMDL
