MODEL 1
REMARK VINA RESULT:      -7.1      0.000      0.000
REMARK  Name = Maribavir
REMARK  8 active torsions:
REMARK  status: ('A' for Active; 'I' for Inactive)
REMARK    1  A    between atoms: C_1  and  C_2
REMARK    2  A    between atoms: C_2  and  C_3
REMARK    3  A    between atoms: C_2  and  N_4
REMARK    4  A    between atoms: N_15  and  C1*_16
REMARK    5  A    between atoms: C4*_18  and  C5*_19
REMARK    6  A    between atoms: C5*_19  and  O5*_20
REMARK    7  A    between atoms: C3*_21  and  O3*_22
REMARK    8  A    between atoms: C2*_23  and  O2*_24
REMARK                            x       y       z     vdW  Elec       q    Type
REMARK                         _______ _______ _______ _____ _____    ______ ____
ROOT
ATOM      1  N   UNL     1      -9.389   5.043 133.492  0.00  0.00    +0.000 N 
ATOM      2  C   UNL     1      -9.886   5.810 132.465  0.00  0.00    +0.000 A 
ATOM      3  N   UNL     1     -11.031   6.495 132.482  0.00  0.00    +0.000 NA
ATOM      4  C   UNL     1     -11.242   7.002 131.209  0.00  0.00    +0.000 A 
ATOM      5  C   UNL     1     -12.266   7.780 130.601  0.00  0.00    +0.000 A 
ATOM      6  C   UNL     1     -12.213   8.106 129.219  0.00  0.00    +0.000 A 
ATOM      7 CL   UNL     1     -13.470   9.044 128.497  0.00  0.00    +0.000 Cl
ATOM      8  C   UNL     1     -11.138   7.703 128.449  0.00  0.00    +0.000 A 
ATOM      9 CL   UNL     1     -10.954   7.976 126.751  0.00  0.00    +0.000 Cl
ATOM     10  C   UNL     1     -10.124   7.019 129.076  0.00  0.00    +0.000 A 
ATOM     11  C   UNL     1     -10.174   6.630 130.397  0.00  0.00    +0.000 A 
ATOM     12  N   UNL     1      -9.369   5.823 131.178  0.00  0.00    +0.000 N 
ATOM     13  H   UNL     1     -10.081   4.967 134.243  0.00  0.00    +0.000 HD
ENDROOT
BRANCH  12  14
ATOM     14  C1* UNL     1      -8.324   4.963 130.628  0.00  0.00    +0.000 C 
ATOM     15  O4* UNL     1      -8.228   3.770 131.411  0.00  0.00    +0.000 OA
ATOM     16  C4* UNL     1      -8.407   2.631 130.565  0.00  0.00    +0.000 C 
ATOM     17  C3* UNL     1      -9.007   3.106 129.230  0.00  0.00    +0.000 C 
ATOM     18  C2* UNL     1      -8.484   4.530 129.139  0.00  0.00    +0.000 C 
BRANCH  17  19
ATOM     19  O3* UNL     1      -8.652   2.256 128.150  0.00  0.00    +0.000 OA
ATOM     20  H3* UNL     1      -7.850   1.766 128.398  0.00  0.00    +0.000 HD
ENDBRANCH  17  19
BRANCH  18  21
ATOM     21  O2* UNL     1      -7.245   4.482 128.397  0.00  0.00    +0.000 OA
ATOM     22  H2* UNL     1      -7.430   4.249 127.473  0.00  0.00    +0.000 HD
ENDBRANCH  18  21
BRANCH  16  23
ATOM     23  C5* UNL     1      -9.207   1.619 131.384  0.00  0.00    +0.000 C 
BRANCH  23  24
ATOM     24  O5* UNL     1     -10.102   2.267 132.290  0.00  0.00    +0.000 OA
ATOM     25  H5* UNL     1      -9.762   3.151 132.488  0.00  0.00    +0.000 HD
ENDBRANCH  23  24
ENDBRANCH  16  23
ENDBRANCH  12  14
BRANCH   1  27
ATOM     26  C   UNL     1      -8.104   6.048 135.387  0.00  0.00    +0.000 C 
ATOM     27  C   UNL     1      -8.040   5.258 134.083  0.00  0.00    +0.000 C 
ATOM     28  C   UNL     1      -7.383   3.962 134.503  0.00  0.00    +0.000 C 
ENDBRANCH   1  27
TORSDOF 6
ENDMDL
MODEL 2
REMARK VINA RESULT:      -6.9      2.048      4.466
REMARK  Name = Maribavir
REMARK  8 active torsions:
REMARK  status: ('A' for Active; 'I' for Inactive)
REMARK    1  A    between atoms: C_1  and  C_2
REMARK    2  A    between atoms: C_2  and  C_3
REMARK    3  A    between atoms: C_2  and  N_4
REMARK    4  A    between atoms: N_15  and  C1*_16
REMARK    5  A    between atoms: C4*_18  and  C5*_19
REMARK    6  A    between atoms: C5*_19  and  O5*_20
REMARK    7  A    between atoms: C3*_21  and  O3*_22
REMARK    8  A    between atoms: C2*_23  and  O2*_24
REMARK                            x       y       z     vdW  Elec       q    Type
REMARK                         _______ _______ _______ _____ _____    ______ ____
ROOT
ATOM      1  N   UNL     1      -7.412   3.785 129.031  0.00  0.00    +0.000 N 
ATOM      2  C   UNL     1      -8.511   4.600 129.163  0.00  0.00    +0.000 A 
ATOM      3  N   UNL     1      -8.915   5.518 128.284  0.00  0.00    +0.000 NA
ATOM      4  C   UNL     1      -9.961   6.225 128.857  0.00  0.00    +0.000 A 
ATOM      5  C   UNL     1     -10.779   7.312 128.442  0.00  0.00    +0.000 A 
ATOM      6  C   UNL     1     -11.766   7.857 129.306  0.00  0.00    +0.000 A 
ATOM      7 CL   UNL     1     -12.743   9.181 128.786  0.00  0.00    +0.000 Cl
ATOM      8  C   UNL     1     -11.974   7.310 130.558  0.00  0.00    +0.000 A 
ATOM      9 CL   UNL     1     -13.097   7.889 131.740  0.00  0.00    +0.000 Cl
ATOM     10  C   UNL     1     -11.225   6.211 130.907  0.00  0.00    +0.000 A 
ATOM     11  C   UNL     1     -10.216   5.699 130.121  0.00  0.00    +0.000 A 
ATOM     12  N   UNL     1      -9.253   4.730 130.328  0.00  0.00    +0.000 N 
ATOM     13  H   UNL     1      -6.864   4.062 128.212  0.00  0.00    +0.000 HD
ENDROOT
BRANCH  12  14
ATOM     14  C1* UNL     1      -8.957   4.162 131.641  0.00  0.00    +0.000 C 
ATOM     15  O4* UNL     1      -7.540   4.075 131.814  0.00  0.00    +0.000 OA
ATOM     16  C4* UNL     1      -7.160   4.788 132.994  0.00  0.00    +0.000 C 
ATOM     17  C3* UNL     1      -8.334   5.688 133.417  0.00  0.00    +0.000 C 
ATOM     18  C2* UNL     1      -9.529   4.921 132.878  0.00  0.00    +0.000 C 
BRANCH  17  19
ATOM     19  O3* UNL     1      -8.346   5.931 134.816  0.00  0.00    +0.000 OA
ATOM     20  H3* UNL     1      -8.533   6.874 134.960  0.00  0.00    +0.000 HD
ENDBRANCH  17  19
BRANCH  18  21
ATOM     21  O2* UNL     1      -9.998   4.061 133.939  0.00  0.00    +0.000 OA
ATOM     22  H2* UNL     1      -9.592   4.331 134.778  0.00  0.00    +0.000 HD
ENDBRANCH  18  21
BRANCH  16  23
ATOM     23  C5* UNL     1      -5.828   5.462 132.668  0.00  0.00    +0.000 C 
BRANCH  23  24
ATOM     24  O5* UNL     1      -5.514   5.362 131.278  0.00  0.00    +0.000 OA
ATOM     25  H5* UNL     1      -5.785   4.489 130.958  0.00  0.00    +0.000 HD
ENDBRANCH  23  24
ENDBRANCH  16  23
ENDBRANCH  12  14
BRANCH   1  27
ATOM     26  C   UNL     1      -8.477   1.735 128.074  0.00  0.00    +0.000 C 
ATOM     27  C   UNL     1      -7.493   2.300 129.094  0.00  0.00    +0.000 C 
ATOM     28  C   UNL     1      -6.189   1.636 128.711  0.00  0.00    +0.000 C 
ENDBRANCH   1  27
TORSDOF 6
ENDMDL
MODEL 3
REMARK VINA RESULT:      -6.6      6.224      8.799
REMARK  Name = Maribavir
REMARK  8 active torsions:
REMARK  status: ('A' for Active; 'I' for Inactive)
REMARK    1  A    between atoms: C_1  and  C_2
REMARK    2  A    between atoms: C_2  and  C_3
REMARK    3  A    between atoms: C_2  and  N_4
REMARK    4  A    between atoms: N_15  and  C1*_16
REMARK    5  A    between atoms: C4*_18  and  C5*_19
REMARK    6  A    between atoms: C5*_19  and  O5*_20
REMARK    7  A    between atoms: C3*_21  and  O3*_22
REMARK    8  A    between atoms: C2*_23  and  O2*_24
REMARK                            x       y       z     vdW  Elec       q    Type
REMARK                         _______ _______ _______ _____ _____    ______ ____
ROOT
ATOM      1  N   UNL     1      -6.949   1.800 128.501  0.00  0.00    +0.000 N 
ATOM      2  C   UNL     1      -6.816   0.835 127.530  0.00  0.00    +0.000 A 
ATOM      3  N   UNL     1      -5.824  -0.051 127.438  0.00  0.00    +0.000 NA
ATOM      4  C   UNL     1      -5.978  -0.737 126.243  0.00  0.00    +0.000 A 
ATOM      5  C   UNL     1      -5.250  -1.765 125.580  0.00  0.00    +0.000 A 
ATOM      6  C   UNL     1      -5.651  -2.238 124.301  0.00  0.00    +0.000 A 
ATOM      7 CL   UNL     1      -4.751  -3.480 123.511  0.00  0.00    +0.000 Cl
ATOM      8  C   UNL     1      -6.785  -1.729 123.696  0.00  0.00    +0.000 A 
ATOM      9 CL   UNL     1      -7.372  -2.162 122.127  0.00  0.00    +0.000 Cl
ATOM     10  C   UNL     1      -7.515  -0.792 124.390  0.00  0.00    +0.000 A 
ATOM     11  C   UNL     1      -7.118  -0.266 125.600  0.00  0.00    +0.000 A 
ATOM     12  N   UNL     1      -7.593   0.769 126.383  0.00  0.00    +0.000 N 
ATOM     13  H   UNL     1      -6.108   1.830 129.085  0.00  0.00    +0.000 HD
ENDROOT
BRANCH  12  14
ATOM     14  C1* UNL     1      -8.576   1.743 125.914  0.00  0.00    +0.000 C 
ATOM     15  O4* UNL     1      -8.158   3.059 126.290  0.00  0.00    +0.000 OA
ATOM     16  C4* UNL     1      -8.068   3.880 125.122  0.00  0.00    +0.000 C 
ATOM     17  C3* UNL     1      -8.074   2.966 123.884  0.00  0.00    +0.000 C 
ATOM     18  C2* UNL     1      -8.863   1.767 124.381  0.00  0.00    +0.000 C 
BRANCH  17  19
ATOM     19  O3* UNL     1      -8.610   3.617 122.741  0.00  0.00    +0.000 OA
ATOM     20  H3* UNL     1      -8.640   2.975 122.011  0.00  0.00    +0.000 HD
ENDBRANCH  17  19
BRANCH  18  21
ATOM     21  O2* UNL     1     -10.247   1.995 124.039  0.00  0.00    +0.000 OA
ATOM     22  H2* UNL     1     -10.310   2.742 123.422  0.00  0.00    +0.000 HD
ENDBRANCH  18  21
BRANCH  16  23
ATOM     23  C5* UNL     1      -6.852   4.781 125.335  0.00  0.00    +0.000 C 
BRANCH  23  24
ATOM     24  O5* UNL     1      -6.177   5.051 124.105  0.00  0.00    +0.000 OA
ATOM     25  H5* UNL     1      -5.310   5.435 124.301  0.00  0.00    +0.000 HD
ENDBRANCH  23  24
ENDBRANCH  16  23
ENDBRANCH  12  14
BRANCH   1  27
ATOM     26  C   UNL     1      -8.280   0.759 130.343  0.00  0.00    +0.000 C 
ATOM     27  C   UNL     1      -8.156   1.922 129.362  0.00  0.00    +0.000 C 
ATOM     28  C   UNL     1      -8.093   3.128 130.273  0.00  0.00    +0.000 C 
ENDBRANCH   1  27
TORSDOF 6
ENDMDL
MODEL 4
REMARK VINA RESULT:      -6.6      6.503      8.452
REMARK  Name = Maribavir
REMARK  8 active torsions:
REMARK  status: ('A' for Active; 'I' for Inactive)
REMARK    1  A    between atoms: C_1  and  C_2
REMARK    2  A    between atoms: C_2  and  C_3
REMARK    3  A    between atoms: C_2  and  N_4
REMARK    4  A    between atoms: N_15  and  C1*_16
REMARK    5  A    between atoms: C4*_18  and  C5*_19
REMARK    6  A    between atoms: C5*_19  and  O5*_20
REMARK    7  A    between atoms: C3*_21  and  O3*_22
REMARK    8  A    between atoms: C2*_23  and  O2*_24
REMARK                            x       y       z     vdW  Elec       q    Type
REMARK                         _______ _______ _______ _____ _____    ______ ____
ROOT
ATOM      1  N   UNL     1      -4.670   0.488 128.038  0.00  0.00    +0.000 N 
ATOM      2  C   UNL     1      -5.680   0.089 127.194  0.00  0.00    +0.000 A 
ATOM      3  N   UNL     1      -5.965  -1.170 126.856  0.00  0.00    +0.000 NA
ATOM      4  C   UNL     1      -6.944  -1.134 125.874  0.00  0.00    +0.000 A 
ATOM      5  C   UNL     1      -7.634  -2.119 125.115  0.00  0.00    +0.000 A 
ATOM      6  C   UNL     1      -8.576  -1.748 124.119  0.00  0.00    +0.000 A 
ATOM      7 CL   UNL     1      -9.397  -2.959 123.203  0.00  0.00    +0.000 Cl
ATOM      8  C   UNL     1      -8.868  -0.415 123.899  0.00  0.00    +0.000 A 
ATOM      9 CL   UNL     1      -9.949   0.197 122.695  0.00  0.00    +0.000 Cl
ATOM     10  C   UNL     1      -8.247   0.515 124.699  0.00  0.00    +0.000 A 
ATOM     11  C   UNL     1      -7.280   0.194 125.626  0.00  0.00    +0.000 A 
ATOM     12  N   UNL     1      -6.429   0.952 126.408  0.00  0.00    +0.000 N 
ATOM     13  H   UNL     1      -4.078  -0.310 128.282  0.00  0.00    +0.000 HD
ENDROOT
BRANCH  12  14
ATOM     14  C1* UNL     1      -6.223   2.385 126.212  0.00  0.00    +0.000 C 
ATOM     15  O4* UNL     1      -5.962   2.643 124.830  0.00  0.00    +0.000 OA
ATOM     16  C4* UNL     1      -6.913   3.590 124.335  0.00  0.00    +0.000 C 
ATOM     17  C3* UNL     1      -8.074   3.683 125.341  0.00  0.00    +0.000 C 
ATOM     18  C2* UNL     1      -7.387   3.326 126.648  0.00  0.00    +0.000 C 
BRANCH  17  19
ATOM     19  O3* UNL     1      -8.707   4.953 125.312  0.00  0.00    +0.000 OA
ATOM     20  H3* UNL     1      -9.264   5.035 126.104  0.00  0.00    +0.000 HD
ENDBRANCH  17  19
BRANCH  18  21
ATOM     21  O2* UNL     1      -6.955   4.564 127.255  0.00  0.00    +0.000 OA
ATOM     22  H2* UNL     1      -6.193   4.915 126.766  0.00  0.00    +0.000 HD
ENDBRANCH  18  21
BRANCH  16  23
ATOM     23  C5* UNL     1      -7.241   3.150 122.909  0.00  0.00    +0.000 C 
BRANCH  23  24
ATOM     24  O5* UNL     1      -8.554   3.561 122.522  0.00  0.00    +0.000 OA
ATOM     25  H5* UNL     1      -8.596   4.529 122.537  0.00  0.00    +0.000 HD
ENDBRANCH  23  24
ENDBRANCH  16  23
ENDBRANCH  12  14
BRANCH   1  27
ATOM     26  C   UNL     1      -4.447   0.616 130.525  0.00  0.00    +0.000 C 
ATOM     27  C   UNL     1      -4.908   1.318 129.250  0.00  0.00    +0.000 C 
ATOM     28  C   UNL     1      -4.089   2.589 129.248  0.00  0.00    +0.000 C 
ENDBRANCH   1  27
TORSDOF 6
ENDMDL
MODEL 5
REMARK VINA RESULT:      -6.5      6.641      9.204
REMARK  Name = Maribavir
REMARK  8 active torsions:
REMARK  status: ('A' for Active; 'I' for Inactive)
REMARK    1  A    between atoms: C_1  and  C_2
REMARK    2  A    between atoms: C_2  and  C_3
REMARK    3  A    between atoms: C_2  and  N_4
REMARK    4  A    between atoms: N_15  and  C1*_16
REMARK    5  A    between atoms: C4*_18  and  C5*_19
REMARK    6  A    between atoms: C5*_19  and  O5*_20
REMARK    7  A    between atoms: C3*_21  and  O3*_22
REMARK    8  A    between atoms: C2*_23  and  O2*_24
REMARK                            x       y       z     vdW  Elec       q    Type
REMARK                         _______ _______ _______ _____ _____    ______ ____
ROOT
ATOM      1  N   UNL     1      -6.923  -2.320 124.667  0.00  0.00    +0.000 N 
ATOM      2  C   UNL     1      -7.019  -1.784 125.929  0.00  0.00    +0.000 A 
ATOM      3  N   UNL     1      -7.404  -2.433 127.029  0.00  0.00    +0.000 NA
ATOM      4  C   UNL     1      -7.514  -1.505 128.053  0.00  0.00    +0.000 A 
ATOM      5  C   UNL     1      -7.892  -1.570 129.423  0.00  0.00    +0.000 A 
ATOM      6  C   UNL     1      -7.951  -0.396 130.222  0.00  0.00    +0.000 A 
ATOM      7 CL   UNL     1      -8.419  -0.494 131.880  0.00  0.00    +0.000 Cl
ATOM      8  C   UNL     1      -7.601   0.829 129.686  0.00  0.00    +0.000 A 
ATOM      9 CL   UNL     1      -7.669   2.348 130.510  0.00  0.00    +0.000 Cl
ATOM     10  C   UNL     1      -7.164   0.854 128.382  0.00  0.00    +0.000 A 
ATOM     11  C   UNL     1      -7.159  -0.253 127.562  0.00  0.00    +0.000 A 
ATOM     12  N   UNL     1      -6.921  -0.430 126.212  0.00  0.00    +0.000 N 
ATOM     13  H   UNL     1      -7.310  -3.269 124.656  0.00  0.00    +0.000 HD
ENDROOT
BRANCH  12  14
ATOM     14  C1* UNL     1      -6.839   0.676 125.261  0.00  0.00    +0.000 C 
ATOM     15  O4* UNL     1      -7.656   0.387 124.123  0.00  0.00    +0.000 OA
ATOM     16  C4* UNL     1      -8.608   1.438 123.941  0.00  0.00    +0.000 C 
ATOM     17  C3* UNL     1      -8.657   2.277 125.231  0.00  0.00    +0.000 C 
ATOM     18  C2* UNL     1      -7.256   2.084 125.786  0.00  0.00    +0.000 C 
BRANCH  17  19
ATOM     19  O3* UNL     1      -9.034   3.623 124.981  0.00  0.00    +0.000 OA
ATOM     20  H3* UNL     1      -8.410   3.999 124.337  0.00  0.00    +0.000 HD
ENDBRANCH  17  19
BRANCH  18  21
ATOM     21  O2* UNL     1      -6.446   3.170 125.285  0.00  0.00    +0.000 OA
ATOM     22  H2* UNL     1      -6.924   4.008 125.394  0.00  0.00    +0.000 HD
ENDBRANCH  18  21
BRANCH  16  23
ATOM     23  C5* UNL     1      -9.899   0.763 123.483  0.00  0.00    +0.000 C 
BRANCH  23  24
ATOM     24  O5* UNL     1     -11.052   1.409 124.026  0.00  0.00    +0.000 OA
ATOM     25  H5* UNL     1     -11.761   1.389 123.367  0.00  0.00    +0.000 HD
ENDBRANCH  23  24
ENDBRANCH  16  23
ENDBRANCH  12  14
BRANCH   1  27
ATOM     26  C   UNL     1      -4.927  -3.620 123.908  0.00  0.00    +0.000 C 
ATOM     27  C   UNL     1      -5.670  -2.288 123.865  0.00  0.00    +0.000 C 
ATOM     28  C   UNL     1      -5.936  -2.095 122.389  0.00  0.00    +0.000 C 
ENDBRANCH   1  27
TORSDOF 6
ENDMDL
MODEL 6
REMARK VINA RESULT:      -6.4      4.700      6.749
REMARK  Name = Maribavir
REMARK  8 active torsions:
REMARK  status: ('A' for Active; 'I' for Inactive)
REMARK    1  A    between atoms: C_1  and  C_2
REMARK    2  A    between atoms: C_2  and  C_3
REMARK    3  A    between atoms: C_2  and  N_4
REMARK    4  A    between atoms: N_15  and  C1*_16
REMARK    5  A    between atoms: C4*_18  and  C5*_19
REMARK    6  A    between atoms: C5*_19  and  O5*_20
REMARK    7  A    between atoms: C3*_21  and  O3*_22
REMARK    8  A    between atoms: C2*_23  and  O2*_24
REMARK                            x       y       z     vdW  Elec       q    Type
REMARK                         _______ _______ _______ _____ _____    ______ ____
ROOT
ATOM      1  N   UNL     1      -3.761   2.417 127.388  0.00  0.00    +0.000 N 
ATOM      2  C   UNL     1      -4.813   2.665 128.237  0.00  0.00    +0.000 A 
ATOM      3  N   UNL     1      -5.007   2.101 129.430  0.00  0.00    +0.000 NA
ATOM      4  C   UNL     1      -6.251   2.500 129.892  0.00  0.00    +0.000 A 
ATOM      5  C   UNL     1      -7.018   2.230 131.060  0.00  0.00    +0.000 A 
ATOM      6  C   UNL     1      -8.322   2.772 131.222  0.00  0.00    +0.000 A 
ATOM      7 CL   UNL     1      -9.238   2.425 132.642  0.00  0.00    +0.000 Cl
ATOM      8  C   UNL     1      -8.852   3.608 130.257  0.00  0.00    +0.000 A 
ATOM      9 CL   UNL     1     -10.436   4.303 130.284  0.00  0.00    +0.000 Cl
ATOM     10  C   UNL     1      -8.062   3.917 129.175  0.00  0.00    +0.000 A 
ATOM     11  C   UNL     1      -6.822   3.357 128.956  0.00  0.00    +0.000 A 
ATOM     12  N   UNL     1      -5.942   3.394 127.891  0.00  0.00    +0.000 N 
ATOM     13  H   UNL     1      -3.198   1.638 127.742  0.00  0.00    +0.000 HD
ENDROOT
BRANCH  12  14
ATOM     14  C1* UNL     1      -6.300   3.910 126.572  0.00  0.00    +0.000 C 
ATOM     15  O4* UNL     1      -5.861   2.992 125.567  0.00  0.00    +0.000 OA
ATOM     16  C4* UNL     1      -6.977   2.599 124.763  0.00  0.00    +0.000 C 
ATOM     17  C3* UNL     1      -8.269   2.995 125.498  0.00  0.00    +0.000 C 
ATOM     18  C2* UNL     1      -7.813   4.190 126.317  0.00  0.00    +0.000 C 
BRANCH  17  19
ATOM     19  O3* UNL     1      -9.341   3.244 124.601  0.00  0.00    +0.000 OA
ATOM     20  H3* UNL     1      -9.044   3.896 123.944  0.00  0.00    +0.000 HD
ENDBRANCH  17  19
BRANCH  18  21
ATOM     21  O2* UNL     1      -8.073   5.372 125.528  0.00  0.00    +0.000 OA
ATOM     22  H2* UNL     1      -8.884   5.243 125.010  0.00  0.00    +0.000 HD
ENDBRANCH  18  21
BRANCH  16  23
ATOM     23  C5* UNL     1      -6.765   1.120 124.443  0.00  0.00    +0.000 C 
BRANCH  23  24
ATOM     24  O5* UNL     1      -7.886   0.566 123.751  0.00  0.00    +0.000 OA
ATOM     25  H5* UNL     1      -7.644   0.427 122.824  0.00  0.00    +0.000 HD
ENDBRANCH  23  24
ENDBRANCH  16  23
ENDBRANCH  12  14
BRANCH   1  27
ATOM     26  C   UNL     1      -2.577   4.549 127.937  0.00  0.00    +0.000 C 
ATOM     27  C   UNL     1      -2.861   3.487 126.879  0.00  0.00    +0.000 C 
ATOM     28  C   UNL     1      -1.481   2.966 126.542  0.00  0.00    +0.000 C 
ENDBRANCH   1  27
TORSDOF 6
ENDMDL
MODEL 7
REMARK VINA RESULT:      -6.4      8.058     10.189
REMARK  Name = Maribavir
REMARK  8 active torsions:
REMARK  status: ('A' for Active; 'I' for Inactive)
REMARK    1  A    between atoms: C_1  and  C_2
REMARK    2  A    between atoms: C_2  and  C_3
REMARK    3  A    between atoms: C_2  and  N_4
REMARK    4  A    between atoms: N_15  and  C1*_16
REMARK    5  A    between atoms: C4*_18  and  C5*_19
REMARK    6  A    between atoms: C5*_19  and  O5*_20
REMARK    7  A    between atoms: C3*_21  and  O3*_22
REMARK    8  A    between atoms: C2*_23  and  O2*_24
REMARK                            x       y       z     vdW  Elec       q    Type
REMARK                         _______ _______ _______ _____ _____    ______ ____
ROOT
ATOM      1  N   UNL     1      -8.987  -1.269 125.108  0.00  0.00    +0.000 N 
ATOM      2  C   UNL     1      -8.189  -1.803 126.092  0.00  0.00    +0.000 A 
ATOM      3  N   UNL     1      -8.594  -2.608 127.076  0.00  0.00    +0.000 NA
ATOM      4  C   UNL     1      -7.523  -2.796 127.937  0.00  0.00    +0.000 A 
ATOM      5  C   UNL     1      -7.331  -3.514 129.150  0.00  0.00    +0.000 A 
ATOM      6  C   UNL     1      -6.089  -3.469 129.839  0.00  0.00    +0.000 A 
ATOM      7 CL   UNL     1      -5.879  -4.341 131.313  0.00  0.00    +0.000 Cl
ATOM      8  C   UNL     1      -5.029  -2.752 129.316  0.00  0.00    +0.000 A 
ATOM      9 CL   UNL     1      -3.478  -2.558 130.056  0.00  0.00    +0.000 Cl
ATOM     10  C   UNL     1      -5.215  -2.130 128.104  0.00  0.00    +0.000 A 
ATOM     11  C   UNL     1      -6.424  -2.100 127.444  0.00  0.00    +0.000 A 
ATOM     12  N   UNL     1      -6.876  -1.424 126.326  0.00  0.00    +0.000 N 
ATOM     13  H   UNL     1      -9.971  -1.473 125.302  0.00  0.00    +0.000 HD
ENDROOT
BRANCH  12  14
ATOM     14  C1* UNL     1      -6.139  -0.329 125.699  0.00  0.00    +0.000 C 
ATOM     15  O4* UNL     1      -7.009   0.386 124.817  0.00  0.00    +0.000 OA
ATOM     16  C4* UNL     1      -7.034   1.766 125.191  0.00  0.00    +0.000 C 
ATOM     17  C3* UNL     1      -6.439   1.898 126.604  0.00  0.00    +0.000 C 
ATOM     18  C2* UNL     1      -5.487   0.715 126.656  0.00  0.00    +0.000 C 
BRANCH  17  19
ATOM     19  O3* UNL     1      -5.844   3.169 126.818  0.00  0.00    +0.000 OA
ATOM     20  H3* UNL     1      -5.470   3.477 125.975  0.00  0.00    +0.000 HD
ENDBRANCH  17  19
BRANCH  18  21
ATOM     21  O2* UNL     1      -4.192   1.189 126.225  0.00  0.00    +0.000 OA
ATOM     22  H2* UNL     1      -3.624   0.431 126.014  0.00  0.00    +0.000 HD
ENDBRANCH  18  21
BRANCH  16  23
ATOM     23  C5* UNL     1      -8.473   2.234 124.980  0.00  0.00    +0.000 C 
BRANCH  23  24
ATOM     24  O5* UNL     1      -9.368   1.615 125.906  0.00  0.00    +0.000 OA
ATOM     25  H5* UNL     1      -8.896   0.912 126.376  0.00  0.00    +0.000 HD
ENDBRANCH  23  24
ENDBRANCH  16  23
ENDBRANCH  12  14
BRANCH   1  27
ATOM     26  C   UNL     1      -9.000  -2.886 123.202  0.00  0.00    +0.000 C 
ATOM     27  C   UNL     1      -8.719  -1.457 123.656  0.00  0.00    +0.000 C 
ATOM     28  C   UNL     1      -9.647  -0.637 122.789  0.00  0.00    +0.000 C 
ENDBRANCH   1  27
TORSDOF 6
ENDMDL
MODEL 8
REMARK VINA RESULT:      -6.0      6.998      9.557
REMARK  Name = Maribavir
REMARK  8 active torsions:
REMARK  status: ('A' for Active; 'I' for Inactive)
REMARK    1  A    between atoms: C_1  and  C_2
REMARK    2  A    between atoms: C_2  and  C_3
REMARK    3  A    between atoms: C_2  and  N_4
REMARK    4  A    between atoms: N_15  and  C1*_16
REMARK    5  A    between atoms: C4*_18  and  C5*_19
REMARK    6  A    between atoms: C5*_19  and  O5*_20
REMARK    7  A    between atoms: C3*_21  and  O3*_22
REMARK    8  A    between atoms: C2*_23  and  O2*_24
REMARK                            x       y       z     vdW  Elec       q    Type
REMARK                         _______ _______ _______ _____ _____    ______ ____
ROOT
ATOM      1  N   UNL     1      -5.805   2.674 126.457  0.00  0.00    +0.000 N 
ATOM      2  C   UNL     1      -5.969   1.348 126.132  0.00  0.00    +0.000 A 
ATOM      3  N   UNL     1      -4.990   0.460 125.949  0.00  0.00    +0.000 NA
ATOM      4  C   UNL     1      -5.564  -0.714 125.486  0.00  0.00    +0.000 A 
ATOM      5  C   UNL     1      -5.060  -1.987 125.099  0.00  0.00    +0.000 A 
ATOM      6  C   UNL     1      -5.928  -3.000 124.608  0.00  0.00    +0.000 A 
ATOM      7 CL   UNL     1      -5.296  -4.534 124.136  0.00  0.00    +0.000 Cl
ATOM      8  C   UNL     1      -7.290  -2.774 124.536  0.00  0.00    +0.000 A 
ATOM      9 CL   UNL     1      -8.466  -3.882 123.918  0.00  0.00    +0.000 Cl
ATOM     10  C   UNL     1      -7.762  -1.564 124.990  0.00  0.00    +0.000 A 
ATOM     11  C   UNL     1      -6.942  -0.539 125.409  0.00  0.00    +0.000 A 
ATOM     12  N   UNL     1      -7.175   0.781 125.747  0.00  0.00    +0.000 N 
ATOM     13  H   UNL     1      -4.813   2.926 126.420  0.00  0.00    +0.000 HD
ENDROOT
BRANCH  12  14
ATOM     14  C1* UNL     1      -8.438   1.465 125.482  0.00  0.00    +0.000 C 
ATOM     15  O4* UNL     1      -8.201   2.584 124.623  0.00  0.00    +0.000 OA
ATOM     16  C4* UNL     1      -9.016   2.467 123.454  0.00  0.00    +0.000 C 
ATOM     17  C3* UNL     1      -9.541   1.022 123.371  0.00  0.00    +0.000 C 
ATOM     18  C2* UNL     1      -9.573   0.615 124.834  0.00  0.00    +0.000 C 
BRANCH  17  19
ATOM     19  O3* UNL     1     -10.784   0.943 122.689  0.00  0.00    +0.000 OA
ATOM     20  H3* UNL     1     -11.199   0.093 122.910  0.00  0.00    +0.000 HD
ENDBRANCH  17  19
BRANCH  18  21
ATOM     21  O2* UNL     1     -10.896   0.913 125.331  0.00  0.00    +0.000 OA
ATOM     22  H2* UNL     1     -11.482   1.124 124.586  0.00  0.00    +0.000 HD
ENDBRANCH  18  21
BRANCH  16  23
ATOM     23  C5* UNL     1      -8.164   2.980 122.294  0.00  0.00    +0.000 C 
BRANCH  23  24
ATOM     24  O5* UNL     1      -8.897   3.879 121.460  0.00  0.00    +0.000 OA
ATOM     25  H5* UNL     1      -9.724   3.453 121.191  0.00  0.00    +0.000 HD
ENDBRANCH  23  24
ENDBRANCH  16  23
ENDBRANCH  12  14
BRANCH   1  27
ATOM     26  C   UNL     1      -6.520   2.327 128.827  0.00  0.00    +0.000 C 
ATOM     27  C   UNL     1      -6.431   3.298 127.653  0.00  0.00    +0.000 C 
ATOM     28  C   UNL     1      -5.600   4.431 128.213  0.00  0.00    +0.000 C 
ENDBRANCH   1  27
TORSDOF 6
ENDMDL
MODEL 9
REMARK VINA RESULT:      -6.0      5.235      7.328
REMARK  Name = Maribavir
REMARK  8 active torsions:
REMARK  status: ('A' for Active; 'I' for Inactive)
REMARK    1  A    between atoms: C_1  and  C_2
REMARK    2  A    between atoms: C_2  and  C_3
REMARK    3  A    between atoms: C_2  and  N_4
REMARK    4  A    between atoms: N_15  and  C1*_16
REMARK    5  A    between atoms: C4*_18  and  C5*_19
REMARK    6  A    between atoms: C5*_19  and  O5*_20
REMARK    7  A    between atoms: C3*_21  and  O3*_22
REMARK    8  A    between atoms: C2*_23  and  O2*_24
REMARK                            x       y       z     vdW  Elec       q    Type
REMARK                         _______ _______ _______ _____ _____    ______ ____
ROOT
ATOM      1  N   UNL     1      -7.120   1.433 129.407  0.00  0.00    +0.000 N 
ATOM      2  C   UNL     1      -7.685   0.951 128.251  0.00  0.00    +0.000 A 
ATOM      3  N   UNL     1      -7.704  -0.325 127.861  0.00  0.00    +0.000 NA
ATOM      4  C   UNL     1      -8.226  -0.369 126.577  0.00  0.00    +0.000 A 
ATOM      5  C   UNL     1      -8.478  -1.406 125.636  0.00  0.00    +0.000 A 
ATOM      6  C   UNL     1      -8.993  -1.113 124.345  0.00  0.00    +0.000 A 
ATOM      7 CL   UNL     1      -9.284  -2.384 123.215  0.00  0.00    +0.000 Cl
ATOM      8  C   UNL     1      -9.295   0.190 123.995  0.00  0.00    +0.000 A 
ATOM      9 CL   UNL     1      -9.877   0.712 122.452  0.00  0.00    +0.000 Cl
ATOM     10  C   UNL     1      -9.116   1.165 124.948  0.00  0.00    +0.000 A 
ATOM     11  C   UNL     1      -8.558   0.924 126.185  0.00  0.00    +0.000 A 
ATOM     12  N   UNL     1      -8.147   1.749 127.215  0.00  0.00    +0.000 N 
ATOM     13  H   UNL     1      -6.598   0.690 129.882  0.00  0.00    +0.000 HD
ENDROOT
BRANCH  12  14
ATOM     14  C1* UNL     1      -8.010   3.197 127.076  0.00  0.00    +0.000 C 
ATOM     15  O4* UNL     1      -6.775   3.617 127.662  0.00  0.00    +0.000 OA
ATOM     16  C4* UNL     1      -6.001   4.319 126.687  0.00  0.00    +0.000 C 
ATOM     17  C3* UNL     1      -6.595   4.032 125.296  0.00  0.00    +0.000 C 
ATOM     18  C2* UNL     1      -8.054   3.769 125.626  0.00  0.00    +0.000 C 
BRANCH  17  19
ATOM     19  O3* UNL     1      -6.358   5.094 124.384  0.00  0.00    +0.000 OA
ATOM     20  H3* UNL     1      -6.654   5.923 124.796  0.00  0.00    +0.000 HD
ENDBRANCH  17  19
BRANCH  18  21
ATOM     21  O2* UNL     1      -8.753   5.027 125.504  0.00  0.00    +0.000 OA
ATOM     22  H2* UNL     1      -9.265   5.034 124.679  0.00  0.00    +0.000 HD
ENDBRANCH  18  21
BRANCH  16  23
ATOM     23  C5* UNL     1      -4.547   3.918 126.935  0.00  0.00    +0.000 C 
BRANCH  23  24
ATOM     24  O5* UNL     1      -3.788   3.918 125.724  0.00  0.00    +0.000 OA
ATOM     25  H5* UNL     1      -3.513   3.011 125.527  0.00  0.00    +0.000 HD
ENDBRANCH  23  24
ENDBRANCH  16  23
ENDBRANCH  12  14
BRANCH   1  27
ATOM     26  C   UNL     1      -8.650   1.330 131.382  0.00  0.00    +0.000 C 
ATOM     27  C   UNL     1      -7.880   2.223 130.413  0.00  0.00    +0.000 C 
ATOM     28  C   UNL     1      -6.973   3.015 131.328  0.00  0.00    +0.000 C 
ENDBRANCH   1  27
TORSDOF 6
ENDMDL
