MODEL 1
REMARK VINA RESULT:      -6.4      0.000      0.000
REMARK  Name = Masoprocol
REMARK  11 active torsions:
REMARK  status: ('A' for Active; 'I' for Inactive)
REMARK    1  A    between atoms: C_1  and  C_2
REMARK    2  A    between atoms: C_2  and  C_3
REMARK    3  A    between atoms: C_2  and  C_12
REMARK    4  A    between atoms: C_3  and  C_4
REMARK    5  A    between atoms: C_6  and  O_7
REMARK    6  A    between atoms: C_8  and  O_9
REMARK    7  A    between atoms: C_12  and  C_13
REMARK    8  A    between atoms: C_12  and  C_14
REMARK    9  A    between atoms: C_14  and  C_15
REMARK   10  A    between atoms: C_17  and  O_18
REMARK   11  A    between atoms: C_19  and  O_20
REMARK                            x       y       z     vdW  Elec       q    Type
REMARK                         _______ _______ _______ _____ _____    ______ ____
ROOT
ATOM      1  C   UNL     1      -7.764  -3.261 129.573  0.00  0.00    +0.000 C 
ATOM      2  C   UNL     1      -8.247  -2.653 128.241  0.00  0.00    +0.000 C 
ENDROOT
BRANCH   2   3
ATOM      3  C   UNL     1      -7.246  -1.584 127.639  0.00  0.00    +0.000 C 
ATOM      4  C   UNL     1      -5.879  -1.533 128.297  0.00  0.00    +0.000 C 
BRANCH   3   5
ATOM      5  C   UNL     1      -7.801  -0.145 127.625  0.00  0.00    +0.000 C 
BRANCH   5   6
ATOM      6  C   UNL     1      -8.188   0.364 126.257  0.00  0.00    +0.000 A 
ATOM      7  C   UNL     1      -9.525   0.630 125.912  0.00  0.00    +0.000 A 
ATOM      8  C   UNL     1      -9.824   1.216 124.691  0.00  0.00    +0.000 A 
ATOM      9  C   UNL     1      -8.813   1.477 123.785  0.00  0.00    +0.000 A 
ATOM     10  C   UNL     1      -7.488   1.187 124.085  0.00  0.00    +0.000 A 
ATOM     11  C   UNL     1      -7.175   0.637 125.331  0.00  0.00    +0.000 A 
BRANCH   8  12
ATOM     12  O   UNL     1     -11.110   1.558 124.372  0.00  0.00    +0.000 OA
ATOM     13  H   UNL     1     -11.710   1.028 124.924  0.00  0.00    +0.000 HD
ENDBRANCH   8  12
BRANCH   9  14
ATOM     14  O   UNL     1      -9.114   2.031 122.574  0.00  0.00    +0.000 OA
ATOM     15  H   UNL     1      -8.864   1.343 121.927  0.00  0.00    +0.000 HD
ENDBRANCH   9  14
ENDBRANCH   5   6
ENDBRANCH   3   5
ENDBRANCH   2   3
BRANCH   2  16
ATOM     16  C   UNL     1      -8.769  -3.746 127.248  0.00  0.00    +0.000 C 
BRANCH  16  17
ATOM     17  C   UNL     1      -8.476  -3.491 125.779  0.00  0.00    +0.000 A 
ATOM     18  C   UNL     1      -9.463  -2.957 124.926  0.00  0.00    +0.000 A 
ATOM     19  C   UNL     1      -9.084  -2.383 123.712  0.00  0.00    +0.000 A 
ATOM     20  C   UNL     1      -7.757  -2.421 123.300  0.00  0.00    +0.000 A 
ATOM     21  C   UNL     1      -6.794  -3.037 124.079  0.00  0.00    +0.000 A 
ATOM     22  C   UNL     1      -7.164  -3.604 125.296  0.00  0.00    +0.000 A 
BRANCH  19  23
ATOM     23  O   UNL     1      -9.973  -1.693 122.931  0.00  0.00    +0.000 OA
ATOM     24  H   UNL     1     -10.528  -1.146 123.513  0.00  0.00    +0.000 HD
ENDBRANCH  19  23
BRANCH  20  25
ATOM     25  O   UNL     1      -7.372  -1.837 122.128  0.00  0.00    +0.000 OA
ATOM     26  H   UNL     1      -6.808  -1.087 122.398  0.00  0.00    +0.000 HD
ENDBRANCH  20  25
ENDBRANCH  16  17
ENDBRANCH   2  16
TORSDOF 9
ENDMDL
MODEL 2
REMARK VINA RESULT:      -6.4      2.826      4.526
REMARK  Name = Masoprocol
REMARK  11 active torsions:
REMARK  status: ('A' for Active; 'I' for Inactive)
REMARK    1  A    between atoms: C_1  and  C_2
REMARK    2  A    between atoms: C_2  and  C_3
REMARK    3  A    between atoms: C_2  and  C_12
REMARK    4  A    between atoms: C_3  and  C_4
REMARK    5  A    between atoms: C_6  and  O_7
REMARK    6  A    between atoms: C_8  and  O_9
REMARK    7  A    between atoms: C_12  and  C_13
REMARK    8  A    between atoms: C_12  and  C_14
REMARK    9  A    between atoms: C_14  and  C_15
REMARK   10  A    between atoms: C_17  and  O_18
REMARK   11  A    between atoms: C_19  and  O_20
REMARK                            x       y       z     vdW  Elec       q    Type
REMARK                         _______ _______ _______ _____ _____    ______ ____
ROOT
ATOM      1  C   UNL     1      -9.302  -3.200 123.456  0.00  0.00    +0.000 C 
ATOM      2  C   UNL     1      -8.323  -2.399 124.338  0.00  0.00    +0.000 C 
ENDROOT
BRANCH   2   3
ATOM      3  C   UNL     1      -7.445  -1.365 123.522  0.00  0.00    +0.000 C 
ATOM      4  C   UNL     1      -6.543  -1.973 122.464  0.00  0.00    +0.000 C 
BRANCH   3   5
ATOM      5  C   UNL     1      -6.566  -0.457 124.406  0.00  0.00    +0.000 C 
BRANCH   5   6
ATOM      6  C   UNL     1      -7.091   0.949 124.577  0.00  0.00    +0.000 A 
ATOM      7  C   UNL     1      -7.491   1.733 123.480  0.00  0.00    +0.000 A 
ATOM      8  C   UNL     1      -8.086   2.967 123.688  0.00  0.00    +0.000 A 
ATOM      9  C   UNL     1      -8.226   3.458 124.973  0.00  0.00    +0.000 A 
ATOM     10  C   UNL     1      -7.804   2.721 126.073  0.00  0.00    +0.000 A 
ATOM     11  C   UNL     1      -7.243   1.457 125.872  0.00  0.00    +0.000 A 
BRANCH   8  12
ATOM     12  O   UNL     1      -8.556   3.708 122.637  0.00  0.00    +0.000 OA
ATOM     13  H   UNL     1      -9.462   3.414 122.441  0.00  0.00    +0.000 HD
ENDBRANCH   8  12
BRANCH   9  14
ATOM     14  O   UNL     1      -8.791   4.685 125.173  0.00  0.00    +0.000 OA
ATOM     15  H   UNL     1      -8.059   5.314 125.015  0.00  0.00    +0.000 HD
ENDBRANCH   9  14
ENDBRANCH   5   6
ENDBRANCH   3   5
ENDBRANCH   2   3
BRANCH   2  16
ATOM     16  C   UNL     1      -9.011  -1.850 125.633  0.00  0.00    +0.000 C 
BRANCH  16  17
ATOM     17  C   UNL     1      -8.411  -2.325 126.947  0.00  0.00    +0.000 A 
ATOM     18  C   UNL     1      -7.606  -1.470 127.725  0.00  0.00    +0.000 A 
ATOM     19  C   UNL     1      -7.386  -1.771 129.070  0.00  0.00    +0.000 A 
ATOM     20  C   UNL     1      -7.875  -2.952 129.616  0.00  0.00    +0.000 A 
ATOM     21  C   UNL     1      -8.576  -3.852 128.835  0.00  0.00    +0.000 A 
ATOM     22  C   UNL     1      -8.808  -3.554 127.495  0.00  0.00    +0.000 A 
BRANCH  19  23
ATOM     23  O   UNL     1      -6.764  -0.889 129.914  0.00  0.00    +0.000 OA
ATOM     24  H   UNL     1      -7.347  -0.735 130.678  0.00  0.00    +0.000 HD
ENDBRANCH  19  23
BRANCH  20  25
ATOM     25  O   UNL     1      -7.688  -3.241 130.937  0.00  0.00    +0.000 OA
ATOM     26  H   UNL     1      -7.774  -4.212 130.992  0.00  0.00    +0.000 HD
ENDBRANCH  20  25
ENDBRANCH  16  17
ENDBRANCH   2  16
TORSDOF 9
ENDMDL
MODEL 3
REMARK VINA RESULT:      -6.2      1.365      4.079
REMARK  Name = Masoprocol
REMARK  11 active torsions:
REMARK  status: ('A' for Active; 'I' for Inactive)
REMARK    1  A    between atoms: C_1  and  C_2
REMARK    2  A    between atoms: C_2  and  C_3
REMARK    3  A    between atoms: C_2  and  C_12
REMARK    4  A    between atoms: C_3  and  C_4
REMARK    5  A    between atoms: C_6  and  O_7
REMARK    6  A    between atoms: C_8  and  O_9
REMARK    7  A    between atoms: C_12  and  C_13
REMARK    8  A    between atoms: C_12  and  C_14
REMARK    9  A    between atoms: C_14  and  C_15
REMARK   10  A    between atoms: C_17  and  O_18
REMARK   11  A    between atoms: C_19  and  O_20
REMARK                            x       y       z     vdW  Elec       q    Type
REMARK                         _______ _______ _______ _____ _____    ______ ____
ROOT
ATOM      1  C   UNL     1      -5.104   0.938 128.695  0.00  0.00    +0.000 C 
ATOM      2  C   UNL     1      -5.919   0.257 127.578  0.00  0.00    +0.000 C 
ENDROOT
BRANCH   2   3
ATOM      3  C   UNL     1      -5.887  -1.324 127.653  0.00  0.00    +0.000 C 
ATOM      4  C   UNL     1      -4.928  -1.906 128.675  0.00  0.00    +0.000 C 
BRANCH   3   5
ATOM      5  C   UNL     1      -5.587  -2.008 126.302  0.00  0.00    +0.000 C 
BRANCH   5   6
ATOM      6  C   UNL     1      -6.813  -2.385 125.505  0.00  0.00    +0.000 A 
ATOM      7  C   UNL     1      -8.027  -2.732 126.126  0.00  0.00    +0.000 A 
ATOM      8  C   UNL     1      -9.162  -2.946 125.360  0.00  0.00    +0.000 A 
ATOM      9  C   UNL     1      -9.086  -2.886 123.981  0.00  0.00    +0.000 A 
ATOM     10  C   UNL     1      -7.890  -2.584 123.341  0.00  0.00    +0.000 A 
ATOM     11  C   UNL     1      -6.752  -2.323 124.109  0.00  0.00    +0.000 A 
BRANCH   8  12
ATOM     12  O   UNL     1     -10.370  -3.203 125.950  0.00  0.00    +0.000 OA
ATOM     13  H   UNL     1     -10.960  -2.451 125.771  0.00  0.00    +0.000 HD
ENDBRANCH   8  12
BRANCH   9  14
ATOM     14  O   UNL     1     -10.201  -3.122 123.229  0.00  0.00    +0.000 OA
ATOM     15  H   UNL     1     -10.597  -2.238 123.102  0.00  0.00    +0.000 HD
ENDBRANCH   9  14
ENDBRANCH   5   6
ENDBRANCH   3   5
ENDBRANCH   2   3
BRANCH   2  16
ATOM     16  C   UNL     1      -7.330   0.911 127.396  0.00  0.00    +0.000 C 
BRANCH  16  17
ATOM     17  C   UNL     1      -7.845   0.974 125.967  0.00  0.00    +0.000 A 
ATOM     18  C   UNL     1      -9.222   0.867 125.688  0.00  0.00    +0.000 A 
ATOM     19  C   UNL     1      -9.708   1.299 124.454  0.00  0.00    +0.000 A 
ATOM     20  C   UNL     1      -8.833   1.744 123.469  0.00  0.00    +0.000 A 
ATOM     21  C   UNL     1      -7.468   1.754 123.692  0.00  0.00    +0.000 A 
ATOM     22  C   UNL     1      -6.977   1.332 124.925  0.00  0.00    +0.000 A 
BRANCH  19  23
ATOM     23  O   UNL     1     -11.051   1.385 124.198  0.00  0.00    +0.000 OA
ATOM     24  H   UNL     1     -11.298   0.645 123.616  0.00  0.00    +0.000 HD
ENDBRANCH  19  23
BRANCH  20  25
ATOM     25  O   UNL     1      -9.302   2.195 122.270  0.00  0.00    +0.000 OA
ATOM     26  H   UNL     1     -10.063   2.763 122.500  0.00  0.00    +0.000 HD
ENDBRANCH  20  25
ENDBRANCH  16  17
ENDBRANCH   2  16
TORSDOF 9
ENDMDL
MODEL 4
REMARK VINA RESULT:      -6.2      2.800      5.809
REMARK  Name = Masoprocol
REMARK  11 active torsions:
REMARK  status: ('A' for Active; 'I' for Inactive)
REMARK    1  A    between atoms: C_1  and  C_2
REMARK    2  A    between atoms: C_2  and  C_3
REMARK    3  A    between atoms: C_2  and  C_12
REMARK    4  A    between atoms: C_3  and  C_4
REMARK    5  A    between atoms: C_6  and  O_7
REMARK    6  A    between atoms: C_8  and  O_9
REMARK    7  A    between atoms: C_12  and  C_13
REMARK    8  A    between atoms: C_12  and  C_14
REMARK    9  A    between atoms: C_14  and  C_15
REMARK   10  A    between atoms: C_17  and  O_18
REMARK   11  A    between atoms: C_19  and  O_20
REMARK                            x       y       z     vdW  Elec       q    Type
REMARK                         _______ _______ _______ _____ _____    ______ ____
ROOT
ATOM      1  C   UNL     1      -6.078  -2.116 122.688  0.00  0.00    +0.000 C 
ATOM      2  C   UNL     1      -7.011  -1.352 123.647  0.00  0.00    +0.000 C 
ENDROOT
BRANCH   2   3
ATOM      3  C   UNL     1      -8.141  -2.262 124.282  0.00  0.00    +0.000 C 
ATOM      4  C   UNL     1      -9.179  -2.784 123.306  0.00  0.00    +0.000 C 
BRANCH   3   5
ATOM      5  C   UNL     1      -8.902  -1.593 125.446  0.00  0.00    +0.000 C 
BRANCH   5   6
ATOM      6  C   UNL     1      -8.490  -2.068 126.819  0.00  0.00    +0.000 A 
ATOM      7  C   UNL     1      -7.820  -1.229 127.728  0.00  0.00    +0.000 A 
ATOM      8  C   UNL     1      -7.574  -1.663 129.021  0.00  0.00    +0.000 A 
ATOM      9  C   UNL     1      -7.926  -2.945 129.398  0.00  0.00    +0.000 A 
ATOM     10  C   UNL     1      -8.553  -3.808 128.508  0.00  0.00    +0.000 A 
ATOM     11  C   UNL     1      -8.844  -3.363 127.216  0.00  0.00    +0.000 A 
BRANCH   8  12
ATOM     12  O   UNL     1      -6.999  -0.831 129.944  0.00  0.00    +0.000 OA
ATOM     13  H   UNL     1      -7.709  -0.420 130.465  0.00  0.00    +0.000 HD
ENDBRANCH   8  12
BRANCH   9  14
ATOM     14  O   UNL     1      -7.660  -3.377 130.667  0.00  0.00    +0.000 OA
ATOM     15  H   UNL     1      -7.140  -4.194 130.537  0.00  0.00    +0.000 HD
ENDBRANCH   9  14
ENDBRANCH   5   6
ENDBRANCH   3   5
ENDBRANCH   2   3
BRANCH   2  16
ATOM     16  C   UNL     1      -6.216  -0.443 124.644  0.00  0.00    +0.000 C 
BRANCH  16  17
ATOM     17  C   UNL     1      -6.642   1.016 124.684  0.00  0.00    +0.000 A 
ATOM     18  C   UNL     1      -7.246   1.625 123.566  0.00  0.00    +0.000 A 
ATOM     19  C   UNL     1      -7.962   2.811 123.733  0.00  0.00    +0.000 A 
ATOM     20  C   UNL     1      -8.003   3.439 124.972  0.00  0.00    +0.000 A 
ATOM     21  C   UNL     1      -7.326   2.909 126.055  0.00  0.00    +0.000 A 
ATOM     22  C   UNL     1      -6.616   1.720 125.897  0.00  0.00    +0.000 A 
BRANCH  19  23
ATOM     23  O   UNL     1      -8.714   3.347 122.721  0.00  0.00    +0.000 OA
ATOM     24  H   UNL     1      -9.605   3.528 123.067  0.00  0.00    +0.000 HD
ENDBRANCH  19  23
BRANCH  20  25
ATOM     25  O   UNL     1      -8.724   4.584 125.151  0.00  0.00    +0.000 OA
ATOM     26  H   UNL     1      -9.226   4.693 124.320  0.00  0.00    +0.000 HD
ENDBRANCH  20  25
ENDBRANCH  16  17
ENDBRANCH   2  16
TORSDOF 9
ENDMDL
MODEL 5
REMARK VINA RESULT:      -6.1      3.436      4.995
REMARK  Name = Masoprocol
REMARK  11 active torsions:
REMARK  status: ('A' for Active; 'I' for Inactive)
REMARK    1  A    between atoms: C_1  and  C_2
REMARK    2  A    between atoms: C_2  and  C_3
REMARK    3  A    between atoms: C_2  and  C_12
REMARK    4  A    between atoms: C_3  and  C_4
REMARK    5  A    between atoms: C_6  and  O_7
REMARK    6  A    between atoms: C_8  and  O_9
REMARK    7  A    between atoms: C_12  and  C_13
REMARK    8  A    between atoms: C_12  and  C_14
REMARK    9  A    between atoms: C_14  and  C_15
REMARK   10  A    between atoms: C_17  and  O_18
REMARK   11  A    between atoms: C_19  and  O_20
REMARK                            x       y       z     vdW  Elec       q    Type
REMARK                         _______ _______ _______ _____ _____    ______ ____
ROOT
ATOM      1  C   UNL     1      -9.266  -3.959 127.899  0.00  0.00    +0.000 C 
ATOM      2  C   UNL     1      -8.041  -3.237 127.304  0.00  0.00    +0.000 C 
ENDROOT
BRANCH   2   3
ATOM      3  C   UNL     1      -8.323  -2.583 125.890  0.00  0.00    +0.000 C 
ATOM      4  C   UNL     1      -8.564  -3.564 124.757  0.00  0.00    +0.000 C 
BRANCH   3   5
ATOM      5  C   UNL     1      -7.225  -1.605 125.423  0.00  0.00    +0.000 C 
BRANCH   5   6
ATOM      6  C   UNL     1      -7.693  -0.182 125.232  0.00  0.00    +0.000 A 
ATOM      7  C   UNL     1      -8.990   0.121 124.777  0.00  0.00    +0.000 A 
ATOM      8  C   UNL     1      -9.422   1.438 124.738  0.00  0.00    +0.000 A 
ATOM      9  C   UNL     1      -8.557   2.459 125.083  0.00  0.00    +0.000 A 
ATOM     10  C   UNL     1      -7.258   2.190 125.498  0.00  0.00    +0.000 A 
ATOM     11  C   UNL     1      -6.830   0.862 125.582  0.00  0.00    +0.000 A 
BRANCH   8  12
ATOM     12  O   UNL     1     -10.706   1.745 124.377  0.00  0.00    +0.000 OA
ATOM     13  H   UNL     1     -11.304   1.395 125.058  0.00  0.00    +0.000 HD
ENDBRANCH   8  12
BRANCH   9  14
ATOM     14  O   UNL     1      -8.979   3.756 125.019  0.00  0.00    +0.000 OA
ATOM     15  H   UNL     1      -8.936   4.067 125.944  0.00  0.00    +0.000 HD
ENDBRANCH   9  14
ENDBRANCH   5   6
ENDBRANCH   3   5
ENDBRANCH   2   3
BRANCH   2  16
ATOM     16  C   UNL     1      -7.325  -2.325 128.356  0.00  0.00    +0.000 C 
BRANCH  16  17
ATOM     17  C   UNL     1      -6.149  -2.958 129.082  0.00  0.00    +0.000 A 
ATOM     18  C   UNL     1      -4.830  -2.529 128.833  0.00  0.00    +0.000 A 
ATOM     19  C   UNL     1      -3.825  -2.833 129.752  0.00  0.00    +0.000 A 
ATOM     20  C   UNL     1      -4.099  -3.633 130.856  0.00  0.00    +0.000 A 
ATOM     21  C   UNL     1      -5.366  -4.150 131.055  0.00  0.00    +0.000 A 
ATOM     22  C   UNL     1      -6.376  -3.842 130.146  0.00  0.00    +0.000 A 
BRANCH  19  23
ATOM     23  O   UNL     1      -2.570  -2.293 129.653  0.00  0.00    +0.000 OA
ATOM     24  H   UNL     1      -2.478  -1.608 130.338  0.00  0.00    +0.000 HD
ENDBRANCH  19  23
BRANCH  20  25
ATOM     25  O   UNL     1      -3.129  -3.912 131.774  0.00  0.00    +0.000 OA
ATOM     26  H   UNL     1      -3.615  -4.073 132.606  0.00  0.00    +0.000 HD
ENDBRANCH  20  25
ENDBRANCH  16  17
ENDBRANCH   2  16
TORSDOF 9
ENDMDL
MODEL 6
REMARK VINA RESULT:      -6.1      8.169     10.435
REMARK  Name = Masoprocol
REMARK  11 active torsions:
REMARK  status: ('A' for Active; 'I' for Inactive)
REMARK    1  A    between atoms: C_1  and  C_2
REMARK    2  A    between atoms: C_2  and  C_3
REMARK    3  A    between atoms: C_2  and  C_12
REMARK    4  A    between atoms: C_3  and  C_4
REMARK    5  A    between atoms: C_6  and  O_7
REMARK    6  A    between atoms: C_8  and  O_9
REMARK    7  A    between atoms: C_12  and  C_13
REMARK    8  A    between atoms: C_12  and  C_14
REMARK    9  A    between atoms: C_14  and  C_15
REMARK   10  A    between atoms: C_17  and  O_18
REMARK   11  A    between atoms: C_19  and  O_20
REMARK                            x       y       z     vdW  Elec       q    Type
REMARK                         _______ _______ _______ _____ _____    ______ ____
ROOT
ATOM      1  C   UNL     1      -9.199   2.425 130.817  0.00  0.00    +0.000 C 
ATOM      2  C   UNL     1      -9.392   3.912 131.174  0.00  0.00    +0.000 C 
ENDROOT
BRANCH   2   3
ATOM      3  C   UNL     1      -8.569   4.364 132.448  0.00  0.00    +0.000 C 
ATOM      4  C   UNL     1      -9.190   4.002 133.784  0.00  0.00    +0.000 C 
BRANCH   3   5
ATOM      5  C   UNL     1      -8.251   5.874 132.484  0.00  0.00    +0.000 C 
BRANCH   5   6
ATOM      6  C   UNL     1      -6.820   6.221 132.149  0.00  0.00    +0.000 A 
ATOM      7  C   UNL     1      -6.480   6.937 130.987  0.00  0.00    +0.000 A 
ATOM      8  C   UNL     1      -5.171   7.345 130.782  0.00  0.00    +0.000 A 
ATOM      9  C   UNL     1      -4.187   6.992 131.686  0.00  0.00    +0.000 A 
ATOM     10  C   UNL     1      -4.490   6.251 132.822  0.00  0.00    +0.000 A 
ATOM     11  C   UNL     1      -5.814   5.873 133.058  0.00  0.00    +0.000 A 
BRANCH   8  12
ATOM     12  O   UNL     1      -4.836   8.113 129.699  0.00  0.00    +0.000 OA
ATOM     13  H   UNL     1      -4.453   8.945 130.025  0.00  0.00    +0.000 HD
ENDBRANCH   8  12
BRANCH   9  14
ATOM     14  O   UNL     1      -2.895   7.375 131.468  0.00  0.00    +0.000 OA
ATOM     15  H   UNL     1      -2.608   7.748 132.324  0.00  0.00    +0.000 HD
ENDBRANCH   9  14
ENDBRANCH   5   6
ENDBRANCH   3   5
ENDBRANCH   2   3
BRANCH   2  16
ATOM     16  C   UNL     1      -9.282   4.839 129.916  0.00  0.00    +0.000 C 
BRANCH  16  17
ATOM     17  C   UNL     1     -10.393   5.865 129.758  0.00  0.00    +0.000 A 
ATOM     18  C   UNL     1     -11.496   5.878 130.636  0.00  0.00    +0.000 A 
ATOM     19  C   UNL     1     -12.289   7.023 130.723  0.00  0.00    +0.000 A 
ATOM     20  C   UNL     1     -12.054   8.107 129.885  0.00  0.00    +0.000 A 
ATOM     21  C   UNL     1     -11.041   8.066 128.945  0.00  0.00    +0.000 A 
ATOM     22  C   UNL     1     -10.240   6.930 128.859  0.00  0.00    +0.000 A 
BRANCH  19  23
ATOM     23  O   UNL     1     -13.259   7.157 131.681  0.00  0.00    +0.000 OA
ATOM     24  H   UNL     1     -12.978   7.848 132.305  0.00  0.00    +0.000 HD
ENDBRANCH  19  23
BRANCH  20  25
ATOM     25  O   UNL     1     -12.807   9.241 129.984  0.00  0.00    +0.000 OA
ATOM     26  H   UNL     1     -13.667   8.938 130.335  0.00  0.00    +0.000 HD
ENDBRANCH  20  25
ENDBRANCH  16  17
ENDBRANCH   2  16
TORSDOF 9
ENDMDL
MODEL 7
REMARK VINA RESULT:      -6.0      0.420      3.753
REMARK  Name = Masoprocol
REMARK  11 active torsions:
REMARK  status: ('A' for Active; 'I' for Inactive)
REMARK    1  A    between atoms: C_1  and  C_2
REMARK    2  A    between atoms: C_2  and  C_3
REMARK    3  A    between atoms: C_2  and  C_12
REMARK    4  A    between atoms: C_3  and  C_4
REMARK    5  A    between atoms: C_6  and  O_7
REMARK    6  A    between atoms: C_8  and  O_9
REMARK    7  A    between atoms: C_12  and  C_13
REMARK    8  A    between atoms: C_12  and  C_14
REMARK    9  A    between atoms: C_14  and  C_15
REMARK   10  A    between atoms: C_17  and  O_18
REMARK   11  A    between atoms: C_19  and  O_20
REMARK                            x       y       z     vdW  Elec       q    Type
REMARK                         _______ _______ _______ _____ _____    ______ ____
ROOT
ATOM      1  C   UNL     1      -5.694  -0.895 128.265  0.00  0.00    +0.000 C 
ATOM      2  C   UNL     1      -7.101  -1.165 127.698  0.00  0.00    +0.000 C 
ENDROOT
BRANCH   2   3
ATOM      3  C   UNL     1      -7.861  -2.342 128.438  0.00  0.00    +0.000 C 
ATOM      4  C   UNL     1      -7.067  -3.045 129.523  0.00  0.00    +0.000 C 
BRANCH   3   5
ATOM      5  C   UNL     1      -8.403  -3.431 127.488  0.00  0.00    +0.000 C 
BRANCH   5   6
ATOM      6  C   UNL     1      -8.196  -3.141 126.021  0.00  0.00    +0.000 A 
ATOM      7  C   UNL     1      -9.273  -2.880 125.154  0.00  0.00    +0.000 A 
ATOM      8  C   UNL     1      -9.032  -2.493 123.845  0.00  0.00    +0.000 A 
ATOM      9  C   UNL     1      -7.735  -2.429 123.371  0.00  0.00    +0.000 A 
ATOM     10  C   UNL     1      -6.655  -2.719 124.195  0.00  0.00    +0.000 A 
ATOM     11  C   UNL     1      -6.888  -3.067 125.528  0.00  0.00    +0.000 A 
BRANCH   8  12
ATOM     12  O   UNL     1     -10.064  -2.155 123.011  0.00  0.00    +0.000 OA
ATOM     13  H   UNL     1     -10.888  -2.502 123.393  0.00  0.00    +0.000 HD
ENDBRANCH   8  12
BRANCH   9  14
ATOM     14  O   UNL     1      -7.504  -2.071 122.073  0.00  0.00    +0.000 OA
ATOM     15  H   UNL     1      -8.198  -1.411 121.880  0.00  0.00    +0.000 HD
ENDBRANCH   9  14
ENDBRANCH   5   6
ENDBRANCH   3   5
ENDBRANCH   2   3
BRANCH   2  16
ATOM     16  C   UNL     1      -7.915   0.155 127.486  0.00  0.00    +0.000 C 
BRANCH  16  17
ATOM     17  C   UNL     1      -8.288   0.473 126.046  0.00  0.00    +0.000 A 
ATOM     18  C   UNL     1      -9.637   0.582 125.656  0.00  0.00    +0.000 A 
ATOM     19  C   UNL     1      -9.956   1.233 124.463  0.00  0.00    +0.000 A 
ATOM     20  C   UNL     1      -8.949   1.686 123.619  0.00  0.00    +0.000 A 
ATOM     21  C   UNL     1      -7.618   1.491 123.939  0.00  0.00    +0.000 A 
ATOM     22  C   UNL     1      -7.293   0.850 125.132  0.00  0.00    +0.000 A 
BRANCH  19  23
ATOM     23  O   UNL     1     -11.251   1.524 124.124  0.00  0.00    +0.000 OA
ATOM     24  H   UNL     1     -11.338   1.447 123.158  0.00  0.00    +0.000 HD
ENDBRANCH  19  23
BRANCH  20  25
ATOM     25  O   UNL     1      -9.252   2.349 122.465  0.00  0.00    +0.000 OA
ATOM     26  H   UNL     1      -8.452   2.261 121.911  0.00  0.00    +0.000 HD
ENDBRANCH  20  25
ENDBRANCH  16  17
ENDBRANCH   2  16
TORSDOF 9
ENDMDL
MODEL 8
REMARK VINA RESULT:      -5.9      4.404      6.668
REMARK  Name = Masoprocol
REMARK  11 active torsions:
REMARK  status: ('A' for Active; 'I' for Inactive)
REMARK    1  A    between atoms: C_1  and  C_2
REMARK    2  A    between atoms: C_2  and  C_3
REMARK    3  A    between atoms: C_2  and  C_12
REMARK    4  A    between atoms: C_3  and  C_4
REMARK    5  A    between atoms: C_6  and  O_7
REMARK    6  A    between atoms: C_8  and  O_9
REMARK    7  A    between atoms: C_12  and  C_13
REMARK    8  A    between atoms: C_12  and  C_14
REMARK    9  A    between atoms: C_14  and  C_15
REMARK   10  A    between atoms: C_17  and  O_18
REMARK   11  A    between atoms: C_19  and  O_20
REMARK                            x       y       z     vdW  Elec       q    Type
REMARK                         _______ _______ _______ _____ _____    ______ ____
ROOT
ATOM      1  C   UNL     1      -4.515  -2.830 128.697  0.00  0.00    +0.000 C 
ATOM      2  C   UNL     1      -5.825  -2.665 129.491  0.00  0.00    +0.000 C 
ENDROOT
BRANCH   2   3
ATOM      3  C   UNL     1      -6.950  -1.886 128.693  0.00  0.00    +0.000 C 
ATOM      4  C   UNL     1      -7.738  -0.874 129.504  0.00  0.00    +0.000 C 
BRANCH   3   5
ATOM      5  C   UNL     1      -7.971  -2.807 127.993  0.00  0.00    +0.000 C 
BRANCH   5   6
ATOM      6  C   UNL     1      -7.969  -2.712 126.486  0.00  0.00    +0.000 A 
ATOM      7  C   UNL     1      -9.029  -3.208 125.706  0.00  0.00    +0.000 A 
ATOM      8  C   UNL     1      -9.048  -2.987 124.338  0.00  0.00    +0.000 A 
ATOM      9  C   UNL     1      -7.991  -2.337 123.729  0.00  0.00    +0.000 A 
ATOM     10  C   UNL     1      -6.912  -1.872 124.470  0.00  0.00    +0.000 A 
ATOM     11  C   UNL     1      -6.907  -2.052 125.856  0.00  0.00    +0.000 A 
BRANCH   8  12
ATOM     12  O   UNL     1     -10.111  -3.390 123.575  0.00  0.00    +0.000 OA
ATOM     13  H   UNL     1     -10.877  -2.838 123.808  0.00  0.00    +0.000 HD
ENDBRANCH   8  12
BRANCH   9  14
ATOM     14  O   UNL     1      -8.002  -2.143 122.377  0.00  0.00    +0.000 OA
ATOM     15  H   UNL     1      -7.057  -2.089 122.136  0.00  0.00    +0.000 HD
ENDBRANCH   9  14
ENDBRANCH   5   6
ENDBRANCH   3   5
ENDBRANCH   2   3
BRANCH   2  16
ATOM     16  C   UNL     1      -6.268  -3.998 130.183  0.00  0.00    +0.000 C 
BRANCH  16  17
ATOM     17  C   UNL     1      -6.347  -3.956 131.700  0.00  0.00    +0.000 A 
ATOM     18  C   UNL     1      -7.318  -3.170 132.352  0.00  0.00    +0.000 A 
ATOM     19  C   UNL     1      -7.626  -3.428 133.688  0.00  0.00    +0.000 A 
ATOM     20  C   UNL     1      -6.916  -4.387 134.401  0.00  0.00    +0.000 A 
ATOM     21  C   UNL     1      -5.888  -5.092 133.804  0.00  0.00    +0.000 A 
ATOM     22  C   UNL     1      -5.582  -4.846 132.467  0.00  0.00    +0.000 A 
BRANCH  19  23
ATOM     23  O   UNL     1      -8.680  -2.818 134.316  0.00  0.00    +0.000 OA
ATOM     24  H   UNL     1      -8.683  -1.879 134.065  0.00  0.00    +0.000 HD
ENDBRANCH  19  23
BRANCH  20  25
ATOM     25  O   UNL     1      -7.230  -4.665 135.700  0.00  0.00    +0.000 OA
ATOM     26  H   UNL     1      -6.542  -4.210 136.224  0.00  0.00    +0.000 HD
ENDBRANCH  20  25
ENDBRANCH  16  17
ENDBRANCH   2  16
TORSDOF 9
ENDMDL
MODEL 9
REMARK VINA RESULT:      -5.9      1.792      3.450
REMARK  Name = Masoprocol
REMARK  11 active torsions:
REMARK  status: ('A' for Active; 'I' for Inactive)
REMARK    1  A    between atoms: C_1  and  C_2
REMARK    2  A    between atoms: C_2  and  C_3
REMARK    3  A    between atoms: C_2  and  C_12
REMARK    4  A    between atoms: C_3  and  C_4
REMARK    5  A    between atoms: C_6  and  O_7
REMARK    6  A    between atoms: C_8  and  O_9
REMARK    7  A    between atoms: C_12  and  C_13
REMARK    8  A    between atoms: C_12  and  C_14
REMARK    9  A    between atoms: C_14  and  C_15
REMARK   10  A    between atoms: C_17  and  O_18
REMARK   11  A    between atoms: C_19  and  O_20
REMARK                            x       y       z     vdW  Elec       q    Type
REMARK                         _______ _______ _______ _____ _____    ______ ____
ROOT
ATOM      1  C   UNL     1      -4.920  -2.871 129.526  0.00  0.00    +0.000 C 
ATOM      2  C   UNL     1      -5.963  -2.512 128.449  0.00  0.00    +0.000 C 
ENDROOT
BRANCH   2   3
ATOM      3  C   UNL     1      -7.458  -2.650 128.952  0.00  0.00    +0.000 C 
ATOM      4  C   UNL     1      -7.619  -3.026 130.413  0.00  0.00    +0.000 C 
BRANCH   3   5
ATOM      5  C   UNL     1      -8.305  -3.642 128.128  0.00  0.00    +0.000 C 
BRANCH   5   6
ATOM      6  C   UNL     1      -8.713  -3.136 126.765  0.00  0.00    +0.000 A 
ATOM      7  C   UNL     1      -9.144  -1.813 126.560  0.00  0.00    +0.000 A 
ATOM      8  C   UNL     1      -9.387  -1.352 125.275  0.00  0.00    +0.000 A 
ATOM      9  C   UNL     1      -9.269  -2.212 124.200  0.00  0.00    +0.000 A 
ATOM     10  C   UNL     1      -8.883  -3.535 124.378  0.00  0.00    +0.000 A 
ATOM     11  C   UNL     1      -8.594  -3.994 125.666  0.00  0.00    +0.000 A 
BRANCH   8  12
ATOM     12  O   UNL     1      -9.727  -0.045 125.050  0.00  0.00    +0.000 OA
ATOM     13  H   UNL     1      -8.913   0.486 125.066  0.00  0.00    +0.000 HD
ENDBRANCH   8  12
BRANCH   9  14
ATOM     14  O   UNL     1      -9.533  -1.761 122.938  0.00  0.00    +0.000 OA
ATOM     15  H   UNL     1      -8.653  -1.540 122.575  0.00  0.00    +0.000 HD
ENDBRANCH   9  14
ENDBRANCH   5   6
ENDBRANCH   3   5
ENDBRANCH   2   3
BRANCH   2  16
ATOM     16  C   UNL     1      -5.606  -1.182 127.703  0.00  0.00    +0.000 C 
BRANCH  16  17
ATOM     17  C   UNL     1      -5.523  -1.281 126.188  0.00  0.00    +0.000 A 
ATOM     18  C   UNL     1      -5.166  -2.492 125.561  0.00  0.00    +0.000 A 
ATOM     19  C   UNL     1      -5.459  -2.677 124.209  0.00  0.00    +0.000 A 
ATOM     20  C   UNL     1      -6.011  -1.643 123.461  0.00  0.00    +0.000 A 
ATOM     21  C   UNL     1      -6.268  -0.413 124.039  0.00  0.00    +0.000 A 
ATOM     22  C   UNL     1      -5.986  -0.225 125.390  0.00  0.00    +0.000 A 
BRANCH  19  23
ATOM     23  O   UNL     1      -5.298  -3.891 123.596  0.00  0.00    +0.000 OA
ATOM     24  H   UNL     1      -6.131  -4.119 123.149  0.00  0.00    +0.000 HD
ENDBRANCH  19  23
BRANCH  20  25
ATOM     25  O   UNL     1      -6.326  -1.824 122.146  0.00  0.00    +0.000 OA
ATOM     26  H   UNL     1      -5.593  -2.361 121.787  0.00  0.00    +0.000 HD
ENDBRANCH  20  25
ENDBRANCH  16  17
ENDBRANCH   2  16
TORSDOF 9
ENDMDL
