MODEL 1
REMARK VINA RESULT:      -7.9      0.000      0.000
REMARK  Name = Mavacamten
REMARK  7 active torsions:
REMARK  status: ('A' for Active; 'I' for Inactive)
REMARK    1  A    between atoms: C_1  and  C_2
REMARK    2  A    between atoms: C_2  and  C_3
REMARK    3  A    between atoms: C_2  and  N_4
REMARK    4  A    between atoms: C_8  and  N_9
REMARK    5  A    between atoms: N_9  and  C_10
REMARK    6  A    between atoms: C_10  and  C_11
REMARK    7  A    between atoms: C_10  and  C_12
REMARK                            x       y       z     vdW  Elec       q    Type
REMARK                         _______ _______ _______ _____ _____    ______ ____
ROOT
ATOM      1  N   UNL     1     -11.293   7.377 130.208  0.00  0.00    +0.000 N 
ATOM      2  C   UNL     1     -12.181   6.861 131.144  0.00  0.00    +0.000 A 
ATOM      3  O   UNL     1     -13.399   7.019 131.116  0.00  0.00    +0.000 OA
ATOM      4  N   UNL     1     -11.619   6.140 132.169  0.00  0.00    +0.000 N 
ATOM      5  C   UNL     1     -10.295   5.869 132.298  0.00  0.00    +0.000 A 
ATOM      6  C   UNL     1      -9.469   6.321 131.353  0.00  0.00    +0.000 A 
ATOM      7  C   UNL     1      -9.933   7.204 130.311  0.00  0.00    +0.000 A 
ATOM      8  O   UNL     1      -9.058   7.740 129.626  0.00  0.00    +0.000 OA
ATOM      9  H   UNL     1     -12.276   5.780 132.850  0.00  0.00    +0.000 HD
ENDROOT
BRANCH   1  11
ATOM     10  C   UNL     1     -12.417   7.482 128.028  0.00  0.00    +0.000 C 
ATOM     11  C   UNL     1     -11.784   8.281 129.169  0.00  0.00    +0.000 C 
ATOM     12  C   UNL     1     -12.767   9.315 129.732  0.00  0.00    +0.000 C 
ENDBRANCH   1  11
BRANCH   5  13
ATOM     13  N   UNL     1      -9.823   5.164 133.369  0.00  0.00    +0.000 N 
ATOM     14  H   UNL     1     -10.425   5.175 134.177  0.00  0.00    +0.000 HD
BRANCH  13  15
ATOM     15  C   UNL     1      -8.515   4.514 133.468  0.00  0.00    +0.000 C 
ATOM     16  C   UNL     1      -7.942   4.662 134.899  0.00  0.00    +0.000 C 
BRANCH  15  17
ATOM     17  C   UNL     1      -8.551   3.034 133.124  0.00  0.00    +0.000 A 
ATOM     18  C   UNL     1      -7.471   2.166 133.330  0.00  0.00    +0.000 A 
ATOM     19  C   UNL     1      -7.444   0.913 132.730  0.00  0.00    +0.000 A 
ATOM     20  C   UNL     1      -8.552   0.451 132.033  0.00  0.00    +0.000 A 
ATOM     21  C   UNL     1      -9.701   1.233 131.960  0.00  0.00    +0.000 A 
ATOM     22  C   UNL     1      -9.687   2.531 132.464  0.00  0.00    +0.000 A 
ENDBRANCH  15  17
ENDBRANCH  13  15
ENDBRANCH   5  13
TORSDOF 4
ENDMDL
MODEL 2
REMARK VINA RESULT:      -7.5      1.042      2.153
REMARK  Name = Mavacamten
REMARK  7 active torsions:
REMARK  status: ('A' for Active; 'I' for Inactive)
REMARK    1  A    between atoms: C_1  and  C_2
REMARK    2  A    between atoms: C_2  and  C_3
REMARK    3  A    between atoms: C_2  and  N_4
REMARK    4  A    between atoms: C_8  and  N_9
REMARK    5  A    between atoms: N_9  and  C_10
REMARK    6  A    between atoms: C_10  and  C_11
REMARK    7  A    between atoms: C_10  and  C_12
REMARK                            x       y       z     vdW  Elec       q    Type
REMARK                         _______ _______ _______ _____ _____    ______ ____
ROOT
ATOM      1  N   UNL     1     -11.533   7.589 130.038  0.00  0.00    +0.000 N 
ATOM      2  C   UNL     1     -10.175   7.296 130.009  0.00  0.00    +0.000 A 
ATOM      3  O   UNL     1      -9.401   7.645 129.120  0.00  0.00    +0.000 OA
ATOM      4  N   UNL     1      -9.700   6.550 131.060  0.00  0.00    +0.000 N 
ATOM      5  C   UNL     1     -10.442   6.129 132.116  0.00  0.00    +0.000 A 
ATOM      6  C   UNL     1     -11.730   6.476 132.153  0.00  0.00    +0.000 A 
ATOM      7  C   UNL     1     -12.361   7.137 131.038  0.00  0.00    +0.000 A 
ATOM      8  O   UNL     1     -13.592   7.212 131.078  0.00  0.00    +0.000 OA
ATOM      9  H   UNL     1      -8.712   6.334 131.020  0.00  0.00    +0.000 HD
ENDROOT
BRANCH   1  11
ATOM     10  C   UNL     1     -13.049   7.262 128.135  0.00  0.00    +0.000 C 
ATOM     11  C   UNL     1     -12.154   8.247 128.890  0.00  0.00    +0.000 C 
ATOM     12  C   UNL     1     -12.937   9.499 129.305  0.00  0.00    +0.000 C 
ENDBRANCH   1  11
BRANCH   5  13
ATOM     13  N   UNL     1      -9.888   5.365 133.104  0.00  0.00    +0.000 N 
ATOM     14  H   UNL     1     -10.355   5.426 133.993  0.00  0.00    +0.000 HD
BRANCH  13  15
ATOM     15  C   UNL     1      -8.654   4.584 133.003  0.00  0.00    +0.000 C 
ATOM     16  C   UNL     1      -8.159   4.167 134.409  0.00  0.00    +0.000 C 
BRANCH  15  17
ATOM     17  C   UNL     1      -8.804   3.327 132.163  0.00  0.00    +0.000 A 
ATOM     18  C   UNL     1      -9.604   2.239 132.535  0.00  0.00    +0.000 A 
ATOM     19  C   UNL     1      -9.473   1.011 131.897  0.00  0.00    +0.000 A 
ATOM     20  C   UNL     1      -8.646   0.887 130.788  0.00  0.00    +0.000 A 
ATOM     21  C   UNL     1      -7.971   2.001 130.299  0.00  0.00    +0.000 A 
ATOM     22  C   UNL     1      -8.014   3.200 131.005  0.00  0.00    +0.000 A 
ENDBRANCH  15  17
ENDBRANCH  13  15
ENDBRANCH   5  13
TORSDOF 4
ENDMDL
MODEL 3
REMARK VINA RESULT:      -7.5      1.092      2.243
REMARK  Name = Mavacamten
REMARK  7 active torsions:
REMARK  status: ('A' for Active; 'I' for Inactive)
REMARK    1  A    between atoms: C_1  and  C_2
REMARK    2  A    between atoms: C_2  and  C_3
REMARK    3  A    between atoms: C_2  and  N_4
REMARK    4  A    between atoms: C_8  and  N_9
REMARK    5  A    between atoms: N_9  and  C_10
REMARK    6  A    between atoms: C_10  and  C_11
REMARK    7  A    between atoms: C_10  and  C_12
REMARK                            x       y       z     vdW  Elec       q    Type
REMARK                         _______ _______ _______ _____ _____    ______ ____
ROOT
ATOM      1  N   UNL     1     -11.493   7.404 130.124  0.00  0.00    +0.000 N 
ATOM      2  C   UNL     1     -12.230   6.928 131.201  0.00  0.00    +0.000 A 
ATOM      3  O   UNL     1     -13.450   7.026 131.314  0.00  0.00    +0.000 OA
ATOM      4  N   UNL     1     -11.509   6.319 132.199  0.00  0.00    +0.000 N 
ATOM      5  C   UNL     1     -10.166   6.121 132.182  0.00  0.00    +0.000 A 
ATOM      6  C   UNL     1      -9.487   6.531 131.109  0.00  0.00    +0.000 A 
ATOM      7  C   UNL     1     -10.123   7.303 130.070  0.00  0.00    +0.000 A 
ATOM      8  O   UNL     1      -9.369   7.821 129.241  0.00  0.00    +0.000 OA
ATOM      9  H   UNL     1     -12.057   5.987 132.983  0.00  0.00    +0.000 HD
ENDROOT
BRANCH   1  11
ATOM     10  C   UNL     1     -13.135   7.324 128.302  0.00  0.00    +0.000 C 
ATOM     11  C   UNL     1     -12.155   8.196 129.090  0.00  0.00    +0.000 C 
ATOM     12  C   UNL     1     -12.860   9.426 129.677  0.00  0.00    +0.000 C 
ENDBRANCH   1  11
BRANCH   5  13
ATOM     13  N   UNL     1      -9.529   5.530 133.236  0.00  0.00    +0.000 N 
ATOM     14  H   UNL     1      -9.117   6.173 133.892  0.00  0.00    +0.000 HD
BRANCH  13  15
ATOM     15  C   UNL     1      -9.313   4.093 133.419  0.00  0.00    +0.000 C 
ATOM     16  C   UNL     1      -9.293   3.368 132.052  0.00  0.00    +0.000 C 
BRANCH  15  17
ATOM     17  C   UNL     1      -8.018   3.768 134.146  0.00  0.00    +0.000 A 
ATOM     18  C   UNL     1      -7.384   4.650 135.029  0.00  0.00    +0.000 A 
ATOM     19  C   UNL     1      -6.069   4.435 135.427  0.00  0.00    +0.000 A 
ATOM     20  C   UNL     1      -5.415   3.266 135.062  0.00  0.00    +0.000 A 
ATOM     21  C   UNL     1      -6.087   2.297 134.323  0.00  0.00    +0.000 A 
ATOM     22  C   UNL     1      -7.362   2.563 133.831  0.00  0.00    +0.000 A 
ENDBRANCH  15  17
ENDBRANCH  13  15
ENDBRANCH   5  13
TORSDOF 4
ENDMDL
MODEL 4
REMARK VINA RESULT:      -7.2      2.069      3.679
REMARK  Name = Mavacamten
REMARK  7 active torsions:
REMARK  status: ('A' for Active; 'I' for Inactive)
REMARK    1  A    between atoms: C_1  and  C_2
REMARK    2  A    between atoms: C_2  and  C_3
REMARK    3  A    between atoms: C_2  and  N_4
REMARK    4  A    between atoms: C_8  and  N_9
REMARK    5  A    between atoms: N_9  and  C_10
REMARK    6  A    between atoms: C_10  and  C_11
REMARK    7  A    between atoms: C_10  and  C_12
REMARK                            x       y       z     vdW  Elec       q    Type
REMARK                         _______ _______ _______ _____ _____    ______ ____
ROOT
ATOM      1  N   UNL     1     -11.717   7.317 129.374  0.00  0.00    +0.000 N 
ATOM      2  C   UNL     1     -10.490   6.871 128.899  0.00  0.00    +0.000 A 
ATOM      3  O   UNL     1     -10.042   7.110 127.780  0.00  0.00    +0.000 OA
ATOM      4  N   UNL     1      -9.758   6.097 129.765  0.00  0.00    +0.000 N 
ATOM      5  C   UNL     1     -10.126   5.785 131.035  0.00  0.00    +0.000 A 
ATOM      6  C   UNL     1     -11.279   6.278 131.491  0.00  0.00    +0.000 A 
ATOM      7  C   UNL     1     -12.188   6.984 130.622  0.00  0.00    +0.000 A 
ATOM      8  O   UNL     1     -13.315   7.201 131.077  0.00  0.00    +0.000 OA
ATOM      9  H   UNL     1      -8.872   5.768 129.403  0.00  0.00    +0.000 HD
ENDROOT
BRANCH   1  11
ATOM     10  C   UNL     1     -13.832   7.133 128.140  0.00  0.00    +0.000 C 
ATOM     11  C   UNL     1     -12.628   8.019 128.471  0.00  0.00    +0.000 C 
ATOM     12  C   UNL     1     -13.077   9.367 129.048  0.00  0.00    +0.000 C 
ENDBRANCH   1  11
BRANCH   5  13
ATOM     13  N   UNL     1      -9.343   4.984 131.816  0.00  0.00    +0.000 N 
ATOM     14  H   UNL     1      -9.293   4.024 131.516  0.00  0.00    +0.000 HD
BRANCH  13  15
ATOM     15  C   UNL     1      -8.688   5.370 133.068  0.00  0.00    +0.000 C 
ATOM     16  C   UNL     1      -8.647   4.174 134.050  0.00  0.00    +0.000 C 
BRANCH  15  17
ATOM     17  C   UNL     1      -7.267   5.871 132.873  0.00  0.00    +0.000 A 
ATOM     18  C   UNL     1      -6.817   6.485 131.698  0.00  0.00    +0.000 A 
ATOM     19  C   UNL     1      -5.457   6.647 131.457  0.00  0.00    +0.000 A 
ATOM     20  C   UNL     1      -4.533   6.329 132.444  0.00  0.00    +0.000 A 
ATOM     21  C   UNL     1      -4.971   5.875 133.683  0.00  0.00    +0.000 A 
ATOM     22  C   UNL     1      -6.323   5.606 133.884  0.00  0.00    +0.000 A 
ENDBRANCH  15  17
ENDBRANCH  13  15
ENDBRANCH   5  13
TORSDOF 4
ENDMDL
MODEL 5
REMARK VINA RESULT:      -7.1      1.678      2.768
REMARK  Name = Mavacamten
REMARK  7 active torsions:
REMARK  status: ('A' for Active; 'I' for Inactive)
REMARK    1  A    between atoms: C_1  and  C_2
REMARK    2  A    between atoms: C_2  and  C_3
REMARK    3  A    between atoms: C_2  and  N_4
REMARK    4  A    between atoms: C_8  and  N_9
REMARK    5  A    between atoms: N_9  and  C_10
REMARK    6  A    between atoms: C_10  and  C_11
REMARK    7  A    between atoms: C_10  and  C_12
REMARK                            x       y       z     vdW  Elec       q    Type
REMARK                         _______ _______ _______ _____ _____    ______ ____
ROOT
ATOM      1  N   UNL     1     -11.776   7.650 129.683  0.00  0.00    +0.000 N 
ATOM      2  C   UNL     1     -10.602   7.966 129.009  0.00  0.00    +0.000 A 
ATOM      3  O   UNL     1     -10.549   8.551 127.930  0.00  0.00    +0.000 OA
ATOM      4  N   UNL     1      -9.437   7.568 129.617  0.00  0.00    +0.000 N 
ATOM      5  C   UNL     1      -9.358   6.942 130.820  0.00  0.00    +0.000 A 
ATOM      6  C   UNL     1     -10.495   6.706 131.477  0.00  0.00    +0.000 A 
ATOM      7  C   UNL     1     -11.779   6.956 130.869  0.00  0.00    +0.000 A 
ATOM      8  O   UNL     1     -12.758   6.499 131.465  0.00  0.00    +0.000 OA
ATOM      9  H   UNL     1      -8.590   7.793 129.111  0.00  0.00    +0.000 HD
ENDROOT
BRANCH   1  11
ATOM     10  C   UNL     1     -13.228   9.392 128.742  0.00  0.00    +0.000 C 
ATOM     11  C   UNL     1     -13.066   7.900 129.041  0.00  0.00    +0.000 C 
ATOM     12  C   UNL     1     -13.243   7.059 127.771  0.00  0.00    +0.000 C 
ENDBRANCH   1  11
BRANCH   5  13
ATOM     13  N   UNL     1      -8.153   6.558 131.334  0.00  0.00    +0.000 N 
ATOM     14  H   UNL     1      -7.734   7.223 131.964  0.00  0.00    +0.000 HD
BRANCH  13  15
ATOM     15  C   UNL     1      -7.401   5.355 130.970  0.00  0.00    +0.000 C 
ATOM     16  C   UNL     1      -5.981   5.395 131.585  0.00  0.00    +0.000 C 
BRANCH  15  17
ATOM     17  C   UNL     1      -8.073   4.067 131.416  0.00  0.00    +0.000 A 
ATOM     18  C   UNL     1      -8.540   3.090 130.527  0.00  0.00    +0.000 A 
ATOM     19  C   UNL     1      -9.404   2.092 130.961  0.00  0.00    +0.000 A 
ATOM     20  C   UNL     1      -9.703   1.968 132.311  0.00  0.00    +0.000 A 
ATOM     21  C   UNL     1      -9.114   2.827 133.233  0.00  0.00    +0.000 A 
ATOM     22  C   UNL     1      -8.340   3.895 132.787  0.00  0.00    +0.000 A 
ENDBRANCH  15  17
ENDBRANCH  13  15
ENDBRANCH   5  13
TORSDOF 4
ENDMDL
MODEL 6
REMARK VINA RESULT:      -6.9      8.118     10.233
REMARK  Name = Mavacamten
REMARK  7 active torsions:
REMARK  status: ('A' for Active; 'I' for Inactive)
REMARK    1  A    between atoms: C_1  and  C_2
REMARK    2  A    between atoms: C_2  and  C_3
REMARK    3  A    between atoms: C_2  and  N_4
REMARK    4  A    between atoms: C_8  and  N_9
REMARK    5  A    between atoms: N_9  and  C_10
REMARK    6  A    between atoms: C_10  and  C_11
REMARK    7  A    between atoms: C_10  and  C_12
REMARK                            x       y       z     vdW  Elec       q    Type
REMARK                         _______ _______ _______ _____ _____    ______ ____
ROOT
ATOM      1  N   UNL     1      -7.407   3.957 127.056  0.00  0.00    +0.000 N 
ATOM      2  C   UNL     1      -7.958   4.725 126.038  0.00  0.00    +0.000 A 
ATOM      3  O   UNL     1      -8.888   5.516 126.181  0.00  0.00    +0.000 OA
ATOM      4  N   UNL     1      -7.407   4.553 124.792  0.00  0.00    +0.000 N 
ATOM      5  C   UNL     1      -6.361   3.735 124.508  0.00  0.00    +0.000 A 
ATOM      6  C   UNL     1      -5.808   3.055 125.513  0.00  0.00    +0.000 A 
ATOM      7  C   UNL     1      -6.394   3.056 126.831  0.00  0.00    +0.000 A 
ATOM      8  O   UNL     1      -5.942   2.226 127.626  0.00  0.00    +0.000 OA
ATOM      9  H   UNL     1      -7.825   5.110 124.057  0.00  0.00    +0.000 HD
ENDROOT
BRANCH   1  11
ATOM     10  C   UNL     1      -8.515   2.558 128.743  0.00  0.00    +0.000 C 
ATOM     11  C   UNL     1      -8.027   3.962 128.380  0.00  0.00    +0.000 C 
ATOM     12  C   UNL     1      -7.076   4.510 129.452  0.00  0.00    +0.000 C 
ENDBRANCH   1  11
BRANCH   5  13
ATOM     13  N   UNL     1      -5.897   3.607 123.229  0.00  0.00    +0.000 N 
ATOM     14  H   UNL     1      -4.979   3.991 123.076  0.00  0.00    +0.000 HD
BRANCH  13  15
ATOM     15  C   UNL     1      -6.644   3.077 122.087  0.00  0.00    +0.000 C 
ATOM     16  C   UNL     1      -8.126   2.842 122.469  0.00  0.00    +0.000 C 
BRANCH  15  17
ATOM     17  C   UNL     1      -6.609   3.987 120.870  0.00  0.00    +0.000 A 
ATOM     18  C   UNL     1      -7.613   4.011 119.893  0.00  0.00    +0.000 A 
ATOM     19  C   UNL     1      -7.393   4.627 118.666  0.00  0.00    +0.000 A 
ATOM     20  C   UNL     1      -6.227   5.347 118.448  0.00  0.00    +0.000 A 
ATOM     21  C   UNL     1      -5.290   5.476 119.468  0.00  0.00    +0.000 A 
ATOM     22  C   UNL     1      -5.458   4.767 120.655  0.00  0.00    +0.000 A 
ENDBRANCH  15  17
ENDBRANCH  13  15
ENDBRANCH   5  13
TORSDOF 4
ENDMDL
MODEL 7
REMARK VINA RESULT:      -6.7      3.277      4.543
REMARK  Name = Mavacamten
REMARK  7 active torsions:
REMARK  status: ('A' for Active; 'I' for Inactive)
REMARK    1  A    between atoms: C_1  and  C_2
REMARK    2  A    between atoms: C_2  and  C_3
REMARK    3  A    between atoms: C_2  and  N_4
REMARK    4  A    between atoms: C_8  and  N_9
REMARK    5  A    between atoms: N_9  and  C_10
REMARK    6  A    between atoms: C_10  and  C_11
REMARK    7  A    between atoms: C_10  and  C_12
REMARK                            x       y       z     vdW  Elec       q    Type
REMARK                         _______ _______ _______ _____ _____    ______ ____
ROOT
ATOM      1  N   UNL     1     -11.458   7.516 129.858  0.00  0.00    +0.000 N 
ATOM      2  C   UNL     1     -10.274   7.875 129.225  0.00  0.00    +0.000 A 
ATOM      3  O   UNL     1     -10.204   8.502 128.171  0.00  0.00    +0.000 OA
ATOM      4  N   UNL     1      -9.117   7.471 129.846  0.00  0.00    +0.000 N 
ATOM      5  C   UNL     1      -9.057   6.800 131.025  0.00  0.00    +0.000 A 
ATOM      6  C   UNL     1     -10.205   6.523 131.645  0.00  0.00    +0.000 A 
ATOM      7  C   UNL     1     -11.478   6.777 131.016  0.00  0.00    +0.000 A 
ATOM      8  O   UNL     1     -12.464   6.284 131.570  0.00  0.00    +0.000 OA
ATOM      9  H   UNL     1      -8.262   7.728 129.369  0.00  0.00    +0.000 HD
ENDROOT
BRANCH   1  11
ATOM     10  C   UNL     1     -12.943   9.276 129.006  0.00  0.00    +0.000 C 
ATOM     11  C   UNL     1     -12.736   7.772 129.195  0.00  0.00    +0.000 C 
ATOM     12  C   UNL     1     -12.843   7.028 127.858  0.00  0.00    +0.000 C 
ENDBRANCH   1  11
BRANCH   5  13
ATOM     13  N   UNL     1      -7.858   6.414 131.553  0.00  0.00    +0.000 N 
ATOM     14  H   UNL     1      -7.529   6.989 132.312  0.00  0.00    +0.000 HD
BRANCH  13  15
ATOM     15  C   UNL     1      -6.996   5.343 131.050  0.00  0.00    +0.000 C 
ATOM     16  C   UNL     1      -7.667   4.621 129.858  0.00  0.00    +0.000 C 
BRANCH  15  17
ATOM     17  C   UNL     1      -5.630   5.832 130.598  0.00  0.00    +0.000 A 
ATOM     18  C   UNL     1      -4.621   4.982 130.127  0.00  0.00    +0.000 A 
ATOM     19  C   UNL     1      -3.310   5.430 130.016  0.00  0.00    +0.000 A 
ATOM     20  C   UNL     1      -3.011   6.768 130.236  0.00  0.00    +0.000 A 
ATOM     21  C   UNL     1      -4.030   7.665 130.541  0.00  0.00    +0.000 A 
ATOM     22  C   UNL     1      -5.322   7.195 130.763  0.00  0.00    +0.000 A 
ENDBRANCH  15  17
ENDBRANCH  13  15
ENDBRANCH   5  13
TORSDOF 4
ENDMDL
MODEL 8
REMARK VINA RESULT:      -6.2      7.809      9.414
REMARK  Name = Mavacamten
REMARK  7 active torsions:
REMARK  status: ('A' for Active; 'I' for Inactive)
REMARK    1  A    between atoms: C_1  and  C_2
REMARK    2  A    between atoms: C_2  and  C_3
REMARK    3  A    between atoms: C_2  and  N_4
REMARK    4  A    between atoms: C_8  and  N_9
REMARK    5  A    between atoms: N_9  and  C_10
REMARK    6  A    between atoms: C_10  and  C_11
REMARK    7  A    between atoms: C_10  and  C_12
REMARK                            x       y       z     vdW  Elec       q    Type
REMARK                         _______ _______ _______ _____ _____    ______ ____
ROOT
ATOM      1  N   UNL     1      -3.400   4.221 127.969  0.00  0.00    +0.000 N 
ATOM      2  C   UNL     1      -2.876   3.275 127.096  0.00  0.00    +0.000 A 
ATOM      3  O   UNL     1      -1.688   2.972 127.021  0.00  0.00    +0.000 OA
ATOM      4  N   UNL     1      -3.780   2.663 126.262  0.00  0.00    +0.000 N 
ATOM      5  C   UNL     1      -5.120   2.887 126.266  0.00  0.00    +0.000 A 
ATOM      6  C   UNL     1      -5.607   3.753 127.156  0.00  0.00    +0.000 A 
ATOM      7  C   UNL     1      -4.734   4.551 127.981  0.00  0.00    +0.000 A 
ATOM      8  O   UNL     1      -5.270   5.472 128.603  0.00  0.00    +0.000 OA
ATOM      9  H   UNL     1      -3.384   1.985 125.624  0.00  0.00    +0.000 HD
ENDROOT
BRANCH   1  11
ATOM     10  C   UNL     1      -2.431   6.459 128.248  0.00  0.00    +0.000 C 
ATOM     11  C   UNL     1      -2.495   5.028 128.786  0.00  0.00    +0.000 C 
ATOM     12  C   UNL     1      -2.895   5.011 130.266  0.00  0.00    +0.000 C 
ENDBRANCH   1  11
BRANCH   5  13
ATOM     13  N   UNL     1      -5.940   2.250 125.378  0.00  0.00    +0.000 N 
ATOM     14  H   UNL     1      -6.040   2.716 124.491  0.00  0.00    +0.000 HD
BRANCH  13  15
ATOM     15  C   UNL     1      -6.739   1.053 125.644  0.00  0.00    +0.000 C 
ATOM     16  C   UNL     1      -8.246   1.353 125.460  0.00  0.00    +0.000 C 
BRANCH  15  17
ATOM     17  C   UNL     1      -6.379  -0.122 124.751  0.00  0.00    +0.000 A 
ATOM     18  C   UNL     1      -6.930  -0.324 123.479  0.00  0.00    +0.000 A 
ATOM     19  C   UNL     1      -6.803  -1.551 122.837  0.00  0.00    +0.000 A 
ATOM     20  C   UNL     1      -6.008  -2.546 123.389  0.00  0.00    +0.000 A 
ATOM     21  C   UNL     1      -5.316  -2.305 124.571  0.00  0.00    +0.000 A 
ATOM     22  C   UNL     1      -5.532  -1.120 125.269  0.00  0.00    +0.000 A 
ENDBRANCH  15  17
ENDBRANCH  13  15
ENDBRANCH   5  13
TORSDOF 4
ENDMDL
MODEL 9
REMARK VINA RESULT:      -6.1      4.483      5.502
REMARK  Name = Mavacamten
REMARK  7 active torsions:
REMARK  status: ('A' for Active; 'I' for Inactive)
REMARK    1  A    between atoms: C_1  and  C_2
REMARK    2  A    between atoms: C_2  and  C_3
REMARK    3  A    between atoms: C_2  and  N_4
REMARK    4  A    between atoms: C_8  and  N_9
REMARK    5  A    between atoms: N_9  and  C_10
REMARK    6  A    between atoms: C_10  and  C_11
REMARK    7  A    between atoms: C_10  and  C_12
REMARK                            x       y       z     vdW  Elec       q    Type
REMARK                         _______ _______ _______ _____ _____    ______ ____
ROOT
ATOM      1  N   UNL     1      -9.259   6.016 130.812  0.00  0.00    +0.000 N 
ATOM      2  C   UNL     1      -8.582   5.408 129.763  0.00  0.00    +0.000 A 
ATOM      3  O   UNL     1      -9.004   5.321 128.612  0.00  0.00    +0.000 OA
ATOM      4  N   UNL     1      -7.360   4.864 130.073  0.00  0.00    +0.000 N 
ATOM      5  C   UNL     1      -6.769   4.917 131.295  0.00  0.00    +0.000 A 
ATOM      6  C   UNL     1      -7.411   5.562 132.272  0.00  0.00    +0.000 A 
ATOM      7  C   UNL     1      -8.757   6.047 132.092  0.00  0.00    +0.000 A 
ATOM      8  O   UNL     1      -9.338   6.424 133.113  0.00  0.00    +0.000 OA
ATOM      9  H   UNL     1      -6.882   4.414 129.302  0.00  0.00    +0.000 HD
ENDROOT
BRANCH   1  11
ATOM     10  C   UNL     1     -10.652   7.615 129.575  0.00  0.00    +0.000 C 
ATOM     11  C   UNL     1     -10.628   6.488 130.611  0.00  0.00    +0.000 C 
ATOM     12  C   UNL     1     -11.571   5.347 130.207  0.00  0.00    +0.000 C 
ENDBRANCH   1  11
BRANCH   5  13
ATOM     13  N   UNL     1      -5.560   4.322 131.518  0.00  0.00    +0.000 N 
ATOM     14  H   UNL     1      -5.608   3.334 131.706  0.00  0.00    +0.000 HD
BRANCH  13  15
ATOM     15  C   UNL     1      -4.266   5.000 131.610  0.00  0.00    +0.000 C 
ATOM     16  C   UNL     1      -3.171   4.017 132.089  0.00  0.00    +0.000 C 
BRANCH  15  17
ATOM     17  C   UNL     1      -3.811   5.610 130.295  0.00  0.00    +0.000 A 
ATOM     18  C   UNL     1      -3.083   4.906 129.327  0.00  0.00    +0.000 A 
ATOM     19  C   UNL     1      -2.438   5.579 128.295  0.00  0.00    +0.000 A 
ATOM     20  C   UNL     1      -2.625   6.945 128.132  0.00  0.00    +0.000 A 
ATOM     21  C   UNL     1      -3.480   7.635 128.985  0.00  0.00    +0.000 A 
ATOM     22  C   UNL     1      -4.035   6.983 130.083  0.00  0.00    +0.000 A 
ENDBRANCH  15  17
ENDBRANCH  13  15
ENDBRANCH   5  13
TORSDOF 4
ENDMDL
