MODEL 1
REMARK VINA RESULT:      -7.6      0.000      0.000
REMARK  Name = Mazindol
REMARK  2 active torsions:
REMARK  status: ('A' for Active; 'I' for Inactive)
REMARK    1  A    between atoms: O_1  and  C_2
REMARK    2  A    between atoms: C_2  and  C_14
REMARK                            x       y       z     vdW  Elec       q    Type
REMARK                         _______ _______ _______ _____ _____    ______ ____
ROOT
ATOM      1  C   UNL     1      -9.459   5.941 132.021  0.00  0.00    +0.000 C 
ATOM      2  N   UNL     1      -8.054   5.685 131.868  0.00  0.00    +0.000 N 
ATOM      3  C   UNL     1      -6.861   6.483 131.884  0.00  0.00    +0.000 C 
ATOM      4  C   UNL     1      -5.915   5.375 132.440  0.00  0.00    +0.000 C 
ATOM      5  N   UNL     1      -6.687   4.606 133.461  0.00  0.00    +0.000 NA
ATOM      6  C   UNL     1      -7.834   4.659 132.824  0.00  0.00    +0.000 C 
ATOM      7  C   UNL     1      -8.991   3.784 132.950  0.00  0.00    +0.000 A 
ATOM      8  C   UNL     1      -8.908   2.407 133.046  0.00  0.00    +0.000 A 
ATOM      9  C   UNL     1      -9.482   1.646 132.025  0.00  0.00    +0.000 A 
ATOM     10  C   UNL     1     -10.027   2.272 130.895  0.00  0.00    +0.000 A 
ATOM     11  C   UNL     1     -10.141   3.661 130.862  0.00  0.00    +0.000 A 
ATOM     12  C   UNL     1      -9.770   4.412 131.992  0.00  0.00    +0.000 A 
ENDROOT
BRANCH   1  13
ATOM     13  C   UNL     1     -10.593   6.551 131.246  0.00  0.00    +0.000 A 
ATOM     14  C   UNL     1     -10.134   7.152 130.019  0.00  0.00    +0.000 A 
ATOM     15  C   UNL     1     -10.894   8.024 129.269  0.00  0.00    +0.000 A 
ATOM     16  C   UNL     1     -12.213   8.192 129.632  0.00  0.00    +0.000 A 
ATOM     17 CL   UNL     1     -13.181   9.287 128.728  0.00  0.00    +0.000 Cl
ATOM     18  C   UNL     1     -12.744   7.498 130.732  0.00  0.00    +0.000 A 
ATOM     19  C   UNL     1     -11.928   6.713 131.577  0.00  0.00    +0.000 A 
ENDBRANCH   1  13
BRANCH   1  20
ATOM     20  O   UNL     1      -9.605   6.542 133.309  0.00  0.00    +0.000 OA
ATOM     21  H   UNL     1      -8.981   6.056 133.870  0.00  0.00    +0.000 HD
ENDBRANCH   1  20
TORSDOF 2
ENDMDL
MODEL 2
REMARK VINA RESULT:      -7.4      8.095      9.023
REMARK  Name = Mazindol
REMARK  2 active torsions:
REMARK  status: ('A' for Active; 'I' for Inactive)
REMARK    1  A    between atoms: O_1  and  C_2
REMARK    2  A    between atoms: C_2  and  C_14
REMARK                            x       y       z     vdW  Elec       q    Type
REMARK                         _______ _______ _______ _____ _____    ______ ____
ROOT
ATOM      1  C   UNL     1      -8.082   2.610 124.259  0.00  0.00    +0.000 C 
ATOM      2  N   UNL     1      -7.558   2.491 125.590  0.00  0.00    +0.000 N 
ATOM      3  C   UNL     1      -7.205   3.408 126.637  0.00  0.00    +0.000 C 
ATOM      4  C   UNL     1      -7.528   2.452 127.825  0.00  0.00    +0.000 C 
ATOM      5  N   UNL     1      -8.758   1.688 127.458  0.00  0.00    +0.000 NA
ATOM      6  C   UNL     1      -8.462   1.571 126.184  0.00  0.00    +0.000 C 
ATOM      7  C   UNL     1      -8.945   0.593 125.219  0.00  0.00    +0.000 A 
ATOM      8  C   UNL     1      -9.078  -0.757 125.493  0.00  0.00    +0.000 A 
ATOM      9  C   UNL     1      -8.293  -1.651 124.761  0.00  0.00    +0.000 A 
ATOM     10  C   UNL     1      -7.331  -1.175 123.860  0.00  0.00    +0.000 A 
ATOM     11  C   UNL     1      -7.266   0.187 123.572  0.00  0.00    +0.000 A 
ATOM     12  C   UNL     1      -8.213   1.059 124.140  0.00  0.00    +0.000 A 
ENDROOT
BRANCH   1  13
ATOM     13  C   UNL     1      -7.625   3.035 122.891  0.00  0.00    +0.000 A 
ATOM     14  C   UNL     1      -6.222   3.363 122.881  0.00  0.00    +0.000 A 
ATOM     15  C   UNL     1      -5.609   4.051 121.854  0.00  0.00    +0.000 A 
ATOM     16  C   UNL     1      -6.350   4.287 120.716  0.00  0.00    +0.000 A 
ATOM     17 CL   UNL     1      -5.622   5.160 119.428  0.00  0.00    +0.000 Cl
ATOM     18  C   UNL     1      -7.680   3.841 120.626  0.00  0.00    +0.000 A 
ATOM     19  C   UNL     1      -8.343   3.258 121.728  0.00  0.00    +0.000 A 
ENDBRANCH   1  13
BRANCH   1  20
ATOM     20  O   UNL     1      -9.331   3.291 124.394  0.00  0.00    +0.000 OA
ATOM     21  H   UNL     1      -9.686   3.316 123.491  0.00  0.00    +0.000 HD
ENDBRANCH   1  20
TORSDOF 2
ENDMDL
MODEL 3
REMARK VINA RESULT:      -7.3      8.497     10.045
REMARK  Name = Mazindol
REMARK  2 active torsions:
REMARK  status: ('A' for Active; 'I' for Inactive)
REMARK    1  A    between atoms: O_1  and  C_2
REMARK    2  A    between atoms: C_2  and  C_14
REMARK                            x       y       z     vdW  Elec       q    Type
REMARK                         _______ _______ _______ _____ _____    ______ ____
ROOT
ATOM      1  C   UNL     1      -7.493   2.659 124.407  0.00  0.00    +0.000 C 
ATOM      2  N   UNL     1      -7.933   1.437 123.796  0.00  0.00    +0.000 N 
ATOM      3  C   UNL     1      -8.420   0.173 124.271  0.00  0.00    +0.000 C 
ATOM      4  C   UNL     1      -9.335  -0.135 123.046  0.00  0.00    +0.000 C 
ATOM      5  N   UNL     1      -9.966   1.152 122.630  0.00  0.00    +0.000 NA
ATOM      6  C   UNL     1      -8.914   1.899 122.880  0.00  0.00    +0.000 C 
ATOM      7  C   UNL     1      -8.573   3.208 122.342  0.00  0.00    +0.000 A 
ATOM      8  C   UNL     1      -8.721   3.554 121.010  0.00  0.00    +0.000 A 
ATOM      9  C   UNL     1      -7.568   3.874 120.288  0.00  0.00    +0.000 A 
ATOM     10  C   UNL     1      -6.304   3.741 120.876  0.00  0.00    +0.000 A 
ATOM     11  C   UNL     1      -6.200   3.443 122.234  0.00  0.00    +0.000 A 
ATOM     12  C   UNL     1      -7.369   3.346 123.011  0.00  0.00    +0.000 A 
ENDROOT
BRANCH   1  13
ATOM     13  C   UNL     1      -6.310   3.186 125.171  0.00  0.00    +0.000 A 
ATOM     14  C   UNL     1      -5.442   2.121 125.603  0.00  0.00    +0.000 A 
ATOM     15  C   UNL     1      -4.458   2.281 126.556  0.00  0.00    +0.000 A 
ATOM     16  C   UNL     1      -4.194   3.564 126.987  0.00  0.00    +0.000 A 
ATOM     17 CL   UNL     1      -2.987   3.794 128.189  0.00  0.00    +0.000 Cl
ATOM     18  C   UNL     1      -4.915   4.653 126.470  0.00  0.00    +0.000 A 
ATOM     19  C   UNL     1      -6.011   4.469 125.597  0.00  0.00    +0.000 A 
ENDBRANCH   1  13
BRANCH   1  20
ATOM     20  O   UNL     1      -8.597   3.120 125.188  0.00  0.00    +0.000 OA
ATOM     21  H   UNL     1      -9.355   2.621 124.845  0.00  0.00    +0.000 HD
ENDBRANCH   1  20
TORSDOF 2
ENDMDL
MODEL 4
REMARK VINA RESULT:      -7.1      1.842      3.195
REMARK  Name = Mazindol
REMARK  2 active torsions:
REMARK  status: ('A' for Active; 'I' for Inactive)
REMARK    1  A    between atoms: O_1  and  C_2
REMARK    2  A    between atoms: C_2  and  C_14
REMARK                            x       y       z     vdW  Elec       q    Type
REMARK                         _______ _______ _______ _____ _____    ______ ____
ROOT
ATOM      1  C   UNL     1      -9.881   4.716 130.760  0.00  0.00    +0.000 C 
ATOM      2  N   UNL     1      -9.300   3.894 131.785  0.00  0.00    +0.000 N 
ATOM      3  C   UNL     1      -9.737   2.773 132.566  0.00  0.00    +0.000 C 
ATOM      4  C   UNL     1      -8.331   2.118 132.736  0.00  0.00    +0.000 C 
ATOM      5  N   UNL     1      -7.605   2.287 131.442  0.00  0.00    +0.000 NA
ATOM      6  C   UNL     1      -8.083   3.482 131.180  0.00  0.00    +0.000 C 
ATOM      7  C   UNL     1      -7.537   4.515 130.312  0.00  0.00    +0.000 A 
ATOM      8  C   UNL     1      -6.195   4.849 130.264  0.00  0.00    +0.000 A 
ATOM      9  C   UNL     1      -5.831   6.142 130.648  0.00  0.00    +0.000 A 
ATOM     10  C   UNL     1      -6.789   7.024 131.164  0.00  0.00    +0.000 A 
ATOM     11  C   UNL     1      -8.137   6.670 131.145  0.00  0.00    +0.000 A 
ATOM     12  C   UNL     1      -8.525   5.458 130.546  0.00  0.00    +0.000 A 
ENDROOT
BRANCH   1  13
ATOM     13  C   UNL     1     -10.909   5.805 130.623  0.00  0.00    +0.000 A 
ATOM     14  C   UNL     1     -10.843   6.434 129.329  0.00  0.00    +0.000 A 
ATOM     15  C   UNL     1     -11.455   7.635 129.036  0.00  0.00    +0.000 A 
ATOM     16  C   UNL     1     -12.302   8.165 129.985  0.00  0.00    +0.000 A 
ATOM     17 CL   UNL     1     -13.064   9.670 129.657  0.00  0.00    +0.000 Cl
ATOM     18  C   UNL     1     -12.517   7.497 131.202  0.00  0.00    +0.000 A 
ATOM     19  C   UNL     1     -11.785   6.340 131.552  0.00  0.00    +0.000 A 
ENDBRANCH   1  13
BRANCH   1  20
ATOM     20  O   UNL     1     -10.231   3.824 129.701  0.00  0.00    +0.000 OA
ATOM     21  H   UNL     1      -9.462   3.842 129.111  0.00  0.00    +0.000 HD
ENDBRANCH   1  20
TORSDOF 2
ENDMDL
MODEL 5
REMARK VINA RESULT:      -7.0      7.950      9.308
REMARK  Name = Mazindol
REMARK  2 active torsions:
REMARK  status: ('A' for Active; 'I' for Inactive)
REMARK    1  A    between atoms: O_1  and  C_2
REMARK    2  A    between atoms: C_2  and  C_14
REMARK                            x       y       z     vdW  Elec       q    Type
REMARK                         _______ _______ _______ _____ _____    ______ ____
ROOT
ATOM      1  C   UNL     1      -7.060  -2.136 129.952  0.00  0.00    +0.000 C 
ATOM      2  N   UNL     1      -5.915  -1.417 130.436  0.00  0.00    +0.000 N 
ATOM      3  C   UNL     1      -5.412  -0.080 130.293  0.00  0.00    +0.000 C 
ATOM      4  C   UNL     1      -4.712  -0.006 131.685  0.00  0.00    +0.000 C 
ATOM      5  N   UNL     1      -5.597  -0.704 132.663  0.00  0.00    +0.000 NA
ATOM      6  C   UNL     1      -5.991  -1.644 131.835  0.00  0.00    +0.000 C 
ATOM      7  C   UNL     1      -6.532  -2.961 132.138  0.00  0.00    +0.000 A 
ATOM      8  C   UNL     1      -6.025  -3.794 133.119  0.00  0.00    +0.000 A 
ATOM      9  C   UNL     1      -5.485  -5.019 132.719  0.00  0.00    +0.000 A 
ATOM     10  C   UNL     1      -5.370  -5.333 131.358  0.00  0.00    +0.000 A 
ATOM     11  C   UNL     1      -5.942  -4.493 130.404  0.00  0.00    +0.000 A 
ATOM     12  C   UNL     1      -6.686  -3.375 130.825  0.00  0.00    +0.000 A 
ENDROOT
BRANCH   1  13
ATOM     13  C   UNL     1      -7.564  -2.741 128.672  0.00  0.00    +0.000 A 
ATOM     14  C   UNL     1      -6.797  -2.294 127.537  0.00  0.00    +0.000 A 
ATOM     15  C   UNL     1      -7.211  -2.450 126.230  0.00  0.00    +0.000 A 
ATOM     16  C   UNL     1      -8.332  -3.219 126.006  0.00  0.00    +0.000 A 
ATOM     17 CL   UNL     1      -8.884  -3.416 124.391  0.00  0.00    +0.000 Cl
ATOM     18  C   UNL     1      -9.021  -3.807 127.081  0.00  0.00    +0.000 A 
ATOM     19  C   UNL     1      -8.674  -3.532 128.423  0.00  0.00    +0.000 A 
ENDBRANCH   1  13
BRANCH   1  20
ATOM     20  O   UNL     1      -8.199  -1.414 130.424  0.00  0.00    +0.000 OA
ATOM     21  H   UNL     1      -8.827  -1.452 129.685  0.00  0.00    +0.000 HD
ENDBRANCH   1  20
TORSDOF 2
ENDMDL
MODEL 6
REMARK VINA RESULT:      -6.9      7.409     10.211
REMARK  Name = Mazindol
REMARK  2 active torsions:
REMARK  status: ('A' for Active; 'I' for Inactive)
REMARK    1  A    between atoms: O_1  and  C_2
REMARK    2  A    between atoms: C_2  and  C_14
REMARK                            x       y       z     vdW  Elec       q    Type
REMARK                         _______ _______ _______ _____ _____    ______ ____
ROOT
ATOM      1  C   UNL     1      -6.643  -2.116 129.913  0.00  0.00    +0.000 C 
ATOM      2  N   UNL     1      -7.497  -0.965 129.827  0.00  0.00    +0.000 N 
ATOM      3  C   UNL     1      -7.548   0.321 130.463  0.00  0.00    +0.000 C 
ATOM      4  C   UNL     1      -8.184   1.087 129.263  0.00  0.00    +0.000 C 
ATOM      5  N   UNL     1      -7.565   0.547 128.016  0.00  0.00    +0.000 NA
ATOM      6  C   UNL     1      -7.494  -0.696 128.433  0.00  0.00    +0.000 C 
ATOM      7  C   UNL     1      -7.400  -1.920 127.650  0.00  0.00    +0.000 A 
ATOM      8  C   UNL     1      -8.144  -2.161 126.508  0.00  0.00    +0.000 A 
ATOM      9  C   UNL     1      -9.048  -3.226 126.531  0.00  0.00    +0.000 A 
ATOM     10  C   UNL     1      -9.260  -3.949 127.713  0.00  0.00    +0.000 A 
ATOM     11  C   UNL     1      -8.454  -3.712 128.824  0.00  0.00    +0.000 A 
ATOM     12  C   UNL     1      -7.391  -2.795 128.723  0.00  0.00    +0.000 A 
ENDROOT
BRANCH   1  13
ATOM     13  C   UNL     1      -6.362  -3.254 130.854  0.00  0.00    +0.000 A 
ATOM     14  C   UNL     1      -6.994  -3.053 132.133  0.00  0.00    +0.000 A 
ATOM     15  C   UNL     1      -6.673  -3.776 133.262  0.00  0.00    +0.000 A 
ATOM     16  C   UNL     1      -5.823  -4.850 133.109  0.00  0.00    +0.000 A 
ATOM     17 CL   UNL     1      -5.388  -5.758 134.501  0.00  0.00    +0.000 Cl
ATOM     18  C   UNL     1      -5.308  -5.177 131.843  0.00  0.00    +0.000 A 
ATOM     19  C   UNL     1      -5.532  -4.354 130.716  0.00  0.00    +0.000 A 
ENDBRANCH   1  13
BRANCH   1  20
ATOM     20  O   UNL     1      -5.332  -1.651 129.589  0.00  0.00    +0.000 OA
ATOM     21  H   UNL     1      -5.333  -0.723 129.872  0.00  0.00    +0.000 HD
ENDBRANCH   1  20
TORSDOF 2
ENDMDL
MODEL 7
REMARK VINA RESULT:      -6.8      8.268     10.539
REMARK  Name = Mazindol
REMARK  2 active torsions:
REMARK  status: ('A' for Active; 'I' for Inactive)
REMARK    1  A    between atoms: O_1  and  C_2
REMARK    2  A    between atoms: C_2  and  C_14
REMARK                            x       y       z     vdW  Elec       q    Type
REMARK                         _______ _______ _______ _____ _____    ______ ____
ROOT
ATOM      1  C   UNL     1      -6.439  -1.107 126.941  0.00  0.00    +0.000 C 
ATOM      2  N   UNL     1      -7.209  -0.021 126.403  0.00  0.00    +0.000 N 
ATOM      3  C   UNL     1      -7.296   1.391 126.647  0.00  0.00    +0.000 C 
ATOM      4  C   UNL     1      -7.693   1.797 125.194  0.00  0.00    +0.000 C 
ATOM      5  N   UNL     1      -6.911   0.931 124.263  0.00  0.00    +0.000 NA
ATOM      6  C   UNL     1      -6.970  -0.149 125.009  0.00  0.00    +0.000 C 
ATOM      7  C   UNL     1      -6.814  -1.542 124.616  0.00  0.00    +0.000 A 
ATOM      8  C   UNL     1      -7.378  -2.087 123.476  0.00  0.00    +0.000 A 
ATOM      9  C   UNL     1      -8.326  -3.100 123.637  0.00  0.00    +0.000 A 
ATOM     10  C   UNL     1      -8.760  -3.466 124.918  0.00  0.00    +0.000 A 
ATOM     11  C   UNL     1      -8.130  -2.934 126.041  0.00  0.00    +0.000 A 
ATOM     12  C   UNL     1      -7.020  -2.086 125.873  0.00  0.00    +0.000 A 
ENDROOT
BRANCH   1  13
ATOM     13  C   UNL     1      -6.368  -1.941 128.189  0.00  0.00    +0.000 A 
ATOM     14  C   UNL     1      -5.043  -2.464 128.402  0.00  0.00    +0.000 A 
ATOM     15  C   UNL     1      -4.760  -3.482 129.289  0.00  0.00    +0.000 A 
ATOM     16  C   UNL     1      -5.775  -3.897 130.124  0.00  0.00    +0.000 A 
ATOM     17 CL   UNL     1      -5.460  -5.178 131.225  0.00  0.00    +0.000 Cl
ATOM     18  C   UNL     1      -7.045  -3.300 130.055  0.00  0.00    +0.000 A 
ATOM     19  C   UNL     1      -7.367  -2.354 129.056  0.00  0.00    +0.000 A 
ENDBRANCH   1  13
BRANCH   1  20
ATOM     20  O   UNL     1      -5.071  -0.755 126.725  0.00  0.00    +0.000 OA
ATOM     21  H   UNL     1      -4.620  -1.052 127.531  0.00  0.00    +0.000 HD
ENDBRANCH   1  20
TORSDOF 2
ENDMDL
MODEL 8
REMARK VINA RESULT:      -6.7      8.477     10.738
REMARK  Name = Mazindol
REMARK  2 active torsions:
REMARK  status: ('A' for Active; 'I' for Inactive)
REMARK    1  A    between atoms: O_1  and  C_2
REMARK    2  A    between atoms: C_2  and  C_14
REMARK                            x       y       z     vdW  Elec       q    Type
REMARK                         _______ _______ _______ _____ _____    ______ ____
ROOT
ATOM      1  C   UNL     1      -7.600  -2.377 126.154  0.00  0.00    +0.000 C 
ATOM      2  N   UNL     1      -6.829  -2.036 124.992  0.00  0.00    +0.000 N 
ATOM      3  C   UNL     1      -5.885  -2.719 124.153  0.00  0.00    +0.000 C 
ATOM      4  C   UNL     1      -6.222  -1.946 122.841  0.00  0.00    +0.000 C 
ATOM      5  N   UNL     1      -7.700  -1.738 122.818  0.00  0.00    +0.000 NA
ATOM      6  C   UNL     1      -7.824  -1.537 124.110  0.00  0.00    +0.000 C 
ATOM      7  C   UNL     1      -8.884  -0.848 124.831  0.00  0.00    +0.000 A 
ATOM      8  C   UNL     1      -9.449   0.345 124.415  0.00  0.00    +0.000 A 
ATOM      9  C   UNL     1      -9.295   1.462 125.238  0.00  0.00    +0.000 A 
ATOM     10  C   UNL     1      -8.501   1.389 126.391  0.00  0.00    +0.000 A 
ATOM     11  C   UNL     1      -7.996   0.158 126.806  0.00  0.00    +0.000 A 
ATOM     12  C   UNL     1      -8.345  -1.006 126.097  0.00  0.00    +0.000 A 
ENDROOT
BRANCH   1  13
ATOM     13  C   UNL     1      -7.396  -2.612 127.624  0.00  0.00    +0.000 A 
ATOM     14  C   UNL     1      -6.009  -2.486 127.993  0.00  0.00    +0.000 A 
ATOM     15  C   UNL     1      -5.498  -2.929 129.195  0.00  0.00    +0.000 A 
ATOM     16  C   UNL     1      -6.397  -3.362 130.146  0.00  0.00    +0.000 A 
ATOM     17 CL   UNL     1      -5.790  -3.940 131.646  0.00  0.00    +0.000 Cl
ATOM     18  C   UNL     1      -7.777  -3.352 129.881  0.00  0.00    +0.000 A 
ATOM     19  C   UNL     1      -8.284  -3.026 128.603  0.00  0.00    +0.000 A 
ENDBRANCH   1  13
BRANCH   1  20
ATOM     20  O   UNL     1      -8.405  -3.493 125.770  0.00  0.00    +0.000 OA
ATOM     21  H   UNL     1      -7.767  -4.211 125.636  0.00  0.00    +0.000 HD
ENDBRANCH   1  20
TORSDOF 2
ENDMDL
MODEL 9
REMARK VINA RESULT:      -6.4      3.696      5.945
REMARK  Name = Mazindol
REMARK  2 active torsions:
REMARK  status: ('A' for Active; 'I' for Inactive)
REMARK    1  A    between atoms: O_1  and  C_2
REMARK    2  A    between atoms: C_2  and  C_14
REMARK                            x       y       z     vdW  Elec       q    Type
REMARK                         _______ _______ _______ _____ _____    ______ ____
ROOT
ATOM      1  C   UNL     1      -9.183   3.070 131.510  0.00  0.00    +0.000 C 
ATOM      2  N   UNL     1      -8.952   4.461 131.244  0.00  0.00    +0.000 N 
ATOM      3  C   UNL     1      -9.419   5.409 130.272  0.00  0.00    +0.000 C 
ATOM      4  C   UNL     1      -9.322   6.666 131.190  0.00  0.00    +0.000 C 
ATOM      5  N   UNL     1      -9.757   6.250 132.557  0.00  0.00    +0.000 NA
ATOM      6  C   UNL     1      -9.219   5.053 132.507  0.00  0.00    +0.000 C 
ATOM      7  C   UNL     1      -8.832   4.178 133.604  0.00  0.00    +0.000 A 
ATOM      8  C   UNL     1      -8.180   4.615 134.743  0.00  0.00    +0.000 A 
ATOM      9  C   UNL     1      -6.898   4.121 134.991  0.00  0.00    +0.000 A 
ATOM     10  C   UNL     1      -6.263   3.295 134.053  0.00  0.00    +0.000 A 
ATOM     11  C   UNL     1      -6.971   2.834 132.946  0.00  0.00    +0.000 A 
ATOM     12  C   UNL     1      -8.337   3.149 132.819  0.00  0.00    +0.000 A 
ENDROOT
BRANCH   1  13
ATOM     13  C   UNL     1      -8.825   1.728 130.934  0.00  0.00    +0.000 A 
ATOM     14  C   UNL     1      -9.209   0.654 131.815  0.00  0.00    +0.000 A 
ATOM     15  C   UNL     1      -8.749  -0.639 131.683  0.00  0.00    +0.000 A 
ATOM     16  C   UNL     1      -8.017  -0.942 130.555  0.00  0.00    +0.000 A 
ATOM     17 CL   UNL     1      -7.413  -2.540 130.372  0.00  0.00    +0.000 Cl
ATOM     18  C   UNL     1      -7.755   0.045 129.589  0.00  0.00    +0.000 A 
ATOM     19  C   UNL     1      -8.111   1.397 129.794  0.00  0.00    +0.000 A 
ENDBRANCH   1  13
BRANCH   1  20
ATOM     20  O   UNL     1     -10.589   2.946 131.731  0.00  0.00    +0.000 OA
ATOM     21  H   UNL     1     -10.684   3.010 132.695  0.00  0.00    +0.000 HD
ENDBRANCH   1  20
TORSDOF 2
ENDMDL
