MODEL 1
REMARK VINA RESULT:      -8.2      0.000      0.000
REMARK  Name = Mebendazole
REMARK  4 active torsions:
REMARK  status: ('A' for Active; 'I' for Inactive)
REMARK    1  A    between atoms: C_1  and  O_2
REMARK    2  A    between atoms: O_2  and  C_3
REMARK    3  A    between atoms: C_12  and  C_15
REMARK    4  A    between atoms: C_15  and  C_17
REMARK                            x       y       z     vdW  Elec       q    Type
REMARK                         _______ _______ _______ _____ _____    ______ ____
ROOT
ATOM      1  C   UNL     1      -5.643   4.020 121.258  0.00  0.00    +0.000 C 
ATOM      2  O   UNL     1      -5.586   2.967 120.621  0.00  0.00    +0.000 OA
ATOM      3  N   UNL     1      -6.325   4.197 122.434  0.00  0.00    +0.000 N 
ATOM      4  C   UNL     1      -7.082   3.197 123.004  0.00  0.00    +0.000 A 
ATOM      5  N   UNL     1      -8.185   3.380 123.696  0.00  0.00    +0.000 NA
ATOM      6  C   UNL     1      -8.587   2.126 124.103  0.00  0.00    +0.000 A 
ATOM      7  C   UNL     1      -7.662   1.159 123.727  0.00  0.00    +0.000 A 
ATOM      8  N   UNL     1      -6.733   1.864 122.994  0.00  0.00    +0.000 N 
ATOM      9  C   UNL     1      -7.774  -0.193 124.091  0.00  0.00    +0.000 A 
ATOM     10  C   UNL     1      -8.897  -0.569 124.858  0.00  0.00    +0.000 A 
ATOM     11  C   UNL     1      -9.847   0.393 125.225  0.00  0.00    +0.000 A 
ATOM     12  C   UNL     1      -9.718   1.735 124.836  0.00  0.00    +0.000 A 
ATOM     13  H   UNL     1      -6.498   5.141 122.751  0.00  0.00    +0.000 HD
ATOM     14  H   UNL     1      -5.883   1.497 122.591  0.00  0.00    +0.000 HD
ENDROOT
BRANCH   1  16
ATOM     15  C   UNL     1      -5.351   5.581 119.503  0.00  0.00    +0.000 C 
ATOM     16  O   UNL     1      -5.046   5.178 120.852  0.00  0.00    +0.000 OA
ENDBRANCH   1  16
BRANCH  10  17
ATOM     17  C   UNL     1      -9.041  -1.998 125.286  0.00  0.00    +0.000 C 
ATOM     18  O   UNL     1      -9.503  -2.836 124.517  0.00  0.00    +0.000 OA
BRANCH  17  19
ATOM     19  C   UNL     1      -8.639  -2.440 126.644  0.00  0.00    +0.000 A 
ATOM     20  C   UNL     1      -9.113  -3.658 127.145  0.00  0.00    +0.000 A 
ATOM     21  C   UNL     1      -8.815  -4.025 128.460  0.00  0.00    +0.000 A 
ATOM     22  C   UNL     1      -7.986  -3.219 129.243  0.00  0.00    +0.000 A 
ATOM     23  C   UNL     1      -7.495  -2.017 128.734  0.00  0.00    +0.000 A 
ATOM     24  C   UNL     1      -7.843  -1.614 127.445  0.00  0.00    +0.000 A 
ENDBRANCH  17  19
ENDBRANCH  10  17
TORSDOF 3
ENDMDL
MODEL 2
REMARK VINA RESULT:      -7.7      8.851     10.546
REMARK  Name = Mebendazole
REMARK  4 active torsions:
REMARK  status: ('A' for Active; 'I' for Inactive)
REMARK    1  A    between atoms: C_1  and  O_2
REMARK    2  A    between atoms: O_2  and  C_3
REMARK    3  A    between atoms: C_12  and  C_15
REMARK    4  A    between atoms: C_15  and  C_17
REMARK                            x       y       z     vdW  Elec       q    Type
REMARK                         _______ _______ _______ _____ _____    ______ ____
ROOT
ATOM      1  C   UNL     1     -12.016   6.816 129.384  0.00  0.00    +0.000 C 
ATOM      2  O   UNL     1     -11.267   6.521 128.453  0.00  0.00    +0.000 OA
ATOM      3  N   UNL     1     -11.636   6.945 130.695  0.00  0.00    +0.000 N 
ATOM      4  C   UNL     1     -10.348   6.696 131.116  0.00  0.00    +0.000 A 
ATOM      5  N   UNL     1     -10.015   6.201 132.288  0.00  0.00    +0.000 NA
ATOM      6  C   UNL     1      -8.638   6.151 132.298  0.00  0.00    +0.000 A 
ATOM      7  C   UNL     1      -8.110   6.710 131.140  0.00  0.00    +0.000 A 
ATOM      8  N   UNL     1      -9.223   7.012 130.387  0.00  0.00    +0.000 N 
ATOM      9  C   UNL     1      -6.731   6.873 130.926  0.00  0.00    +0.000 A 
ATOM     10  C   UNL     1      -5.858   6.422 131.939  0.00  0.00    +0.000 A 
ATOM     11  C   UNL     1      -6.378   5.839 133.101  0.00  0.00    +0.000 A 
ATOM     12  C   UNL     1      -7.759   5.675 133.284  0.00  0.00    +0.000 A 
ATOM     13  H   UNL     1     -12.356   6.962 131.405  0.00  0.00    +0.000 HD
ATOM     14  H   UNL     1      -9.232   7.477 129.491  0.00  0.00    +0.000 HD
ENDROOT
BRANCH   1  16
ATOM     15  C   UNL     1     -13.795   7.212 127.874  0.00  0.00    +0.000 C 
ATOM     16  O   UNL     1     -13.357   7.027 129.234  0.00  0.00    +0.000 OA
ENDBRANCH   1  16
BRANCH  10  17
ATOM     17  C   UNL     1      -4.381   6.599 131.758  0.00  0.00    +0.000 C 
ATOM     18  O   UNL     1      -3.691   7.055 132.665  0.00  0.00    +0.000 OA
BRANCH  17  19
ATOM     19  C   UNL     1      -3.711   6.239 130.484  0.00  0.00    +0.000 A 
ATOM     20  C   UNL     1      -3.320   7.247 129.597  0.00  0.00    +0.000 A 
ATOM     21  C   UNL     1      -2.781   6.902 128.354  0.00  0.00    +0.000 A 
ATOM     22  C   UNL     1      -2.563   5.561 128.033  0.00  0.00    +0.000 A 
ATOM     23  C   UNL     1      -2.931   4.556 128.929  0.00  0.00    +0.000 A 
ATOM     24  C   UNL     1      -3.529   4.894 130.142  0.00  0.00    +0.000 A 
ENDBRANCH  17  19
ENDBRANCH  10  17
TORSDOF 3
ENDMDL
MODEL 3
REMARK VINA RESULT:      -7.6      5.574      6.776
REMARK  Name = Mebendazole
REMARK  4 active torsions:
REMARK  status: ('A' for Active; 'I' for Inactive)
REMARK    1  A    between atoms: C_1  and  O_2
REMARK    2  A    between atoms: O_2  and  C_3
REMARK    3  A    between atoms: C_12  and  C_15
REMARK    4  A    between atoms: C_15  and  C_17
REMARK                            x       y       z     vdW  Elec       q    Type
REMARK                         _______ _______ _______ _____ _____    ______ ____
ROOT
ATOM      1  C   UNL     1      -9.930   6.542 129.225  0.00  0.00    +0.000 C 
ATOM      2  O   UNL     1      -9.768   6.020 128.122  0.00  0.00    +0.000 OA
ATOM      3  N   UNL     1      -9.820   5.895 130.430  0.00  0.00    +0.000 N 
ATOM      4  C   UNL     1      -9.564   4.544 130.519  0.00  0.00    +0.000 A 
ATOM      5  N   UNL     1     -10.019   3.746 131.460  0.00  0.00    +0.000 NA
ATOM      6  C   UNL     1      -9.494   2.502 131.184  0.00  0.00    +0.000 A 
ATOM      7  C   UNL     1      -8.626   2.556 130.099  0.00  0.00    +0.000 A 
ATOM      8  N   UNL     1      -8.721   3.861 129.671  0.00  0.00    +0.000 N 
ATOM      9  C   UNL     1      -7.881   1.449 129.657  0.00  0.00    +0.000 A 
ATOM     10  C   UNL     1      -8.052   0.232 130.349  0.00  0.00    +0.000 A 
ATOM     11  C   UNL     1      -8.940   0.161 131.430  0.00  0.00    +0.000 A 
ATOM     12  C   UNL     1      -9.682   1.277 131.843  0.00  0.00    +0.000 A 
ATOM     13  H   UNL     1     -10.192   6.347 131.254  0.00  0.00    +0.000 HD
ATOM     14  H   UNL     1      -8.194   4.285 128.922  0.00  0.00    +0.000 HD
ENDROOT
BRANCH   1  16
ATOM     15  C   UNL     1     -10.533   8.577 128.179  0.00  0.00    +0.000 C 
ATOM     16  O   UNL     1     -10.276   7.851 129.396  0.00  0.00    +0.000 OA
ENDBRANCH   1  16
BRANCH  10  17
ATOM     17  C   UNL     1      -7.258  -0.965 129.922  0.00  0.00    +0.000 C 
ATOM     18  O   UNL     1      -6.164  -1.201 130.427  0.00  0.00    +0.000 OA
BRANCH  17  19
ATOM     19  C   UNL     1      -7.760  -1.892 128.878  0.00  0.00    +0.000 A 
ATOM     20  C   UNL     1      -7.708  -1.514 127.532  0.00  0.00    +0.000 A 
ATOM     21  C   UNL     1      -8.272  -2.345 126.560  0.00  0.00    +0.000 A 
ATOM     22  C   UNL     1      -8.815  -3.579 126.922  0.00  0.00    +0.000 A 
ATOM     23  C   UNL     1      -8.845  -3.966 128.262  0.00  0.00    +0.000 A 
ATOM     24  C   UNL     1      -8.342  -3.112 129.242  0.00  0.00    +0.000 A 
ENDBRANCH  17  19
ENDBRANCH  10  17
TORSDOF 3
ENDMDL
MODEL 4
REMARK VINA RESULT:      -7.5      8.363     10.042
REMARK  Name = Mebendazole
REMARK  4 active torsions:
REMARK  status: ('A' for Active; 'I' for Inactive)
REMARK    1  A    between atoms: C_1  and  O_2
REMARK    2  A    between atoms: O_2  and  C_3
REMARK    3  A    between atoms: C_12  and  C_15
REMARK    4  A    between atoms: C_15  and  C_17
REMARK                            x       y       z     vdW  Elec       q    Type
REMARK                         _______ _______ _______ _____ _____    ______ ____
ROOT
ATOM      1  C   UNL     1      -3.739   6.485 130.824  0.00  0.00    +0.000 C 
ATOM      2  O   UNL     1      -4.134   7.306 131.652  0.00  0.00    +0.000 OA
ATOM      3  N   UNL     1      -4.536   5.599 130.145  0.00  0.00    +0.000 N 
ATOM      4  C   UNL     1      -5.891   5.503 130.375  0.00  0.00    +0.000 A 
ATOM      5  N   UNL     1      -6.598   4.398 130.292  0.00  0.00    +0.000 NA
ATOM      6  C   UNL     1      -7.899   4.762 130.562  0.00  0.00    +0.000 A 
ATOM      7  C   UNL     1      -8.008   6.138 130.729  0.00  0.00    +0.000 A 
ATOM      8  N   UNL     1      -6.706   6.580 130.643  0.00  0.00    +0.000 N 
ATOM      9  C   UNL     1      -9.236   6.793 130.924  0.00  0.00    +0.000 A 
ATOM     10  C   UNL     1     -10.398   5.995 130.971  0.00  0.00    +0.000 A 
ATOM     11  C   UNL     1     -10.298   4.606 130.826  0.00  0.00    +0.000 A 
ATOM     12  C   UNL     1      -9.059   3.975 130.645  0.00  0.00    +0.000 A 
ATOM     13  H   UNL     1      -4.095   4.825 129.667  0.00  0.00    +0.000 HD
ATOM     14  H   UNL     1      -6.397   7.541 130.674  0.00  0.00    +0.000 HD
ENDROOT
BRANCH   1  16
ATOM     15  C   UNL     1      -2.140   6.431 129.080  0.00  0.00    +0.000 C 
ATOM     16  O   UNL     1      -2.425   6.328 130.488  0.00  0.00    +0.000 OA
ENDBRANCH   1  16
BRANCH  10  17
ATOM     17  C   UNL     1     -11.729   6.659 131.155  0.00  0.00    +0.000 C 
ATOM     18  O   UNL     1     -12.256   6.704 132.263  0.00  0.00    +0.000 OA
BRANCH  17  19
ATOM     19  C   UNL     1     -12.450   7.272 130.012  0.00  0.00    +0.000 A 
ATOM     20  C   UNL     1     -12.944   6.459 128.987  0.00  0.00    +0.000 A 
ATOM     21  C   UNL     1     -13.533   7.046 127.864  0.00  0.00    +0.000 A 
ATOM     22  C   UNL     1     -13.698   8.431 127.802  0.00  0.00    +0.000 A 
ATOM     23  C   UNL     1     -13.227   9.240 128.837  0.00  0.00    +0.000 A 
ATOM     24  C   UNL     1     -12.579   8.663 129.929  0.00  0.00    +0.000 A 
ENDBRANCH  17  19
ENDBRANCH  10  17
TORSDOF 3
ENDMDL
MODEL 5
REMARK VINA RESULT:      -7.3      2.235      2.982
REMARK  Name = Mebendazole
REMARK  4 active torsions:
REMARK  status: ('A' for Active; 'I' for Inactive)
REMARK    1  A    between atoms: C_1  and  O_2
REMARK    2  A    between atoms: O_2  and  C_3
REMARK    3  A    between atoms: C_12  and  C_15
REMARK    4  A    between atoms: C_15  and  C_17
REMARK                            x       y       z     vdW  Elec       q    Type
REMARK                         _______ _______ _______ _____ _____    ______ ____
ROOT
ATOM      1  C   UNL     1      -7.279   4.329 119.766  0.00  0.00    +0.000 C 
ATOM      2  O   UNL     1      -8.409   3.898 119.996  0.00  0.00    +0.000 OA
ATOM      3  N   UNL     1      -6.207   4.232 120.616  0.00  0.00    +0.000 N 
ATOM      4  C   UNL     1      -6.312   3.674 121.872  0.00  0.00    +0.000 A 
ATOM      5  N   UNL     1      -5.623   4.048 122.928  0.00  0.00    +0.000 NA
ATOM      6  C   UNL     1      -6.013   3.207 123.948  0.00  0.00    +0.000 A 
ATOM      7  C   UNL     1      -6.897   2.238 123.486  0.00  0.00    +0.000 A 
ATOM      8  N   UNL     1      -7.099   2.584 122.168  0.00  0.00    +0.000 N 
ATOM      9  C   UNL     1      -7.384   1.196 124.293  0.00  0.00    +0.000 A 
ATOM     10  C   UNL     1      -6.959   1.163 125.638  0.00  0.00    +0.000 A 
ATOM     11  C   UNL     1      -6.086   2.146 126.120  0.00  0.00    +0.000 A 
ATOM     12  C   UNL     1      -5.625   3.184 125.296  0.00  0.00    +0.000 A 
ATOM     13  H   UNL     1      -5.398   4.811 120.436  0.00  0.00    +0.000 HD
ATOM     14  H   UNL     1      -7.655   2.077 121.494  0.00  0.00    +0.000 HD
ENDROOT
BRANCH   1  16
ATOM     15  C   UNL     1      -5.784   5.842 118.730  0.00  0.00    +0.000 C 
ATOM     16  O   UNL     1      -6.947   4.999 118.624  0.00  0.00    +0.000 OA
ENDBRANCH   1  16
BRANCH  10  17
ATOM     17  C   UNL     1      -7.438   0.054 126.524  0.00  0.00    +0.000 C 
ATOM     18  O   UNL     1      -7.582   0.235 127.730  0.00  0.00    +0.000 OA
BRANCH  17  19
ATOM     19  C   UNL     1      -7.745  -1.292 125.979  0.00  0.00    +0.000 A 
ATOM     20  C   UNL     1      -6.721  -2.063 125.418  0.00  0.00    +0.000 A 
ATOM     21  C   UNL     1      -7.030  -3.286 124.816  0.00  0.00    +0.000 A 
ATOM     22  C   UNL     1      -8.339  -3.770 124.843  0.00  0.00    +0.000 A 
ATOM     23  C   UNL     1      -9.355  -3.012 125.424  0.00  0.00    +0.000 A 
ATOM     24  C   UNL     1      -9.063  -1.761 125.969  0.00  0.00    +0.000 A 
ENDBRANCH  17  19
ENDBRANCH  10  17
TORSDOF 3
ENDMDL
MODEL 6
REMARK VINA RESULT:      -7.3      7.452      9.994
REMARK  Name = Mebendazole
REMARK  4 active torsions:
REMARK  status: ('A' for Active; 'I' for Inactive)
REMARK    1  A    between atoms: C_1  and  O_2
REMARK    2  A    between atoms: O_2  and  C_3
REMARK    3  A    between atoms: C_12  and  C_15
REMARK    4  A    between atoms: C_15  and  C_17
REMARK                            x       y       z     vdW  Elec       q    Type
REMARK                         _______ _______ _______ _____ _____    ______ ____
ROOT
ATOM      1  C   UNL     1      -6.798   0.578 129.753  0.00  0.00    +0.000 C 
ATOM      2  O   UNL     1      -7.833   0.452 129.099  0.00  0.00    +0.000 OA
ATOM      3  N   UNL     1      -6.461   1.678 130.499  0.00  0.00    +0.000 N 
ATOM      4  C   UNL     1      -7.251   2.807 130.544  0.00  0.00    +0.000 A 
ATOM      5  N   UNL     1      -6.808   4.038 130.670  0.00  0.00    +0.000 NA
ATOM      6  C   UNL     1      -7.929   4.839 130.705  0.00  0.00    +0.000 A 
ATOM      7  C   UNL     1      -9.090   4.074 130.688  0.00  0.00    +0.000 A 
ATOM      8  N   UNL     1      -8.628   2.785 130.545  0.00  0.00    +0.000 N 
ATOM      9  C   UNL     1     -10.376   4.628 130.806  0.00  0.00    +0.000 A 
ATOM     10  C   UNL     1     -10.471   6.031 130.928  0.00  0.00    +0.000 A 
ATOM     11  C   UNL     1      -9.309   6.813 130.925  0.00  0.00    +0.000 A 
ATOM     12  C   UNL     1      -8.038   6.236 130.792  0.00  0.00    +0.000 A 
ATOM     13  H   UNL     1      -5.503   1.776 130.805  0.00  0.00    +0.000 HD
ATOM     14  H   UNL     1      -9.188   1.945 130.537  0.00  0.00    +0.000 HD
ENDROOT
BRANCH   1  16
ATOM     15  C   UNL     1      -4.511   0.122 130.155  0.00  0.00    +0.000 C 
ATOM     16  O   UNL     1      -5.816  -0.370 129.798  0.00  0.00    +0.000 OA
ENDBRANCH   1  16
BRANCH  10  17
ATOM     17  C   UNL     1     -11.823   6.657 131.079  0.00  0.00    +0.000 C 
ATOM     18  O   UNL     1     -12.402   6.640 132.162  0.00  0.00    +0.000 OA
BRANCH  17  19
ATOM     19  C   UNL     1     -12.505   7.307 129.933  0.00  0.00    +0.000 A 
ATOM     20  C   UNL     1     -13.014   6.522 128.893  0.00  0.00    +0.000 A 
ATOM     21  C   UNL     1     -13.566   7.141 127.768  0.00  0.00    +0.000 A 
ATOM     22  C   UNL     1     -13.679   8.532 127.717  0.00  0.00    +0.000 A 
ATOM     23  C   UNL     1     -13.194   9.313 128.766  0.00  0.00    +0.000 A 
ATOM     24  C   UNL     1     -12.583   8.703 129.861  0.00  0.00    +0.000 A 
ENDBRANCH  17  19
ENDBRANCH  10  17
TORSDOF 3
ENDMDL
MODEL 7
REMARK VINA RESULT:      -7.3      9.831     11.105
REMARK  Name = Mebendazole
REMARK  4 active torsions:
REMARK  status: ('A' for Active; 'I' for Inactive)
REMARK    1  A    between atoms: C_1  and  O_2
REMARK    2  A    between atoms: O_2  and  C_3
REMARK    3  A    between atoms: C_12  and  C_15
REMARK    4  A    between atoms: C_15  and  C_17
REMARK                            x       y       z     vdW  Elec       q    Type
REMARK                         _______ _______ _______ _____ _____    ______ ____
ROOT
ATOM      1  C   UNL     1     -12.568   7.842 129.806  0.00  0.00    +0.000 C 
ATOM      2  O   UNL     1     -12.913   7.815 130.988  0.00  0.00    +0.000 OA
ATOM      3  N   UNL     1     -11.324   7.505 129.337  0.00  0.00    +0.000 N 
ATOM      4  C   UNL     1     -10.293   7.145 130.179  0.00  0.00    +0.000 A 
ATOM      5  N   UNL     1      -9.020   7.395 129.967  0.00  0.00    +0.000 NA
ATOM      6  C   UNL     1      -8.345   6.834 131.030  0.00  0.00    +0.000 A 
ATOM      7  C   UNL     1      -9.217   6.148 131.869  0.00  0.00    +0.000 A 
ATOM      8  N   UNL     1     -10.456   6.397 131.323  0.00  0.00    +0.000 N 
ATOM      9  C   UNL     1      -8.787   5.405 132.981  0.00  0.00    +0.000 A 
ATOM     10  C   UNL     1      -7.402   5.384 133.252  0.00  0.00    +0.000 A 
ATOM     11  C   UNL     1      -6.517   6.088 132.427  0.00  0.00    +0.000 A 
ATOM     12  C   UNL     1      -6.974   6.834 131.331  0.00  0.00    +0.000 A 
ATOM     13  H   UNL     1     -11.075   7.776 128.396  0.00  0.00    +0.000 HD
ATOM     14  H   UNL     1     -11.338   6.021 131.642  0.00  0.00    +0.000 HD
ENDROOT
BRANCH   1  16
ATOM     15  C   UNL     1     -13.556   7.291 127.728  0.00  0.00    +0.000 C 
ATOM     16  O   UNL     1     -13.386   8.247 128.791  0.00  0.00    +0.000 OA
ENDBRANCH   1  16
BRANCH  10  17
ATOM     17  C   UNL     1      -6.902   4.583 134.416  0.00  0.00    +0.000 C 
ATOM     18  O   UNL     1      -6.559   3.414 134.269  0.00  0.00    +0.000 OA
BRANCH  17  19
ATOM     19  C   UNL     1      -6.812   5.172 135.776  0.00  0.00    +0.000 A 
ATOM     20  C   UNL     1      -5.766   4.798 136.625  0.00  0.00    +0.000 A 
ATOM     21  C   UNL     1      -5.739   5.277 137.938  0.00  0.00    +0.000 A 
ATOM     22  C   UNL     1      -6.708   6.182 138.375  0.00  0.00    +0.000 A 
ATOM     23  C   UNL     1      -7.738   6.573 137.519  0.00  0.00    +0.000 A 
ATOM     24  C   UNL     1      -7.805   6.048 136.229  0.00  0.00    +0.000 A 
ENDBRANCH  17  19
ENDBRANCH  10  17
TORSDOF 3
ENDMDL
MODEL 8
REMARK VINA RESULT:      -7.2      4.980      7.623
REMARK  Name = Mebendazole
REMARK  4 active torsions:
REMARK  status: ('A' for Active; 'I' for Inactive)
REMARK    1  A    between atoms: C_1  and  O_2
REMARK    2  A    between atoms: O_2  and  C_3
REMARK    3  A    between atoms: C_12  and  C_15
REMARK    4  A    between atoms: C_15  and  C_17
REMARK                            x       y       z     vdW  Elec       q    Type
REMARK                         _______ _______ _______ _____ _____    ______ ____
ROOT
ATOM      1  C   UNL     1      -8.810  -1.638 125.428  0.00  0.00    +0.000 C 
ATOM      2  O   UNL     1      -8.440  -1.704 126.601  0.00  0.00    +0.000 OA
ATOM      3  N   UNL     1      -8.378  -0.711 124.514  0.00  0.00    +0.000 N 
ATOM      4  C   UNL     1      -7.503   0.300 124.847  0.00  0.00    +0.000 A 
ATOM      5  N   UNL     1      -7.500   1.505 124.320  0.00  0.00    +0.000 NA
ATOM      6  C   UNL     1      -6.448   2.171 124.911  0.00  0.00    +0.000 A 
ATOM      7  C   UNL     1      -5.735   1.328 125.756  0.00  0.00    +0.000 A 
ATOM      8  N   UNL     1      -6.453   0.153 125.726  0.00  0.00    +0.000 N 
ATOM      9  C   UNL     1      -4.559   1.720 126.419  0.00  0.00    +0.000 A 
ATOM     10  C   UNL     1      -4.111   3.043 126.218  0.00  0.00    +0.000 A 
ATOM     11  C   UNL     1      -4.833   3.907 125.386  0.00  0.00    +0.000 A 
ATOM     12  C   UNL     1      -6.012   3.494 124.747  0.00  0.00    +0.000 A 
ATOM     13  H   UNL     1      -8.905  -0.600 123.658  0.00  0.00    +0.000 HD
ATOM     14  H   UNL     1      -6.210  -0.710 126.190  0.00  0.00    +0.000 HD
ENDROOT
BRANCH   1  16
ATOM     15  C   UNL     1      -9.328  -3.131 123.667  0.00  0.00    +0.000 C 
ATOM     16  O   UNL     1      -9.738  -2.477 124.883  0.00  0.00    +0.000 OA
ENDBRANCH   1  16
BRANCH  10  17
ATOM     17  C   UNL     1      -2.849   3.492 126.889  0.00  0.00    +0.000 C 
ATOM     18  O   UNL     1      -1.753   3.167 126.441  0.00  0.00    +0.000 OA
BRANCH  17  19
ATOM     19  C   UNL     1      -2.882   4.331 128.112  0.00  0.00    +0.000 A 
ATOM     20  C   UNL     1      -2.393   5.641 128.068  0.00  0.00    +0.000 A 
ATOM     21  C   UNL     1      -2.332   6.395 129.243  0.00  0.00    +0.000 A 
ATOM     22  C   UNL     1      -2.830   5.872 130.438  0.00  0.00    +0.000 A 
ATOM     23  C   UNL     1      -3.340   4.574 130.477  0.00  0.00    +0.000 A 
ATOM     24  C   UNL     1      -3.342   3.795 129.320  0.00  0.00    +0.000 A 
ENDBRANCH  17  19
ENDBRANCH  10  17
TORSDOF 3
ENDMDL
MODEL 9
REMARK VINA RESULT:      -7.1      9.818     11.192
REMARK  Name = Mebendazole
REMARK  4 active torsions:
REMARK  status: ('A' for Active; 'I' for Inactive)
REMARK    1  A    between atoms: C_1  and  O_2
REMARK    2  A    between atoms: O_2  and  C_3
REMARK    3  A    between atoms: C_12  and  C_15
REMARK    4  A    between atoms: C_15  and  C_17
REMARK                            x       y       z     vdW  Elec       q    Type
REMARK                         _______ _______ _______ _____ _____    ______ ____
ROOT
ATOM      1  C   UNL     1     -11.864   6.980 129.131  0.00  0.00    +0.000 C 
ATOM      2  O   UNL     1     -11.106   6.482 128.299  0.00  0.00    +0.000 OA
ATOM      3  N   UNL     1     -11.564   7.187 130.453  0.00  0.00    +0.000 N 
ATOM      4  C   UNL     1     -10.364   6.793 131.004  0.00  0.00    +0.000 A 
ATOM      5  N   UNL     1     -10.197   6.379 132.241  0.00  0.00    +0.000 NA
ATOM      6  C   UNL     1      -8.849   6.126 132.375  0.00  0.00    +0.000 A 
ATOM      7  C   UNL     1      -8.159   6.477 131.220  0.00  0.00    +0.000 A 
ATOM      8  N   UNL     1      -9.154   6.862 130.350  0.00  0.00    +0.000 N 
ATOM      9  C   UNL     1      -6.759   6.410 131.112  0.00  0.00    +0.000 A 
ATOM     10  C   UNL     1      -6.042   5.942 132.234  0.00  0.00    +0.000 A 
ATOM     11  C   UNL     1      -6.729   5.566 133.395  0.00  0.00    +0.000 A 
ATOM     12  C   UNL     1      -8.128   5.629 133.472  0.00  0.00    +0.000 A 
ATOM     13  H   UNL     1     -12.321   7.384 131.092  0.00  0.00    +0.000 HD
ATOM     14  H   UNL     1      -9.026   7.227 129.417  0.00  0.00    +0.000 HD
ENDROOT
BRANCH   1  16
ATOM     15  C   UNL     1     -13.288   8.763 128.504  0.00  0.00    +0.000 C 
ATOM     16  O   UNL     1     -13.141   7.372 128.846  0.00  0.00    +0.000 OA
ENDBRANCH   1  16
BRANCH  10  17
ATOM     17  C   UNL     1      -4.547   5.878 132.166  0.00  0.00    +0.000 C 
ATOM     18  O   UNL     1      -3.987   4.946 131.596  0.00  0.00    +0.000 OA
BRANCH  17  19
ATOM     19  C   UNL     1      -3.700   6.926 132.788  0.00  0.00    +0.000 A 
ATOM     20  C   UNL     1      -3.519   6.939 134.175  0.00  0.00    +0.000 A 
ATOM     21  C   UNL     1      -2.805   7.984 134.767  0.00  0.00    +0.000 A 
ATOM     22  C   UNL     1      -2.211   8.966 133.973  0.00  0.00    +0.000 A 
ATOM     23  C   UNL     1      -2.372   8.940 132.588  0.00  0.00    +0.000 A 
ATOM     24  C   UNL     1      -3.139   7.935 131.997  0.00  0.00    +0.000 A 
ENDBRANCH  17  19
ENDBRANCH  10  17
TORSDOF 3
ENDMDL
