MODEL 1
REMARK VINA RESULT:      -6.9      0.000      0.000
REMARK  Name = Mebeverine
REMARK  19 active torsions:
REMARK  status: ('A' for Active; 'I' for Inactive)
REMARK    1  A    between atoms: C_1  and  C_2
REMARK    2  A    between atoms: C_2  and  N_3
REMARK    3  A    between atoms: N_3  and  C_4
REMARK    4  A    between atoms: N_3  and  C_21
REMARK    5  A    between atoms: C_4  and  C_5
REMARK    6  A    between atoms: C_5  and  C_6
REMARK    7  A    between atoms: C_6  and  C_7
REMARK    8  A    between atoms: C_7  and  O_8
REMARK    9  A    between atoms: O_8  and  C_9
REMARK   10  A    between atoms: C_9  and  C_11
REMARK   11  A    between atoms: C_13  and  O_14
REMARK   12  A    between atoms: O_14  and  C_15
REMARK   13  A    between atoms: C_16  and  O_17
REMARK   14  A    between atoms: O_17  and  C_18
REMARK   15  A    between atoms: C_21  and  C_22
REMARK   16  A    between atoms: C_21  and  C_23
REMARK   17  A    between atoms: C_23  and  C_24
REMARK   18  A    between atoms: C_27  and  O_28
REMARK   19  A    between atoms: O_28  and  C_29
REMARK                            x       y       z     vdW  Elec       q    Type
REMARK                         _______ _______ _______ _____ _____    ______ ____
ROOT
ATOM      1  C   UNL     1      -5.955   3.676 129.371  0.00  0.00    +0.000 C 
ENDROOT
BRANCH   1   2
ATOM      2  C   UNL     1      -5.427   4.136 128.024  0.00  0.00    +0.000 C 
BRANCH   2   3
ATOM      3  N   UNL     1      -4.441   3.201 127.425  0.00  0.00    +0.000 NA
BRANCH   3   5
ATOM      4  C   UNL     1      -1.912   3.189 126.943  0.00  0.00    +0.000 C 
ATOM      5  C   UNL     1      -3.252   3.903 126.866  0.00  0.00    +0.000 C 
ENDBRANCH   3   5
BRANCH   3   6
ATOM      6  C   UNL     1      -5.089   2.400 126.335  0.00  0.00    +0.000 C 
ATOM      7  C   UNL     1      -5.300   0.928 126.808  0.00  0.00    +0.000 C 
BRANCH   6   8
ATOM      8  C   UNL     1      -6.451   2.984 125.834  0.00  0.00    +0.000 C 
BRANCH   8   9
ATOM      9  C   UNL     1      -6.458   3.397 124.379  0.00  0.00    +0.000 A 
ATOM     10  C   UNL     1      -7.417   2.889 123.502  0.00  0.00    +0.000 A 
ATOM     11  C   UNL     1      -7.281   3.110 122.127  0.00  0.00    +0.000 A 
ATOM     12  C   UNL     1      -6.224   3.880 121.628  0.00  0.00    +0.000 A 
ATOM     13  C   UNL     1      -5.299   4.413 122.509  0.00  0.00    +0.000 A 
ATOM     14  C   UNL     1      -5.473   4.244 123.865  0.00  0.00    +0.000 A 
BRANCH  12  15
ATOM     15  O   UNL     1      -6.192   4.101 120.278  0.00  0.00    +0.000 OA
ATOM     16  C   UNL     1      -5.344   5.174 119.865  0.00  0.00    +0.000 C 
ENDBRANCH  12  15
ENDBRANCH   8   9
ENDBRANCH   6   8
ENDBRANCH   3   6
ENDBRANCH   2   3
ENDBRANCH   1   2
BRANCH   1  17
ATOM     17  C   UNL     1      -7.329   4.184 129.739  0.00  0.00    +0.000 C 
BRANCH  17  18
ATOM     18  C   UNL     1      -7.240   4.847 131.118  0.00  0.00    +0.000 C 
BRANCH  18  19
ATOM     19  O   UNL     1      -8.123   5.977 131.144  0.00  0.00    +0.000 OA
BRANCH  19  20
ATOM     20  C   UNL     1      -9.346   5.698 131.677  0.00  0.00    +0.000 C 
ATOM     21  O   UNL     1      -9.571   4.947 132.600  0.00  0.00    +0.000 OA
BRANCH  20  22
ATOM     22  C   UNL     1     -10.415   6.459 130.972  0.00  0.00    +0.000 A 
ATOM     23  C   UNL     1     -10.128   7.039 129.728  0.00  0.00    +0.000 A 
ATOM     24  C   UNL     1     -11.039   7.921 129.119  0.00  0.00    +0.000 A 
ATOM     25  C   UNL     1     -12.304   8.122 129.704  0.00  0.00    +0.000 A 
ATOM     26  C   UNL     1     -12.578   7.551 130.952  0.00  0.00    +0.000 A 
ATOM     27  C   UNL     1     -11.639   6.729 131.588  0.00  0.00    +0.000 A 
BRANCH  24  28
ATOM     28  O   UNL     1     -10.561   8.541 127.984  0.00  0.00    +0.000 OA
ATOM     29  C   UNL     1     -10.802   7.890 126.734  0.00  0.00    +0.000 C 
ENDBRANCH  24  28
BRANCH  25  30
ATOM     30  O   UNL     1     -13.215   8.855 129.001  0.00  0.00    +0.000 OA
ATOM     31  C   UNL     1     -13.402  10.226 129.281  0.00  0.00    +0.000 C 
ENDBRANCH  25  30
ENDBRANCH  20  22
ENDBRANCH  19  20
ENDBRANCH  18  19
ENDBRANCH  17  18
ENDBRANCH   1  17
TORSDOF 14
ENDMDL
MODEL 2
REMARK VINA RESULT:      -6.9      4.574      9.487
REMARK  Name = Mebeverine
REMARK  19 active torsions:
REMARK  status: ('A' for Active; 'I' for Inactive)
REMARK    1  A    between atoms: C_1  and  C_2
REMARK    2  A    between atoms: C_2  and  N_3
REMARK    3  A    between atoms: N_3  and  C_4
REMARK    4  A    between atoms: N_3  and  C_21
REMARK    5  A    between atoms: C_4  and  C_5
REMARK    6  A    between atoms: C_5  and  C_6
REMARK    7  A    between atoms: C_6  and  C_7
REMARK    8  A    between atoms: C_7  and  O_8
REMARK    9  A    between atoms: O_8  and  C_9
REMARK   10  A    between atoms: C_9  and  C_11
REMARK   11  A    between atoms: C_13  and  O_14
REMARK   12  A    between atoms: O_14  and  C_15
REMARK   13  A    between atoms: C_16  and  O_17
REMARK   14  A    between atoms: O_17  and  C_18
REMARK   15  A    between atoms: C_21  and  C_22
REMARK   16  A    between atoms: C_21  and  C_23
REMARK   17  A    between atoms: C_23  and  C_24
REMARK   18  A    between atoms: C_27  and  O_28
REMARK   19  A    between atoms: O_28  and  C_29
REMARK                            x       y       z     vdW  Elec       q    Type
REMARK                         _______ _______ _______ _____ _____    ______ ____
ROOT
ATOM      1  C   UNL     1      -8.207   0.971 132.136  0.00  0.00    +0.000 C 
ENDROOT
BRANCH   1   2
ATOM      2  C   UNL     1      -9.376   1.920 132.330  0.00  0.00    +0.000 C 
BRANCH   2   3
ATOM      3  N   UNL     1      -9.115   3.291 131.825  0.00  0.00    +0.000 NA
BRANCH   3   5
ATOM      4  C   UNL     1      -7.480   3.793 129.900  0.00  0.00    +0.000 C 
ATOM      5  C   UNL     1      -7.709   3.475 131.369  0.00  0.00    +0.000 C 
ENDBRANCH   3   5
BRANCH   3   6
ATOM      6  C   UNL     1      -9.415   4.299 132.895  0.00  0.00    +0.000 C 
ATOM      7  C   UNL     1      -8.707   3.893 134.224  0.00  0.00    +0.000 C 
BRANCH   6   8
ATOM      8  C   UNL     1      -9.019   5.765 132.522  0.00  0.00    +0.000 C 
BRANCH   8   9
ATOM      9  C   UNL     1     -10.013   6.475 131.629  0.00  0.00    +0.000 A 
ATOM     10  C   UNL     1     -11.368   6.507 131.960  0.00  0.00    +0.000 A 
ATOM     11  C   UNL     1     -12.297   6.976 131.025  0.00  0.00    +0.000 A 
ATOM     12  C   UNL     1     -11.876   7.464 129.782  0.00  0.00    +0.000 A 
ATOM     13  C   UNL     1     -10.526   7.464 129.477  0.00  0.00    +0.000 A 
ATOM     14  C   UNL     1      -9.612   7.059 130.425  0.00  0.00    +0.000 A 
BRANCH  12  15
ATOM     15  O   UNL     1     -12.838   7.960 128.946  0.00  0.00    +0.000 OA
ATOM     16  C   UNL     1     -12.976   9.382 128.967  0.00  0.00    +0.000 C 
ENDBRANCH  12  15
ENDBRANCH   8   9
ENDBRANCH   6   8
ENDBRANCH   3   6
ENDBRANCH   2   3
ENDBRANCH   1   2
BRANCH   1  17
ATOM     17  C   UNL     1      -8.376  -0.056 131.041  0.00  0.00    +0.000 C 
BRANCH  17  18
ATOM     18  C   UNL     1      -7.583  -1.308 131.433  0.00  0.00    +0.000 C 
BRANCH  18  19
ATOM     19  O   UNL     1      -6.721  -1.667 130.344  0.00  0.00    +0.000 OA
BRANCH  19  20
ATOM     20  C   UNL     1      -6.941  -2.926 129.870  0.00  0.00    +0.000 C 
ATOM     21  O   UNL     1      -6.655  -3.961 130.429  0.00  0.00    +0.000 OA
BRANCH  20  22
ATOM     22  C   UNL     1      -7.609  -2.880 128.540  0.00  0.00    +0.000 A 
ATOM     23  C   UNL     1      -7.351  -1.796 127.688  0.00  0.00    +0.000 A 
ATOM     24  C   UNL     1      -8.099  -1.613 126.510  0.00  0.00    +0.000 A 
ATOM     25  C   UNL     1      -9.027  -2.598 126.121  0.00  0.00    +0.000 A 
ATOM     26  C   UNL     1      -9.290  -3.668 126.983  0.00  0.00    +0.000 A 
ATOM     27  C   UNL     1      -8.591  -3.808 128.189  0.00  0.00    +0.000 A 
BRANCH  24  28
ATOM     28  O   UNL     1      -7.851  -0.426 125.856  0.00  0.00    +0.000 OA
ATOM     29  C   UNL     1      -7.553   0.715 126.666  0.00  0.00    +0.000 C 
ENDBRANCH  24  28
BRANCH  25  30
ATOM     30  O   UNL     1      -9.613  -2.463 124.896  0.00  0.00    +0.000 OA
ATOM     31  C   UNL     1      -9.195  -3.262 123.809  0.00  0.00    +0.000 C 
ENDBRANCH  25  30
ENDBRANCH  20  22
ENDBRANCH  19  20
ENDBRANCH  18  19
ENDBRANCH  17  18
ENDBRANCH   1  17
TORSDOF 14
ENDMDL
MODEL 3
REMARK VINA RESULT:      -6.8      2.403      3.936
REMARK  Name = Mebeverine
REMARK  19 active torsions:
REMARK  status: ('A' for Active; 'I' for Inactive)
REMARK    1  A    between atoms: C_1  and  C_2
REMARK    2  A    between atoms: C_2  and  N_3
REMARK    3  A    between atoms: N_3  and  C_4
REMARK    4  A    between atoms: N_3  and  C_21
REMARK    5  A    between atoms: C_4  and  C_5
REMARK    6  A    between atoms: C_5  and  C_6
REMARK    7  A    between atoms: C_6  and  C_7
REMARK    8  A    between atoms: C_7  and  O_8
REMARK    9  A    between atoms: O_8  and  C_9
REMARK   10  A    between atoms: C_9  and  C_11
REMARK   11  A    between atoms: C_13  and  O_14
REMARK   12  A    between atoms: O_14  and  C_15
REMARK   13  A    between atoms: C_16  and  O_17
REMARK   14  A    between atoms: O_17  and  C_18
REMARK   15  A    between atoms: C_21  and  C_22
REMARK   16  A    between atoms: C_21  and  C_23
REMARK   17  A    between atoms: C_23  and  C_24
REMARK   18  A    between atoms: C_27  and  O_28
REMARK   19  A    between atoms: O_28  and  C_29
REMARK                            x       y       z     vdW  Elec       q    Type
REMARK                         _______ _______ _______ _____ _____    ______ ____
ROOT
ATOM      1  C   UNL     1      -6.385   6.453 131.963  0.00  0.00    +0.000 C 
ENDROOT
BRANCH   1   2
ATOM      2  C   UNL     1      -5.010   5.824 131.842  0.00  0.00    +0.000 C 
BRANCH   2   3
ATOM      3  N   UNL     1      -3.966   6.770 131.376  0.00  0.00    +0.000 NA
BRANCH   3   5
ATOM      4  C   UNL     1      -3.679   8.090 129.184  0.00  0.00    +0.000 C 
ATOM      5  C   UNL     1      -4.498   7.790 130.429  0.00  0.00    +0.000 C 
ENDBRANCH   3   5
BRANCH   3   6
ATOM      6  C   UNL     1      -2.853   6.019 130.705  0.00  0.00    +0.000 C 
ATOM      7  C   UNL     1      -1.622   5.925 131.659  0.00  0.00    +0.000 C 
BRANCH   6   8
ATOM      8  C   UNL     1      -3.249   4.584 130.224  0.00  0.00    +0.000 C 
BRANCH   8   9
ATOM      9  C   UNL     1      -3.633   4.496 128.764  0.00  0.00    +0.000 A 
ATOM     10  C   UNL     1      -4.961   4.659 128.369  0.00  0.00    +0.000 A 
ATOM     11  C   UNL     1      -5.331   4.364 127.052  0.00  0.00    +0.000 A 
ATOM     12  C   UNL     1      -4.373   3.960 126.114  0.00  0.00    +0.000 A 
ATOM     13  C   UNL     1      -3.052   3.839 126.505  0.00  0.00    +0.000 A 
ATOM     14  C   UNL     1      -2.684   4.190 127.785  0.00  0.00    +0.000 A 
BRANCH  12  15
ATOM     15  O   UNL     1      -4.802   3.748 124.833  0.00  0.00    +0.000 OA
ATOM     16  C   UNL     1      -6.002   4.440 124.479  0.00  0.00    +0.000 C 
ENDBRANCH  12  15
ENDBRANCH   8   9
ENDBRANCH   6   8
ENDBRANCH   3   6
ENDBRANCH   2   3
ENDBRANCH   1   2
BRANCH   1  17
ATOM     17  C   UNL     1      -7.436   5.908 131.023  0.00  0.00    +0.000 C 
BRANCH  17  18
ATOM     18  C   UNL     1      -8.090   4.693 131.691  0.00  0.00    +0.000 C 
BRANCH  18  19
ATOM     19  O   UNL     1      -9.452   5.017 132.004  0.00  0.00    +0.000 OA
BRANCH  19  20
ATOM     20  C   UNL     1     -10.323   4.730 130.996  0.00  0.00    +0.000 C 
ATOM     21  O   UNL     1     -10.506   3.643 130.495  0.00  0.00    +0.000 OA
BRANCH  20  22
ATOM     22  C   UNL     1     -11.060   5.953 130.572  0.00  0.00    +0.000 A 
ATOM     23  C   UNL     1     -10.656   6.618 129.405  0.00  0.00    +0.000 A 
ATOM     24  C   UNL     1     -11.195   7.874 129.070  0.00  0.00    +0.000 A 
ATOM     25  C   UNL     1     -12.241   8.407 129.848  0.00  0.00    +0.000 A 
ATOM     26  C   UNL     1     -12.628   7.745 131.018  0.00  0.00    +0.000 A 
ATOM     27  C   UNL     1     -12.039   6.528 131.384  0.00  0.00    +0.000 A 
BRANCH  24  28
ATOM     28  O   UNL     1     -10.593   8.483 127.990  0.00  0.00    +0.000 OA
ATOM     29  C   UNL     1     -10.801   7.889 126.706  0.00  0.00    +0.000 C 
ENDBRANCH  24  28
BRANCH  25  30
ATOM     30  O   UNL     1     -12.843   9.546 129.399  0.00  0.00    +0.000 OA
ATOM     31  C   UNL     1     -13.759   9.498 128.324  0.00  0.00    +0.000 C 
ENDBRANCH  25  30
ENDBRANCH  20  22
ENDBRANCH  19  20
ENDBRANCH  18  19
ENDBRANCH  17  18
ENDBRANCH   1  17
TORSDOF 14
ENDMDL
MODEL 4
REMARK VINA RESULT:      -6.7      4.582      5.208
REMARK  Name = Mebeverine
REMARK  19 active torsions:
REMARK  status: ('A' for Active; 'I' for Inactive)
REMARK    1  A    between atoms: C_1  and  C_2
REMARK    2  A    between atoms: C_2  and  N_3
REMARK    3  A    between atoms: N_3  and  C_4
REMARK    4  A    between atoms: N_3  and  C_21
REMARK    5  A    between atoms: C_4  and  C_5
REMARK    6  A    between atoms: C_5  and  C_6
REMARK    7  A    between atoms: C_6  and  C_7
REMARK    8  A    between atoms: C_7  and  O_8
REMARK    9  A    between atoms: O_8  and  C_9
REMARK   10  A    between atoms: C_9  and  C_11
REMARK   11  A    between atoms: C_13  and  O_14
REMARK   12  A    between atoms: O_14  and  C_15
REMARK   13  A    between atoms: C_16  and  O_17
REMARK   14  A    between atoms: O_17  and  C_18
REMARK   15  A    between atoms: C_21  and  C_22
REMARK   16  A    between atoms: C_21  and  C_23
REMARK   17  A    between atoms: C_23  and  C_24
REMARK   18  A    between atoms: C_27  and  O_28
REMARK   19  A    between atoms: O_28  and  C_29
REMARK                            x       y       z     vdW  Elec       q    Type
REMARK                         _______ _______ _______ _____ _____    ______ ____
ROOT
ATOM      1  C   UNL     1      -8.257   1.021 131.460  0.00  0.00    +0.000 C 
ENDROOT
BRANCH   1   2
ATOM      2  C   UNL     1      -8.137  -0.392 130.920  0.00  0.00    +0.000 C 
BRANCH   2   3
ATOM      3  N   UNL     1      -6.790  -0.986 131.111  0.00  0.00    +0.000 NA
BRANCH   3   5
ATOM      4  C   UNL     1      -4.337  -0.252 131.383  0.00  0.00    +0.000 C 
ATOM      5  C   UNL     1      -5.693  -0.055 130.724  0.00  0.00    +0.000 C 
ENDBRANCH   3   5
BRANCH   3   6
ATOM      6  C   UNL     1      -6.664  -2.245 130.305  0.00  0.00    +0.000 C 
ATOM      7  C   UNL     1      -6.173  -3.414 131.214  0.00  0.00    +0.000 C 
BRANCH   6   8
ATOM      8  C   UNL     1      -7.980  -2.672 129.575  0.00  0.00    +0.000 C 
BRANCH   8   9
ATOM      9  C   UNL     1      -7.834  -2.868 128.082  0.00  0.00    +0.000 A 
ATOM     10  C   UNL     1      -6.738  -2.337 127.401  0.00  0.00    +0.000 A 
ATOM     11  C   UNL     1      -6.726  -2.341 126.002  0.00  0.00    +0.000 A 
ATOM     12  C   UNL     1      -7.777  -2.920 125.280  0.00  0.00    +0.000 A 
ATOM     13  C   UNL     1      -8.841  -3.478 125.964  0.00  0.00    +0.000 A 
ATOM     14  C   UNL     1      -8.818  -3.527 127.341  0.00  0.00    +0.000 A 
BRANCH  12  15
ATOM     15  O   UNL     1      -7.665  -2.937 123.917  0.00  0.00    +0.000 OA
ATOM     16  C   UNL     1      -8.907  -2.900 123.212  0.00  0.00    +0.000 C 
ENDBRANCH  12  15
ENDBRANCH   8   9
ENDBRANCH   6   8
ENDBRANCH   3   6
ENDBRANCH   2   3
ENDBRANCH   1   2
BRANCH   1  17
ATOM     17  C   UNL     1      -8.985   1.999 130.568  0.00  0.00    +0.000 C 
BRANCH  17  18
ATOM     18  C   UNL     1      -8.714   3.415 131.089  0.00  0.00    +0.000 C 
BRANCH  18  19
ATOM     19  O   UNL     1      -9.780   4.275 130.663  0.00  0.00    +0.000 OA
BRANCH  19  20
ATOM     20  C   UNL     1     -10.052   5.278 131.546  0.00  0.00    +0.000 C 
ATOM     21  O   UNL     1      -9.654   5.356 132.686  0.00  0.00    +0.000 OA
BRANCH  20  22
ATOM     22  C   UNL     1     -10.922   6.311 130.918  0.00  0.00    +0.000 A 
ATOM     23  C   UNL     1     -10.531   6.876 129.695  0.00  0.00    +0.000 A 
ATOM     24  C   UNL     1     -11.217   7.983 129.162  0.00  0.00    +0.000 A 
ATOM     25  C   UNL     1     -12.383   8.446 129.801  0.00  0.00    +0.000 A 
ATOM     26  C   UNL     1     -12.758   7.888 131.027  0.00  0.00    +0.000 A 
ATOM     27  C   UNL     1     -12.031   6.830 131.588  0.00  0.00    +0.000 A 
BRANCH  24  28
ATOM     28  O   UNL     1     -10.628   8.534 128.044  0.00  0.00    +0.000 OA
ATOM     29  C   UNL     1     -10.903   7.910 126.787  0.00  0.00    +0.000 C 
ENDBRANCH  24  28
BRANCH  25  30
ATOM     30  O   UNL     1     -13.106   9.414 129.167  0.00  0.00    +0.000 OA
ATOM     31  C   UNL     1     -13.428  10.620 129.830  0.00  0.00    +0.000 C 
ENDBRANCH  25  30
ENDBRANCH  20  22
ENDBRANCH  19  20
ENDBRANCH  18  19
ENDBRANCH  17  18
ENDBRANCH   1  17
TORSDOF 14
ENDMDL
MODEL 5
REMARK VINA RESULT:      -6.7      5.537      8.578
REMARK  Name = Mebeverine
REMARK  19 active torsions:
REMARK  status: ('A' for Active; 'I' for Inactive)
REMARK    1  A    between atoms: C_1  and  C_2
REMARK    2  A    between atoms: C_2  and  N_3
REMARK    3  A    between atoms: N_3  and  C_4
REMARK    4  A    between atoms: N_3  and  C_21
REMARK    5  A    between atoms: C_4  and  C_5
REMARK    6  A    between atoms: C_5  and  C_6
REMARK    7  A    between atoms: C_6  and  C_7
REMARK    8  A    between atoms: C_7  and  O_8
REMARK    9  A    between atoms: O_8  and  C_9
REMARK   10  A    between atoms: C_9  and  C_11
REMARK   11  A    between atoms: C_13  and  O_14
REMARK   12  A    between atoms: O_14  and  C_15
REMARK   13  A    between atoms: C_16  and  O_17
REMARK   14  A    between atoms: O_17  and  C_18
REMARK   15  A    between atoms: C_21  and  C_22
REMARK   16  A    between atoms: C_21  and  C_23
REMARK   17  A    between atoms: C_23  and  C_24
REMARK   18  A    between atoms: C_27  and  O_28
REMARK   19  A    between atoms: O_28  and  C_29
REMARK                            x       y       z     vdW  Elec       q    Type
REMARK                         _______ _______ _______ _____ _____    ______ ____
ROOT
ATOM      1  C   UNL     1      -9.246   0.339 123.566  0.00  0.00    +0.000 C 
ENDROOT
BRANCH   1   2
ATOM      2  C   UNL     1      -7.795  -0.077 123.412  0.00  0.00    +0.000 C 
BRANCH   2   3
ATOM      3  N   UNL     1      -7.626  -1.503 123.035  0.00  0.00    +0.000 NA
BRANCH   3   5
ATOM      4  C   UNL     1      -9.179  -3.422 123.765  0.00  0.00    +0.000 C 
ATOM      5  C   UNL     1      -8.926  -2.213 122.879  0.00  0.00    +0.000 C 
ENDBRANCH   3   5
BRANCH   3   6
ATOM      6  C   UNL     1      -6.806  -2.215 124.071  0.00  0.00    +0.000 C 
ATOM      7  C   UNL     1      -5.496  -2.766 123.427  0.00  0.00    +0.000 C 
BRANCH   6   8
ATOM      8  C   UNL     1      -6.444  -1.338 125.315  0.00  0.00    +0.000 C 
BRANCH   8   9
ATOM      9  C   UNL     1      -6.609  -2.039 126.645  0.00  0.00    +0.000 A 
ATOM     10  C   UNL     1      -7.838  -2.588 127.010  0.00  0.00    +0.000 A 
ATOM     11  C   UNL     1      -8.031  -3.040 128.321  0.00  0.00    +0.000 A 
ATOM     12  C   UNL     1      -6.987  -2.996 129.252  0.00  0.00    +0.000 A 
ATOM     13  C   UNL     1      -5.759  -2.485 128.870  0.00  0.00    +0.000 A 
ATOM     14  C   UNL     1      -5.557  -2.100 127.563  0.00  0.00    +0.000 A 
BRANCH  12  15
ATOM     15  O   UNL     1      -7.235  -3.510 130.495  0.00  0.00    +0.000 OA
ATOM     16  C   UNL     1      -6.151  -3.395 131.420  0.00  0.00    +0.000 C 
ENDBRANCH  12  15
ENDBRANCH   8   9
ENDBRANCH   6   8
ENDBRANCH   3   6
ENDBRANCH   2   3
ENDBRANCH   1   2
BRANCH   1  17
ATOM     17  C   UNL     1      -9.507   1.422 124.588  0.00  0.00    +0.000 C 
BRANCH  17  18
ATOM     18  C   UNL     1      -9.372   0.805 125.984  0.00  0.00    +0.000 C 
BRANCH  18  19
ATOM     19  O   UNL     1      -8.858   1.800 126.880  0.00  0.00    +0.000 OA
BRANCH  19  20
ATOM     20  C   UNL     1      -7.906   1.323 127.732  0.00  0.00    +0.000 C 
ATOM     21  O   UNL     1      -8.079   0.521 128.623  0.00  0.00    +0.000 OA
BRANCH  20  22
ATOM     22  C   UNL     1      -6.577   1.918 127.423  0.00  0.00    +0.000 A 
ATOM     23  C   UNL     1      -5.809   2.446 128.471  0.00  0.00    +0.000 A 
ATOM     24  C   UNL     1      -4.640   3.183 128.206  0.00  0.00    +0.000 A 
ATOM     25  C   UNL     1      -4.172   3.284 126.882  0.00  0.00    +0.000 A 
ATOM     26  C   UNL     1      -4.950   2.768 125.840  0.00  0.00    +0.000 A 
ATOM     27  C   UNL     1      -6.149   2.094 126.105  0.00  0.00    +0.000 A 
BRANCH  24  28
ATOM     28  O   UNL     1      -4.077   3.777 129.315  0.00  0.00    +0.000 OA
ATOM     29  C   UNL     1      -4.162   5.202 129.405  0.00  0.00    +0.000 C 
ENDBRANCH  24  28
BRANCH  25  30
ATOM     30  O   UNL     1      -2.954   3.868 126.687  0.00  0.00    +0.000 OA
ATOM     31  C   UNL     1      -1.790   3.077 126.561  0.00  0.00    +0.000 C 
ENDBRANCH  25  30
ENDBRANCH  20  22
ENDBRANCH  19  20
ENDBRANCH  18  19
ENDBRANCH  17  18
ENDBRANCH   1  17
TORSDOF 14
ENDMDL
MODEL 6
REMARK VINA RESULT:      -6.7      3.415      8.702
REMARK  Name = Mebeverine
REMARK  19 active torsions:
REMARK  status: ('A' for Active; 'I' for Inactive)
REMARK    1  A    between atoms: C_1  and  C_2
REMARK    2  A    between atoms: C_2  and  N_3
REMARK    3  A    between atoms: N_3  and  C_4
REMARK    4  A    between atoms: N_3  and  C_21
REMARK    5  A    between atoms: C_4  and  C_5
REMARK    6  A    between atoms: C_5  and  C_6
REMARK    7  A    between atoms: C_6  and  C_7
REMARK    8  A    between atoms: C_7  and  O_8
REMARK    9  A    between atoms: O_8  and  C_9
REMARK   10  A    between atoms: C_9  and  C_11
REMARK   11  A    between atoms: C_13  and  O_14
REMARK   12  A    between atoms: O_14  and  C_15
REMARK   13  A    between atoms: C_16  and  O_17
REMARK   14  A    between atoms: O_17  and  C_18
REMARK   15  A    between atoms: C_21  and  C_22
REMARK   16  A    between atoms: C_21  and  C_23
REMARK   17  A    between atoms: C_23  and  C_24
REMARK   18  A    between atoms: C_27  and  O_28
REMARK   19  A    between atoms: O_28  and  C_29
REMARK                            x       y       z     vdW  Elec       q    Type
REMARK                         _______ _______ _______ _____ _____    ______ ____
ROOT
ATOM      1  C   UNL     1      -8.483   3.759 129.137  0.00  0.00    +0.000 C 
ENDROOT
BRANCH   1   2
ATOM      2  C   UNL     1      -9.251   3.145 130.293  0.00  0.00    +0.000 C 
BRANCH   2   3
ATOM      3  N   UNL     1      -8.544   3.248 131.594  0.00  0.00    +0.000 NA
BRANCH   3   5
ATOM      4  C   UNL     1      -9.262   0.781 131.758  0.00  0.00    +0.000 C 
ATOM      5  C   UNL     1      -8.426   1.935 132.287  0.00  0.00    +0.000 C 
ENDBRANCH   3   5
BRANCH   3   6
ATOM      6  C   UNL     1      -9.261   4.210 132.495  0.00  0.00    +0.000 C 
ATOM      7  C   UNL     1      -8.976   3.857 133.987  0.00  0.00    +0.000 C 
BRANCH   6   8
ATOM      8  C   UNL     1      -8.907   5.712 132.239  0.00  0.00    +0.000 C 
BRANCH   8   9
ATOM      9  C   UNL     1      -9.949   6.476 131.451  0.00  0.00    +0.000 A 
ATOM     10  C   UNL     1     -11.289   6.455 131.840  0.00  0.00    +0.000 A 
ATOM     11  C   UNL     1     -12.264   6.985 130.987  0.00  0.00    +0.000 A 
ATOM     12  C   UNL     1     -11.903   7.582 129.774  0.00  0.00    +0.000 A 
ATOM     13  C   UNL     1     -10.568   7.633 129.414  0.00  0.00    +0.000 A 
ATOM     14  C   UNL     1      -9.608   7.167 130.286  0.00  0.00    +0.000 A 
BRANCH  12  15
ATOM     15  O   UNL     1     -12.906   8.130 129.023  0.00  0.00    +0.000 OA
ATOM     16  C   UNL     1     -13.610   7.202 128.194  0.00  0.00    +0.000 C 
ENDBRANCH  12  15
ENDBRANCH   8   9
ENDBRANCH   6   8
ENDBRANCH   3   6
ENDBRANCH   2   3
ENDBRANCH   1   2
BRANCH   1  17
ATOM     17  C   UNL     1      -7.157   3.108 128.818  0.00  0.00    +0.000 C 
BRANCH  17  18
ATOM     18  C   UNL     1      -6.743   3.534 127.405  0.00  0.00    +0.000 C 
BRANCH  18  19
ATOM     19  O   UNL     1      -5.966   4.737 127.496  0.00  0.00    +0.000 OA
BRANCH  19  20
ATOM     20  C   UNL     1      -4.676   4.581 127.084  0.00  0.00    +0.000 C 
ATOM     21  O   UNL     1      -4.313   4.137 126.017  0.00  0.00    +0.000 OA
BRANCH  20  22
ATOM     22  C   UNL     1      -3.727   5.046 128.134  0.00  0.00    +0.000 A 
ATOM     23  C   UNL     1      -3.646   4.333 129.339  0.00  0.00    +0.000 A 
ATOM     24  C   UNL     1      -2.910   4.840 130.426  0.00  0.00    +0.000 A 
ATOM     25  C   UNL     1      -2.146   6.011 130.257  0.00  0.00    +0.000 A 
ATOM     26  C   UNL     1      -2.244   6.724 129.057  0.00  0.00    +0.000 A 
ATOM     27  C   UNL     1      -3.033   6.250 128.002  0.00  0.00    +0.000 A 
BRANCH  24  28
ATOM     28  O   UNL     1      -3.050   4.122 131.593  0.00  0.00    +0.000 OA
ATOM     29  C   UNL     1      -4.127   4.488 132.460  0.00  0.00    +0.000 C 
ENDBRANCH  24  28
BRANCH  25  30
ATOM     30  O   UNL     1      -1.323   6.379 131.281  0.00  0.00    +0.000 OA
ATOM     31  C   UNL     1      -1.718   7.381 132.195  0.00  0.00    +0.000 C 
ENDBRANCH  25  30
ENDBRANCH  20  22
ENDBRANCH  19  20
ENDBRANCH  18  19
ENDBRANCH  17  18
ENDBRANCH   1  17
TORSDOF 14
ENDMDL
MODEL 7
REMARK VINA RESULT:      -6.6      3.355      9.124
REMARK  Name = Mebeverine
REMARK  19 active torsions:
REMARK  status: ('A' for Active; 'I' for Inactive)
REMARK    1  A    between atoms: C_1  and  C_2
REMARK    2  A    between atoms: C_2  and  N_3
REMARK    3  A    between atoms: N_3  and  C_4
REMARK    4  A    between atoms: N_3  and  C_21
REMARK    5  A    between atoms: C_4  and  C_5
REMARK    6  A    between atoms: C_5  and  C_6
REMARK    7  A    between atoms: C_6  and  C_7
REMARK    8  A    between atoms: C_7  and  O_8
REMARK    9  A    between atoms: O_8  and  C_9
REMARK   10  A    between atoms: C_9  and  C_11
REMARK   11  A    between atoms: C_13  and  O_14
REMARK   12  A    between atoms: O_14  and  C_15
REMARK   13  A    between atoms: C_16  and  O_17
REMARK   14  A    between atoms: O_17  and  C_18
REMARK   15  A    between atoms: C_21  and  C_22
REMARK   16  A    between atoms: C_21  and  C_23
REMARK   17  A    between atoms: C_23  and  C_24
REMARK   18  A    between atoms: C_27  and  O_28
REMARK   19  A    between atoms: O_28  and  C_29
REMARK                            x       y       z     vdW  Elec       q    Type
REMARK                         _______ _______ _______ _____ _____    ______ ____
ROOT
ATOM      1  C   UNL     1      -7.698   4.115 128.121  0.00  0.00    +0.000 C 
ENDROOT
BRANCH   1   2
ATOM      2  C   UNL     1      -7.260   4.327 129.559  0.00  0.00    +0.000 C 
BRANCH   2   3
ATOM      3  N   UNL     1      -8.216   3.779 130.554  0.00  0.00    +0.000 NA
BRANCH   3   5
ATOM      4  C   UNL     1      -7.170   1.443 130.832  0.00  0.00    +0.000 C 
ATOM      5  C   UNL     1      -8.366   2.301 130.452  0.00  0.00    +0.000 C 
ENDBRANCH   3   5
BRANCH   3   6
ATOM      6  C   UNL     1      -9.563   4.418 130.379  0.00  0.00    +0.000 C 
ATOM      7  C   UNL     1     -10.685   3.345 130.532  0.00  0.00    +0.000 C 
BRANCH   6   8
ATOM      8  C   UNL     1      -9.841   5.604 131.360  0.00  0.00    +0.000 C 
BRANCH   8   9
ATOM      9  C   UNL     1     -10.664   6.727 130.767  0.00  0.00    +0.000 A 
ATOM     10  C   UNL     1     -11.954   6.982 131.232  0.00  0.00    +0.000 A 
ATOM     11  C   UNL     1     -12.776   7.875 130.535  0.00  0.00    +0.000 A 
ATOM     12  C   UNL     1     -12.298   8.554 129.408  0.00  0.00    +0.000 A 
ATOM     13  C   UNL     1     -11.004   8.324 128.977  0.00  0.00    +0.000 A 
ATOM     14  C   UNL     1     -10.180   7.492 129.703  0.00  0.00    +0.000 A 
BRANCH  12  15
ATOM     15  O   UNL     1     -13.141   9.454 128.816  0.00  0.00    +0.000 OA
ATOM     16  C   UNL     1     -13.436  10.609 129.605  0.00  0.00    +0.000 C 
ENDBRANCH  12  15
ENDBRANCH   8   9
ENDBRANCH   6   8
ENDBRANCH   3   6
ENDBRANCH   2   3
ENDBRANCH   1   2
BRANCH   1  17
ATOM     17  C   UNL     1      -6.581   3.921 127.122  0.00  0.00    +0.000 C 
BRANCH  17  18
ATOM     18  C   UNL     1      -7.116   4.281 125.731  0.00  0.00    +0.000 C 
BRANCH  18  19
ATOM     19  O   UNL     1      -8.429   3.724 125.584  0.00  0.00    +0.000 OA
BRANCH  19  20
ATOM     20  C   UNL     1      -8.554   2.908 124.499  0.00  0.00    +0.000 C 
ATOM     21  O   UNL     1      -8.759   3.259 123.359  0.00  0.00    +0.000 OA
BRANCH  20  22
ATOM     22  C   UNL     1      -8.391   1.481 124.892  0.00  0.00    +0.000 A 
ATOM     23  C   UNL     1      -7.300   0.758 124.389  0.00  0.00    +0.000 A 
ATOM     24  C   UNL     1      -7.210  -0.634 124.578  0.00  0.00    +0.000 A 
ATOM     25  C   UNL     1      -8.161  -1.284 125.387  0.00  0.00    +0.000 A 
ATOM     26  C   UNL     1      -9.255  -0.560 125.872  0.00  0.00    +0.000 A 
ATOM     27  C   UNL     1      -9.375   0.813 125.624  0.00  0.00    +0.000 A 
BRANCH  24  28
ATOM     28  O   UNL     1      -6.176  -1.236 123.894  0.00  0.00    +0.000 OA
ATOM     29  C   UNL     1      -6.464  -1.742 122.588  0.00  0.00    +0.000 C 
ENDBRANCH  24  28
BRANCH  25  30
ATOM     30  O   UNL     1      -7.948  -2.600 125.675  0.00  0.00    +0.000 OA
ATOM     31  C   UNL     1      -8.521  -3.185 126.826  0.00  0.00    +0.000 C 
ENDBRANCH  25  30
ENDBRANCH  20  22
ENDBRANCH  19  20
ENDBRANCH  18  19
ENDBRANCH  17  18
ENDBRANCH   1  17
TORSDOF 14
ENDMDL
MODEL 8
REMARK VINA RESULT:      -6.6      4.743      7.645
REMARK  Name = Mebeverine
REMARK  19 active torsions:
REMARK  status: ('A' for Active; 'I' for Inactive)
REMARK    1  A    between atoms: C_1  and  C_2
REMARK    2  A    between atoms: C_2  and  N_3
REMARK    3  A    between atoms: N_3  and  C_4
REMARK    4  A    between atoms: N_3  and  C_21
REMARK    5  A    between atoms: C_4  and  C_5
REMARK    6  A    between atoms: C_5  and  C_6
REMARK    7  A    between atoms: C_6  and  C_7
REMARK    8  A    between atoms: C_7  and  O_8
REMARK    9  A    between atoms: O_8  and  C_9
REMARK   10  A    between atoms: C_9  and  C_11
REMARK   11  A    between atoms: C_13  and  O_14
REMARK   12  A    between atoms: O_14  and  C_15
REMARK   13  A    between atoms: C_16  and  O_17
REMARK   14  A    between atoms: O_17  and  C_18
REMARK   15  A    between atoms: C_21  and  C_22
REMARK   16  A    between atoms: C_21  and  C_23
REMARK   17  A    between atoms: C_23  and  C_24
REMARK   18  A    between atoms: C_27  and  O_28
REMARK   19  A    between atoms: O_28  and  C_29
REMARK                            x       y       z     vdW  Elec       q    Type
REMARK                         _______ _______ _______ _____ _____    ______ ____
ROOT
ATOM      1  C   UNL     1      -7.219   0.056 130.881  0.00  0.00    +0.000 C 
ENDROOT
BRANCH   1   2
ATOM      2  C   UNL     1      -7.361  -1.341 131.457  0.00  0.00    +0.000 C 
BRANCH   2   3
ATOM      3  N   UNL     1      -6.129  -2.160 131.334  0.00  0.00    +0.000 NA
BRANCH   3   5
ATOM      4  C   UNL     1      -3.843  -1.310 132.158  0.00  0.00    +0.000 C 
ATOM      5  C   UNL     1      -4.915  -1.334 131.081  0.00  0.00    +0.000 C 
ENDBRANCH   3   5
BRANCH   3   6
ATOM      6  C   UNL     1      -6.282  -3.154 130.220  0.00  0.00    +0.000 C 
ATOM      7  C   UNL     1      -5.758  -4.551 130.676  0.00  0.00    +0.000 C 
BRANCH   6   8
ATOM      8  C   UNL     1      -7.745  -3.296 129.685  0.00  0.00    +0.000 C 
BRANCH   8   9
ATOM      9  C   UNL     1      -7.900  -3.026 128.205  0.00  0.00    +0.000 A 
ATOM     10  C   UNL     1      -8.882  -3.683 127.463  0.00  0.00    +0.000 A 
ATOM     11  C   UNL     1      -8.873  -3.585 126.067  0.00  0.00    +0.000 A 
ATOM     12  C   UNL     1      -7.923  -2.793 125.412  0.00  0.00    +0.000 A 
ATOM     13  C   UNL     1      -6.977  -2.114 126.158  0.00  0.00    +0.000 A 
ATOM     14  C   UNL     1      -7.028  -2.164 127.534  0.00  0.00    +0.000 A 
BRANCH  12  15
ATOM     15  O   UNL     1      -8.016  -2.701 124.050  0.00  0.00    +0.000 OA
ATOM     16  C   UNL     1      -9.248  -3.171 123.499  0.00  0.00    +0.000 C 
ENDBRANCH  12  15
ENDBRANCH   8   9
ENDBRANCH   6   8
ENDBRANCH   3   6
ENDBRANCH   2   3
ENDBRANCH   1   2
BRANCH   1  17
ATOM     17  C   UNL     1      -8.515   0.789 130.622  0.00  0.00    +0.000 C 
BRANCH  17  18
ATOM     18  C   UNL     1      -8.181   2.248 130.294  0.00  0.00    +0.000 C 
BRANCH  18  19
ATOM     19  O   UNL     1      -8.473   2.488 128.910  0.00  0.00    +0.000 OA
BRANCH  19  20
ATOM     20  C   UNL     1      -7.401   2.299 128.089  0.00  0.00    +0.000 C 
ATOM     21  O   UNL     1      -6.249   2.572 128.342  0.00  0.00    +0.000 OA
BRANCH  20  22
ATOM     22  C   UNL     1      -7.825   1.685 126.800  0.00  0.00    +0.000 A 
ATOM     23  C   UNL     1      -7.046   1.904 125.655  0.00  0.00    +0.000 A 
ATOM     24  C   UNL     1      -7.505   1.507 124.386  0.00  0.00    +0.000 A 
ATOM     25  C   UNL     1      -8.700   0.770 124.283  0.00  0.00    +0.000 A 
ATOM     26  C   UNL     1      -9.480   0.569 125.427  0.00  0.00    +0.000 A 
ATOM     27  C   UNL     1      -9.050   1.027 126.679  0.00  0.00    +0.000 A 
BRANCH  24  28
ATOM     28  O   UNL     1      -6.716   1.928 123.337  0.00  0.00    +0.000 OA
ATOM     29  C   UNL     1      -6.851   3.291 122.925  0.00  0.00    +0.000 C 
ENDBRANCH  24  28
BRANCH  25  30
ATOM     30  O   UNL     1      -9.026   0.267 123.057  0.00  0.00    +0.000 OA
ATOM     31  C   UNL     1     -10.267   0.581 122.459  0.00  0.00    +0.000 C 
ENDBRANCH  25  30
ENDBRANCH  20  22
ENDBRANCH  19  20
ENDBRANCH  18  19
ENDBRANCH  17  18
ENDBRANCH   1  17
TORSDOF 14
ENDMDL
MODEL 9
REMARK VINA RESULT:      -6.6      3.363      9.176
REMARK  Name = Mebeverine
REMARK  19 active torsions:
REMARK  status: ('A' for Active; 'I' for Inactive)
REMARK    1  A    between atoms: C_1  and  C_2
REMARK    2  A    between atoms: C_2  and  N_3
REMARK    3  A    between atoms: N_3  and  C_4
REMARK    4  A    between atoms: N_3  and  C_21
REMARK    5  A    between atoms: C_4  and  C_5
REMARK    6  A    between atoms: C_5  and  C_6
REMARK    7  A    between atoms: C_6  and  C_7
REMARK    8  A    between atoms: C_7  and  O_8
REMARK    9  A    between atoms: O_8  and  C_9
REMARK   10  A    between atoms: C_9  and  C_11
REMARK   11  A    between atoms: C_13  and  O_14
REMARK   12  A    between atoms: O_14  and  C_15
REMARK   13  A    between atoms: C_16  and  O_17
REMARK   14  A    between atoms: O_17  and  C_18
REMARK   15  A    between atoms: C_21  and  C_22
REMARK   16  A    between atoms: C_21  and  C_23
REMARK   17  A    between atoms: C_23  and  C_24
REMARK   18  A    between atoms: C_27  and  O_28
REMARK   19  A    between atoms: O_28  and  C_29
REMARK                            x       y       z     vdW  Elec       q    Type
REMARK                         _______ _______ _______ _____ _____    ______ ____
ROOT
ATOM      1  C   UNL     1      -8.204   2.722 129.091  0.00  0.00    +0.000 C 
ENDROOT
BRANCH   1   2
ATOM      2  C   UNL     1      -9.129   3.077 130.241  0.00  0.00    +0.000 C 
BRANCH   2   3
ATOM      3  N   UNL     1      -8.419   3.634 131.420  0.00  0.00    +0.000 NA
BRANCH   3   5
ATOM      4  C   UNL     1      -6.128   2.706 132.141  0.00  0.00    +0.000 C 
ATOM      5  C   UNL     1      -7.645   2.601 132.163  0.00  0.00    +0.000 C 
ENDBRANCH   3   5
BRANCH   3   6
ATOM      6  C   UNL     1      -9.401   4.273 132.357  0.00  0.00    +0.000 C 
ATOM      7  C   UNL     1      -9.171   3.749 133.809  0.00  0.00    +0.000 C 
BRANCH   6   8
ATOM      8  C   UNL     1      -9.363   5.836 132.356  0.00  0.00    +0.000 C 
BRANCH   8   9
ATOM      9  C   UNL     1     -10.303   6.485 131.364  0.00  0.00    +0.000 A 
ATOM     10  C   UNL     1      -9.808   7.075 130.200  0.00  0.00    +0.000 A 
ATOM     11  C   UNL     1     -10.658   7.852 129.404  0.00  0.00    +0.000 A 
ATOM     12  C   UNL     1     -12.009   8.000 129.736  0.00  0.00    +0.000 A 
ATOM     13  C   UNL     1     -12.500   7.380 130.872  0.00  0.00    +0.000 A 
ATOM     14  C   UNL     1     -11.675   6.566 131.615  0.00  0.00    +0.000 A 
BRANCH  12  15
ATOM     15  O   UNL     1     -12.789   8.727 128.878  0.00  0.00    +0.000 OA
ATOM     16  C   UNL     1     -13.597   7.946 127.995  0.00  0.00    +0.000 C 
ENDBRANCH  12  15
ENDBRANCH   8   9
ENDBRANCH   6   8
ENDBRANCH   3   6
ENDBRANCH   2   3
ENDBRANCH   1   2
BRANCH   1  17
ATOM     17  C   UNL     1      -7.192   3.780 128.718  0.00  0.00    +0.000 C 
BRANCH  17  18
ATOM     18  C   UNL     1      -7.322   4.057 127.216  0.00  0.00    +0.000 C 
BRANCH  18  19
ATOM     19  O   UNL     1      -7.530   2.812 126.534  0.00  0.00    +0.000 OA
BRANCH  19  20
ATOM     20  C   UNL     1      -8.330   2.923 125.435  0.00  0.00    +0.000 C 
ATOM     21  O   UNL     1      -8.844   3.939 125.023  0.00  0.00    +0.000 OA
BRANCH  20  22
ATOM     22  C   UNL     1      -8.496   1.602 124.769  0.00  0.00    +0.000 A 
ATOM     23  C   UNL     1      -7.562   0.588 125.027  0.00  0.00    +0.000 A 
ATOM     24  C   UNL     1      -7.569  -0.604 124.280  0.00  0.00    +0.000 A 
ATOM     25  C   UNL     1      -8.603  -0.832 123.352  0.00  0.00    +0.000 A 
ATOM     26  C   UNL     1      -9.523   0.189 123.089  0.00  0.00    +0.000 A 
ATOM     27  C   UNL     1      -9.469   1.402 123.787  0.00  0.00    +0.000 A 
BRANCH  24  28
ATOM     28  O   UNL     1      -6.501  -1.439 124.528  0.00  0.00    +0.000 OA
ATOM     29  C   UNL     1      -6.522  -2.181 125.750  0.00  0.00    +0.000 C 
ENDBRANCH  24  28
BRANCH  25  30
ATOM     30  O   UNL     1      -8.665  -2.063 122.767  0.00  0.00    +0.000 OA
ATOM     31  C   UNL     1      -9.417  -3.102 123.359  0.00  0.00    +0.000 C 
ENDBRANCH  25  30
ENDBRANCH  20  22
ENDBRANCH  19  20
ENDBRANCH  18  19
ENDBRANCH  17  18
ENDBRANCH   1  17
TORSDOF 14
ENDMDL
