MODEL 1
REMARK VINA RESULT:      -6.9      0.000      0.000
REMARK  Name = Mebrofenin
REMARK  12 active torsions:
REMARK  status: ('A' for Active; 'I' for Inactive)
REMARK    1  A    between atoms: C_1  and  C_2
REMARK    2  A    between atoms: C_4  and  C_5
REMARK    3  A    between atoms: C_8  and  C_9
REMARK    4  A    between atoms: C_10  and  N_11
REMARK    5  A    between atoms: C_12  and  C_14
REMARK    6  A    between atoms: C_14  and  N_15
REMARK    7  A    between atoms: N_15  and  C_16
REMARK    8  A    between atoms: N_15  and  C_20
REMARK    9  A    between atoms: C_16  and  C_17
REMARK   10  A    between atoms: C_17  and  O_18
REMARK   11  A    between atoms: C_20  and  C_21
REMARK   12  A    between atoms: C_21  and  O_22
REMARK                            x       y       z     vdW  Elec       q    Type
REMARK                         _______ _______ _______ _____ _____    ______ ____
ROOT
ATOM      1  N   UNL     1      -8.295   0.063 123.770  0.00  0.00    +0.000 N 
ATOM      2  C   UNL     1      -9.273   1.023 123.577  0.00  0.00    +0.000 C 
ATOM      3  O   UNL     1     -10.399   0.889 124.011  0.00  0.00    +0.000 OA
ATOM      4  H   UNL     1      -7.679  -0.125 122.985  0.00  0.00    +0.000 HD
ENDROOT
BRANCH   1  14
ATOM      5  C   UNL     1      -9.440  -2.890 123.346  0.00  0.00    +0.000 C 
ATOM      6  C   UNL     1      -8.903  -2.296 124.600  0.00  0.00    +0.000 A 
ATOM      7  C   UNL     1      -9.019  -3.222 125.640  0.00  0.00    +0.000 A 
ATOM      8  C   UNL     1      -8.620  -2.922 126.920  0.00  0.00    +0.000 A 
ATOM      9  C   UNL     1      -8.823  -3.982 127.958  0.00  0.00    +0.000 C 
ATOM     10  C   UNL     1      -8.065  -1.660 127.163  0.00  0.00    +0.000 A 
ATOM     11 BR   UNL     1      -7.506  -1.301 128.960  0.00  0.00    +0.000 Br
ATOM     12  C   UNL     1      -7.934  -0.684 126.124  0.00  0.00    +0.000 A 
ATOM     13  C   UNL     1      -7.311   0.656 126.417  0.00  0.00    +0.000 C 
ATOM     14  C   UNL     1      -8.371  -0.988 124.800  0.00  0.00    +0.000 A 
ENDBRANCH   1  14
BRANCH   2  15
ATOM     15  C   UNL     1      -9.105   2.294 122.712  0.00  0.00    +0.000 C 
BRANCH  15  16
ATOM     16  N   UNL     1      -8.202   3.293 123.477  0.00  0.00    +0.000 NA
BRANCH  16  17
ATOM     17  C   UNL     1      -8.510   3.295 124.938  0.00  0.00    +0.000 C 
BRANCH  17  18
ATOM     18  C   UNL     1      -8.251   4.617 125.617  0.00  0.00    +0.000 C 
ATOM     19  O   UNL     1      -9.134   5.411 125.925  0.00  0.00    +0.000 OA
BRANCH  18  20
ATOM     20  O   UNL     1      -6.968   4.740 126.029  0.00  0.00    +0.000 OA
ATOM     21  H   UNL     1      -6.910   5.566 126.586  0.00  0.00    +0.000 HD
ENDBRANCH  18  20
ENDBRANCH  17  18
ENDBRANCH  16  17
BRANCH  16  22
ATOM     22  C   UNL     1      -6.781   2.891 123.277  0.00  0.00    +0.000 C 
BRANCH  22  23
ATOM     23  C   UNL     1      -5.841   3.953 122.682  0.00  0.00    +0.000 C 
ATOM     24  O   UNL     1      -5.385   4.859 123.372  0.00  0.00    +0.000 OA
BRANCH  23  25
ATOM     25  O   UNL     1      -5.524   3.858 121.373  0.00  0.00    +0.000 OA
ATOM     26  H   UNL     1      -6.227   3.492 120.800  0.00  0.00    +0.000 HD
ENDBRANCH  23  25
ENDBRANCH  22  23
ENDBRANCH  16  22
ENDBRANCH  15  16
ENDBRANCH   2  15
TORSDOF 9
ENDMDL
MODEL 2
REMARK VINA RESULT:      -6.8      6.902      8.791
REMARK  Name = Mebrofenin
REMARK  12 active torsions:
REMARK  status: ('A' for Active; 'I' for Inactive)
REMARK    1  A    between atoms: C_1  and  C_2
REMARK    2  A    between atoms: C_4  and  C_5
REMARK    3  A    between atoms: C_8  and  C_9
REMARK    4  A    between atoms: C_10  and  N_11
REMARK    5  A    between atoms: C_12  and  C_14
REMARK    6  A    between atoms: C_14  and  N_15
REMARK    7  A    between atoms: N_15  and  C_16
REMARK    8  A    between atoms: N_15  and  C_20
REMARK    9  A    between atoms: C_16  and  C_17
REMARK   10  A    between atoms: C_17  and  O_18
REMARK   11  A    between atoms: C_20  and  C_21
REMARK   12  A    between atoms: C_21  and  O_22
REMARK                            x       y       z     vdW  Elec       q    Type
REMARK                         _______ _______ _______ _____ _____    ______ ____
ROOT
ATOM      1  N   UNL     1     -10.297   4.836 130.227  0.00  0.00    +0.000 N 
ATOM      2  C   UNL     1     -11.296   5.757 130.489  0.00  0.00    +0.000 C 
ATOM      3  O   UNL     1     -11.652   6.014 131.621  0.00  0.00    +0.000 OA
ATOM      4  H   UNL     1     -10.439   4.222 129.431  0.00  0.00    +0.000 HD
ENDROOT
BRANCH   1  14
ATOM      5  C   UNL     1     -10.374   2.034 131.762  0.00  0.00    +0.000 C 
ATOM      6  C   UNL     1      -9.381   3.131 131.923  0.00  0.00    +0.000 A 
ATOM      7  C   UNL     1      -8.468   2.788 132.924  0.00  0.00    +0.000 A 
ATOM      8  C   UNL     1      -7.454   3.637 133.297  0.00  0.00    +0.000 A 
ATOM      9  C   UNL     1      -6.557   3.176 134.402  0.00  0.00    +0.000 C 
ATOM     10  C   UNL     1      -7.337   4.862 132.629  0.00  0.00    +0.000 A 
ATOM     11 BR   UNL     1      -5.893   5.998 133.172  0.00  0.00    +0.000 Br
ATOM     12  C   UNL     1      -8.254   5.249 131.602  0.00  0.00    +0.000 A 
ATOM     13  C   UNL     1      -8.084   6.565 130.889  0.00  0.00    +0.000 C 
ATOM     14  C   UNL     1      -9.322   4.377 131.232  0.00  0.00    +0.000 A 
ENDBRANCH   1  14
BRANCH   2  15
ATOM     15  C   UNL     1     -12.147   6.468 129.411  0.00  0.00    +0.000 C 
BRANCH  15  16
ATOM     16  N   UNL     1     -11.658   7.933 129.286  0.00  0.00    +0.000 NA
BRANCH  16  17
ATOM     17  C   UNL     1     -10.487   8.038 128.367  0.00  0.00    +0.000 C 
BRANCH  17  18
ATOM     18  C   UNL     1     -10.454   6.977 127.295  0.00  0.00    +0.000 C 
ATOM     19  O   UNL     1     -11.132   7.019 126.272  0.00  0.00    +0.000 OA
BRANCH  18  20
ATOM     20  O   UNL     1      -9.455   6.085 127.484  0.00  0.00    +0.000 OA
ATOM     21  H   UNL     1      -9.792   5.383 128.108  0.00  0.00    +0.000 HD
ENDBRANCH  18  20
ENDBRANCH  17  18
ENDBRANCH  16  17
BRANCH  16  22
ATOM     22  C   UNL     1     -12.777   8.758 128.750  0.00  0.00    +0.000 C 
BRANCH  22  23
ATOM     23  C   UNL     1     -13.156  10.012 129.556  0.00  0.00    +0.000 C 
ATOM     24  O   UNL     1     -13.154  10.006 130.782  0.00  0.00    +0.000 OA
BRANCH  23  25
ATOM     25  O   UNL     1     -13.484  11.130 128.873  0.00  0.00    +0.000 OA
ATOM     26  H   UNL     1     -13.021  11.246 128.019  0.00  0.00    +0.000 HD
ENDBRANCH  23  25
ENDBRANCH  22  23
ENDBRANCH  16  22
ENDBRANCH  15  16
ENDBRANCH   2  15
TORSDOF 9
ENDMDL
MODEL 3
REMARK VINA RESULT:      -6.7      5.228      6.947
REMARK  Name = Mebrofenin
REMARK  12 active torsions:
REMARK  status: ('A' for Active; 'I' for Inactive)
REMARK    1  A    between atoms: C_1  and  C_2
REMARK    2  A    between atoms: C_4  and  C_5
REMARK    3  A    between atoms: C_8  and  C_9
REMARK    4  A    between atoms: C_10  and  N_11
REMARK    5  A    between atoms: C_12  and  C_14
REMARK    6  A    between atoms: C_14  and  N_15
REMARK    7  A    between atoms: N_15  and  C_16
REMARK    8  A    between atoms: N_15  and  C_20
REMARK    9  A    between atoms: C_16  and  C_17
REMARK   10  A    between atoms: C_17  and  O_18
REMARK   11  A    between atoms: C_20  and  C_21
REMARK   12  A    between atoms: C_21  and  O_22
REMARK                            x       y       z     vdW  Elec       q    Type
REMARK                         _______ _______ _______ _____ _____    ______ ____
ROOT
ATOM      1  N   UNL     1      -9.094   3.964 130.333  0.00  0.00    +0.000 N 
ATOM      2  C   UNL     1     -10.382   4.468 130.301  0.00  0.00    +0.000 C 
ATOM      3  O   UNL     1     -11.353   3.745 130.212  0.00  0.00    +0.000 OA
ATOM      4  H   UNL     1      -8.389   4.477 129.813  0.00  0.00    +0.000 HD
ENDROOT
BRANCH   1  14
ATOM      5  C   UNL     1      -9.125   2.652 133.247  0.00  0.00    +0.000 C 
ATOM      6  C   UNL     1      -8.772   1.995 131.960  0.00  0.00    +0.000 A 
ATOM      7  C   UNL     1      -8.381   0.676 132.202  0.00  0.00    +0.000 A 
ATOM      8  C   UNL     1      -7.976  -0.155 131.186  0.00  0.00    +0.000 A 
ATOM      9  C   UNL     1      -7.549  -1.537 131.571  0.00  0.00    +0.000 C 
ATOM     10  C   UNL     1      -7.985   0.345 129.879  0.00  0.00    +0.000 A 
ATOM     11 BR   UNL     1      -7.433  -0.862 128.497  0.00  0.00    +0.000 Br
ATOM     12  C   UNL     1      -8.375   1.691 129.591  0.00  0.00    +0.000 A 
ATOM     13  C   UNL     1      -8.395   2.188 128.169  0.00  0.00    +0.000 C 
ATOM     14  C   UNL     1      -8.772   2.562 130.650  0.00  0.00    +0.000 A 
ENDBRANCH   1  14
BRANCH   2  15
ATOM     15  C   UNL     1     -10.741   5.972 130.254  0.00  0.00    +0.000 C 
BRANCH  15  16
ATOM     16  N   UNL     1     -11.580   6.237 128.978  0.00  0.00    +0.000 NA
BRANCH  16  17
ATOM     17  C   UNL     1     -12.917   6.808 129.317  0.00  0.00    +0.000 C 
BRANCH  17  18
ATOM     18  C   UNL     1     -12.891   7.786 130.464  0.00  0.00    +0.000 C 
ATOM     19  O   UNL     1     -12.713   8.993 130.330  0.00  0.00    +0.000 OA
BRANCH  18  20
ATOM     20  O   UNL     1     -13.287   7.223 131.630  0.00  0.00    +0.000 OA
ATOM     21  H   UNL     1     -14.284   7.245 131.651  0.00  0.00    +0.000 HD
ENDBRANCH  18  20
ENDBRANCH  17  18
ENDBRANCH  16  17
BRANCH  16  22
ATOM     22  C   UNL     1     -10.838   7.203 128.120  0.00  0.00    +0.000 C 
BRANCH  22  23
ATOM     23  C   UNL     1     -10.694   6.834 126.633  0.00  0.00    +0.000 C 
ATOM     24  O   UNL     1      -9.636   6.407 126.183  0.00  0.00    +0.000 OA
BRANCH  23  25
ATOM     25  O   UNL     1     -11.772   6.986 125.835  0.00  0.00    +0.000 OA
ATOM     26  H   UNL     1     -12.607   6.621 126.190  0.00  0.00    +0.000 HD
ENDBRANCH  23  25
ENDBRANCH  22  23
ENDBRANCH  16  22
ENDBRANCH  15  16
ENDBRANCH   2  15
TORSDOF 9
ENDMDL
MODEL 4
REMARK VINA RESULT:      -6.7      2.657      4.657
REMARK  Name = Mebrofenin
REMARK  12 active torsions:
REMARK  status: ('A' for Active; 'I' for Inactive)
REMARK    1  A    between atoms: C_1  and  C_2
REMARK    2  A    between atoms: C_4  and  C_5
REMARK    3  A    between atoms: C_8  and  C_9
REMARK    4  A    between atoms: C_10  and  N_11
REMARK    5  A    between atoms: C_12  and  C_14
REMARK    6  A    between atoms: C_14  and  N_15
REMARK    7  A    between atoms: N_15  and  C_16
REMARK    8  A    between atoms: N_15  and  C_20
REMARK    9  A    between atoms: C_16  and  C_17
REMARK   10  A    between atoms: C_17  and  O_18
REMARK   11  A    between atoms: C_20  and  C_21
REMARK   12  A    between atoms: C_21  and  O_22
REMARK                            x       y       z     vdW  Elec       q    Type
REMARK                         _______ _______ _______ _____ _____    ______ ____
ROOT
ATOM      1  N   UNL     1      -7.171  -1.703 126.414  0.00  0.00    +0.000 N 
ATOM      2  C   UNL     1      -7.906  -0.655 125.888  0.00  0.00    +0.000 C 
ATOM      3  O   UNL     1      -8.818  -0.140 126.499  0.00  0.00    +0.000 OA
ATOM      4  H   UNL     1      -6.916  -2.449 125.775  0.00  0.00    +0.000 HD
ENDROOT
BRANCH   1  14
ATOM      5  C   UNL     1      -8.957  -3.929 127.853  0.00  0.00    +0.000 C 
ATOM      6  C   UNL     1      -7.956  -3.023 128.480  0.00  0.00    +0.000 A 
ATOM      7  C   UNL     1      -7.931  -3.241 129.859  0.00  0.00    +0.000 A 
ATOM      8  C   UNL     1      -7.110  -2.517 130.689  0.00  0.00    +0.000 A 
ATOM      9  C   UNL     1      -7.194  -2.816 132.153  0.00  0.00    +0.000 C 
ATOM     10  C   UNL     1      -6.267  -1.558 130.115  0.00  0.00    +0.000 A 
ATOM     11 BR   UNL     1      -5.126  -0.593 131.314  0.00  0.00    +0.000 Br
ATOM     12  C   UNL     1      -6.266  -1.305 128.707  0.00  0.00    +0.000 A 
ATOM     13  C   UNL     1      -5.329  -0.281 128.121  0.00  0.00    +0.000 C 
ATOM     14  C   UNL     1      -7.138  -2.040 127.848  0.00  0.00    +0.000 A 
ENDBRANCH   1  14
BRANCH   2  15
ATOM     15  C   UNL     1      -7.748  -0.100 124.453  0.00  0.00    +0.000 C 
BRANCH  15  16
ATOM     16  N   UNL     1      -9.060  -0.371 123.675  0.00  0.00    +0.000 NA
BRANCH  16  17
ATOM     17  C   UNL     1      -9.458   0.810 122.853  0.00  0.00    +0.000 C 
BRANCH  17  18
ATOM     18  C   UNL     1      -9.299   2.131 123.563  0.00  0.00    +0.000 C 
ATOM     19  O   UNL     1      -8.746   3.109 123.070  0.00  0.00    +0.000 OA
BRANCH  18  20
ATOM     20  O   UNL     1     -10.007   2.185 124.715  0.00  0.00    +0.000 OA
ATOM     21  H   UNL     1     -10.975   2.175 124.474  0.00  0.00    +0.000 HD
ENDBRANCH  18  20
ENDBRANCH  17  18
ENDBRANCH  16  17
BRANCH  16  22
ATOM     22  C   UNL     1      -8.841  -1.540 122.778  0.00  0.00    +0.000 C 
BRANCH  22  23
ATOM     23  C   UNL     1      -9.028  -2.933 123.403  0.00  0.00    +0.000 C 
ATOM     24  O   UNL     1      -8.096  -3.517 123.948  0.00  0.00    +0.000 OA
BRANCH  23  25
ATOM     25  O   UNL     1     -10.253  -3.497 123.344  0.00  0.00    +0.000 OA
ATOM     26  H   UNL     1     -10.348  -4.339 123.832  0.00  0.00    +0.000 HD
ENDBRANCH  23  25
ENDBRANCH  22  23
ENDBRANCH  16  22
ENDBRANCH  15  16
ENDBRANCH   2  15
TORSDOF 9
ENDMDL
MODEL 5
REMARK VINA RESULT:      -6.7      1.634      1.839
REMARK  Name = Mebrofenin
REMARK  12 active torsions:
REMARK  status: ('A' for Active; 'I' for Inactive)
REMARK    1  A    between atoms: C_1  and  C_2
REMARK    2  A    between atoms: C_4  and  C_5
REMARK    3  A    between atoms: C_8  and  C_9
REMARK    4  A    between atoms: C_10  and  N_11
REMARK    5  A    between atoms: C_12  and  C_14
REMARK    6  A    between atoms: C_14  and  N_15
REMARK    7  A    between atoms: N_15  and  C_16
REMARK    8  A    between atoms: N_15  and  C_20
REMARK    9  A    between atoms: C_16  and  C_17
REMARK   10  A    between atoms: C_17  and  O_18
REMARK   11  A    between atoms: C_20  and  C_21
REMARK   12  A    between atoms: C_21  and  O_22
REMARK                            x       y       z     vdW  Elec       q    Type
REMARK                         _______ _______ _______ _____ _____    ______ ____
ROOT
ATOM      1  N   UNL     1      -6.819  -0.903 123.912  0.00  0.00    +0.000 N 
ATOM      2  C   UNL     1      -7.347   0.322 123.546  0.00  0.00    +0.000 C 
ATOM      3  O   UNL     1      -8.490   0.634 123.811  0.00  0.00    +0.000 OA
ATOM      4  H   UNL     1      -6.220  -1.363 123.235  0.00  0.00    +0.000 HD
ENDROOT
BRANCH   1  14
ATOM      5  C   UNL     1      -9.262  -2.924 123.507  0.00  0.00    +0.000 C 
ATOM      6  C   UNL     1      -8.507  -2.651 124.760  0.00  0.00    +0.000 A 
ATOM      7  C   UNL     1      -9.065  -3.388 125.808  0.00  0.00    +0.000 A 
ATOM      8  C   UNL     1      -8.575  -3.304 127.089  0.00  0.00    +0.000 A 
ATOM      9  C   UNL     1      -9.275  -4.115 128.135  0.00  0.00    +0.000 C 
ATOM     10  C   UNL     1      -7.475  -2.473 127.324  0.00  0.00    +0.000 A 
ATOM     11 BR   UNL     1      -6.817  -2.410 129.123  0.00  0.00    +0.000 Br
ATOM     12  C   UNL     1      -6.879  -1.700 126.278  0.00  0.00    +0.000 A 
ATOM     13  C   UNL     1      -5.681  -0.832 126.563  0.00  0.00    +0.000 C 
ATOM     14  C   UNL     1      -7.404  -1.768 124.952  0.00  0.00    +0.000 A 
ENDBRANCH   1  14
BRANCH   2  15
ATOM     15  C   UNL     1      -6.619   1.373 122.676  0.00  0.00    +0.000 C 
BRANCH  15  16
ATOM     16  N   UNL     1      -7.228   2.766 122.976  0.00  0.00    +0.000 NA
BRANCH  16  17
ATOM     17  C   UNL     1      -6.752   3.296 124.288  0.00  0.00    +0.000 C 
BRANCH  17  18
ATOM     18  C   UNL     1      -7.698   4.281 124.929  0.00  0.00    +0.000 C 
ATOM     19  O   UNL     1      -8.822   3.990 125.324  0.00  0.00    +0.000 OA
BRANCH  18  20
ATOM     20  O   UNL     1      -7.100   5.463 125.204  0.00  0.00    +0.000 OA
ATOM     21  H   UNL     1      -6.282   5.269 125.741  0.00  0.00    +0.000 HD
ENDBRANCH  18  20
ENDBRANCH  17  18
ENDBRANCH  16  17
BRANCH  16  22
ATOM     22  C   UNL     1      -6.818   3.702 121.892  0.00  0.00    +0.000 C 
BRANCH  22  23
ATOM     23  C   UNL     1      -7.762   3.813 120.682  0.00  0.00    +0.000 C 
ATOM     24  O   UNL     1      -8.969   3.627 120.798  0.00  0.00    +0.000 OA
BRANCH  23  25
ATOM     25  O   UNL     1      -7.226   4.130 119.485  0.00  0.00    +0.000 OA
ATOM     26  H   UNL     1      -6.639   3.449 119.099  0.00  0.00    +0.000 HD
ENDBRANCH  23  25
ENDBRANCH  22  23
ENDBRANCH  16  22
ENDBRANCH  15  16
ENDBRANCH   2  15
TORSDOF 9
ENDMDL
MODEL 6
REMARK VINA RESULT:      -6.7      7.262      9.139
REMARK  Name = Mebrofenin
REMARK  12 active torsions:
REMARK  status: ('A' for Active; 'I' for Inactive)
REMARK    1  A    between atoms: C_1  and  C_2
REMARK    2  A    between atoms: C_4  and  C_5
REMARK    3  A    between atoms: C_8  and  C_9
REMARK    4  A    between atoms: C_10  and  N_11
REMARK    5  A    between atoms: C_12  and  C_14
REMARK    6  A    between atoms: C_14  and  N_15
REMARK    7  A    between atoms: N_15  and  C_16
REMARK    8  A    between atoms: N_15  and  C_20
REMARK    9  A    between atoms: C_16  and  C_17
REMARK   10  A    between atoms: C_17  and  O_18
REMARK   11  A    between atoms: C_20  and  C_21
REMARK   12  A    between atoms: C_21  and  O_22
REMARK                            x       y       z     vdW  Elec       q    Type
REMARK                         _______ _______ _______ _____ _____    ______ ____
ROOT
ATOM      1  N   UNL     1     -10.070   4.845 133.392  0.00  0.00    +0.000 N 
ATOM      2  C   UNL     1     -10.138   5.906 132.507  0.00  0.00    +0.000 C 
ATOM      3  O   UNL     1      -9.142   6.435 132.060  0.00  0.00    +0.000 OA
ATOM      4  H   UNL     1     -10.738   4.843 134.156  0.00  0.00    +0.000 HD
ENDROOT
BRANCH   1  14
ATOM      5  C   UNL     1      -9.478   2.061 131.937  0.00  0.00    +0.000 C 
ATOM      6  C   UNL     1      -8.627   2.762 132.938  0.00  0.00    +0.000 A 
ATOM      7  C   UNL     1      -7.502   1.983 133.218  0.00  0.00    +0.000 A 
ATOM      8  C   UNL     1      -6.558   2.383 134.133  0.00  0.00    +0.000 A 
ATOM      9  C   UNL     1      -5.413   1.450 134.375  0.00  0.00    +0.000 C 
ATOM     10  C   UNL     1      -6.735   3.616 134.771  0.00  0.00    +0.000 A 
ATOM     11 BR   UNL     1      -5.378   4.136 136.020  0.00  0.00    +0.000 Br
ATOM     12  C   UNL     1      -7.875   4.440 134.512  0.00  0.00    +0.000 A 
ATOM     13  C   UNL     1      -8.021   5.772 135.200  0.00  0.00    +0.000 C 
ATOM     14  C   UNL     1      -8.868   4.012 133.580  0.00  0.00    +0.000 A 
ENDBRANCH   1  14
BRANCH   2  15
ATOM     15  C   UNL     1     -11.444   6.615 132.077  0.00  0.00    +0.000 C 
BRANCH  15  16
ATOM     16  N   UNL     1     -11.283   7.094 130.613  0.00  0.00    +0.000 NA
BRANCH  16  17
ATOM     17  C   UNL     1     -11.124   5.941 129.678  0.00  0.00    +0.000 C 
BRANCH  17  18
ATOM     18  C   UNL     1      -9.938   6.062 128.754  0.00  0.00    +0.000 C 
ATOM     19  O   UNL     1      -9.993   6.558 127.634  0.00  0.00    +0.000 OA
BRANCH  18  20
ATOM     20  O   UNL     1      -8.773   5.752 129.369  0.00  0.00    +0.000 OA
ATOM     21  H   UNL     1      -8.852   6.035 130.323  0.00  0.00    +0.000 HD
ENDBRANCH  18  20
ENDBRANCH  17  18
ENDBRANCH  16  17
BRANCH  16  22
ATOM     22  C   UNL     1     -12.500   7.866 130.234  0.00  0.00    +0.000 C 
BRANCH  22  23
ATOM     23  C   UNL     1     -12.518   8.477 128.823  0.00  0.00    +0.000 C 
ATOM     24  O   UNL     1     -13.502   8.373 128.097  0.00  0.00    +0.000 OA
BRANCH  23  25
ATOM     25  O   UNL     1     -11.420   9.140 128.404  0.00  0.00    +0.000 OA
ATOM     26  H   UNL     1     -10.922   9.605 129.107  0.00  0.00    +0.000 HD
ENDBRANCH  23  25
ENDBRANCH  22  23
ENDBRANCH  16  22
ENDBRANCH  15  16
ENDBRANCH   2  15
TORSDOF 9
ENDMDL
MODEL 7
REMARK VINA RESULT:      -6.6      4.091      7.009
REMARK  Name = Mebrofenin
REMARK  12 active torsions:
REMARK  status: ('A' for Active; 'I' for Inactive)
REMARK    1  A    between atoms: C_1  and  C_2
REMARK    2  A    between atoms: C_4  and  C_5
REMARK    3  A    between atoms: C_8  and  C_9
REMARK    4  A    between atoms: C_10  and  N_11
REMARK    5  A    between atoms: C_12  and  C_14
REMARK    6  A    between atoms: C_14  and  N_15
REMARK    7  A    between atoms: N_15  and  C_16
REMARK    8  A    between atoms: N_15  and  C_20
REMARK    9  A    between atoms: C_16  and  C_17
REMARK   10  A    between atoms: C_17  and  O_18
REMARK   11  A    between atoms: C_20  and  C_21
REMARK   12  A    between atoms: C_21  and  O_22
REMARK                            x       y       z     vdW  Elec       q    Type
REMARK                         _______ _______ _______ _____ _____    ______ ____
ROOT
ATOM      1  N   UNL     1      -5.867   3.245 123.566  0.00  0.00    +0.000 N 
ATOM      2  C   UNL     1      -5.741   4.093 124.652  0.00  0.00    +0.000 C 
ATOM      3  O   UNL     1      -6.047   5.266 124.590  0.00  0.00    +0.000 OA
ATOM      4  H   UNL     1      -5.121   2.572 123.422  0.00  0.00    +0.000 HD
ENDROOT
BRANCH   1  14
ATOM      5  C   UNL     1      -8.958   2.496 123.256  0.00  0.00    +0.000 C 
ATOM      6  C   UNL     1      -8.085   3.178 122.262  0.00  0.00    +0.000 A 
ATOM      7  C   UNL     1      -8.810   3.415 121.092  0.00  0.00    +0.000 A 
ATOM      8  C   UNL     1      -8.235   4.013 119.996  0.00  0.00    +0.000 A 
ATOM      9  C   UNL     1      -9.101   4.185 118.787  0.00  0.00    +0.000 C 
ATOM     10  C   UNL     1      -6.896   4.409 120.085  0.00  0.00    +0.000 A 
ATOM     11 BR   UNL     1      -6.150   5.258 118.537  0.00  0.00    +0.000 Br
ATOM     12  C   UNL     1      -6.120   4.180 121.265  0.00  0.00    +0.000 A 
ATOM     13  C   UNL     1      -4.687   4.640 121.333  0.00  0.00    +0.000 C 
ATOM     14  C   UNL     1      -6.711   3.536 122.394  0.00  0.00    +0.000 A 
ENDBRANCH   1  14
BRANCH   2  15
ATOM     15  C   UNL     1      -5.102   3.705 126.006  0.00  0.00    +0.000 C 
BRANCH  15  16
ATOM     16  N   UNL     1      -6.079   2.767 126.759  0.00  0.00    +0.000 NA
BRANCH  16  17
ATOM     17  C   UNL     1      -5.420   1.478 127.125  0.00  0.00    +0.000 C 
BRANCH  17  18
ATOM     18  C   UNL     1      -5.645   0.371 126.127  0.00  0.00    +0.000 C 
ATOM     19  O   UNL     1      -5.198  -0.765 126.254  0.00  0.00    +0.000 OA
BRANCH  18  20
ATOM     20  O   UNL     1      -6.557   0.705 125.185  0.00  0.00    +0.000 OA
ATOM     21  H   UNL     1      -6.873   1.629 125.387  0.00  0.00    +0.000 HD
ENDBRANCH  18  20
ENDBRANCH  17  18
ENDBRANCH  16  17
BRANCH  16  22
ATOM     22  C   UNL     1      -6.529   3.456 128.000  0.00  0.00    +0.000 C 
BRANCH  22  23
ATOM     23  C   UNL     1      -7.989   3.942 128.028  0.00  0.00    +0.000 C 
ATOM     24  O   UNL     1      -8.345   4.927 127.389  0.00  0.00    +0.000 OA
BRANCH  23  25
ATOM     25  O   UNL     1      -8.875   3.246 128.772  0.00  0.00    +0.000 OA
ATOM     26  H   UNL     1      -9.778   3.620 128.800  0.00  0.00    +0.000 HD
ENDBRANCH  23  25
ENDBRANCH  22  23
ENDBRANCH  16  22
ENDBRANCH  15  16
ENDBRANCH   2  15
TORSDOF 9
ENDMDL
MODEL 8
REMARK VINA RESULT:      -6.6      1.036      2.688
REMARK  Name = Mebrofenin
REMARK  12 active torsions:
REMARK  status: ('A' for Active; 'I' for Inactive)
REMARK    1  A    between atoms: C_1  and  C_2
REMARK    2  A    between atoms: C_4  and  C_5
REMARK    3  A    between atoms: C_8  and  C_9
REMARK    4  A    between atoms: C_10  and  N_11
REMARK    5  A    between atoms: C_12  and  C_14
REMARK    6  A    between atoms: C_14  and  N_15
REMARK    7  A    between atoms: N_15  and  C_16
REMARK    8  A    between atoms: N_15  and  C_20
REMARK    9  A    between atoms: C_16  and  C_17
REMARK   10  A    between atoms: C_17  and  O_18
REMARK   11  A    between atoms: C_20  and  C_21
REMARK   12  A    between atoms: C_21  and  O_22
REMARK                            x       y       z     vdW  Elec       q    Type
REMARK                         _______ _______ _______ _____ _____    ______ ____
ROOT
ATOM      1  N   UNL     1      -7.671  -0.151 124.219  0.00  0.00    +0.000 N 
ATOM      2  C   UNL     1      -8.514   0.913 123.949  0.00  0.00    +0.000 C 
ATOM      3  O   UNL     1      -9.696   0.882 124.222  0.00  0.00    +0.000 OA
ATOM      4  H   UNL     1      -6.975  -0.373 123.515  0.00  0.00    +0.000 HD
ENDROOT
BRANCH   1  14
ATOM      5  C   UNL     1      -9.286  -2.826 123.549  0.00  0.00    +0.000 C 
ATOM      6  C   UNL     1      -8.731  -2.406 124.864  0.00  0.00    +0.000 A 
ATOM      7  C   UNL     1      -9.068  -3.353 125.834  0.00  0.00    +0.000 A 
ATOM      8  C   UNL     1      -8.702  -3.199 127.150  0.00  0.00    +0.000 A 
ATOM      9  C   UNL     1      -9.148  -4.262 128.105  0.00  0.00    +0.000 C 
ATOM     10  C   UNL     1      -7.951  -2.071 127.501  0.00  0.00    +0.000 A 
ATOM     11 BR   UNL     1      -7.447  -1.918 129.343  0.00  0.00    +0.000 Br
ATOM     12  C   UNL     1      -7.589  -1.079 126.536  0.00  0.00    +0.000 A 
ATOM     13  C   UNL     1      -6.761   0.111 126.945  0.00  0.00    +0.000 C 
ATOM     14  C   UNL     1      -7.992  -1.226 125.174  0.00  0.00    +0.000 A 
ENDBRANCH   1  14
BRANCH   2  15
ATOM     15  C   UNL     1      -8.104   2.192 123.181  0.00  0.00    +0.000 C 
BRANCH  15  16
ATOM     16  N   UNL     1      -6.731   2.668 123.718  0.00  0.00    +0.000 NA
BRANCH  16  17
ATOM     17  C   UNL     1      -6.203   3.814 122.919  0.00  0.00    +0.000 C 
BRANCH  17  18
ATOM     18  C   UNL     1      -6.174   3.561 121.433  0.00  0.00    +0.000 C 
ATOM     19  O   UNL     1      -5.460   2.719 120.897  0.00  0.00    +0.000 OA
BRANCH  18  20
ATOM     20  O   UNL     1      -7.162   4.217 120.780  0.00  0.00    +0.000 OA
ATOM     21  H   UNL     1      -7.932   3.589 120.692  0.00  0.00    +0.000 HD
ENDBRANCH  18  20
ENDBRANCH  17  18
ENDBRANCH  16  17
BRANCH  16  22
ATOM     22  C   UNL     1      -6.903   3.096 125.134  0.00  0.00    +0.000 C 
BRANCH  22  23
ATOM     23  C   UNL     1      -7.680   4.403 125.370  0.00  0.00    +0.000 C 
ATOM     24  O   UNL     1      -7.097   5.468 125.546  0.00  0.00    +0.000 OA
BRANCH  23  25
ATOM     25  O   UNL     1      -9.029   4.347 125.369  0.00  0.00    +0.000 OA
ATOM     26  H   UNL     1      -9.409   3.462 125.198  0.00  0.00    +0.000 HD
ENDBRANCH  23  25
ENDBRANCH  22  23
ENDBRANCH  16  22
ENDBRANCH  15  16
ENDBRANCH   2  15
TORSDOF 9
ENDMDL
MODEL 9
REMARK VINA RESULT:      -6.4      1.991      3.454
REMARK  Name = Mebrofenin
REMARK  12 active torsions:
REMARK  status: ('A' for Active; 'I' for Inactive)
REMARK    1  A    between atoms: C_1  and  C_2
REMARK    2  A    between atoms: C_4  and  C_5
REMARK    3  A    between atoms: C_8  and  C_9
REMARK    4  A    between atoms: C_10  and  N_11
REMARK    5  A    between atoms: C_12  and  C_14
REMARK    6  A    between atoms: C_14  and  N_15
REMARK    7  A    between atoms: N_15  and  C_16
REMARK    8  A    between atoms: N_15  and  C_20
REMARK    9  A    between atoms: C_16  and  C_17
REMARK   10  A    between atoms: C_17  and  O_18
REMARK   11  A    between atoms: C_20  and  C_21
REMARK   12  A    between atoms: C_21  and  O_22
REMARK                            x       y       z     vdW  Elec       q    Type
REMARK                         _______ _______ _______ _____ _____    ______ ____
ROOT
ATOM      1  N   UNL     1      -8.045  -0.094 125.896  0.00  0.00    +0.000 N 
ATOM      2  C   UNL     1      -7.061   0.041 124.933  0.00  0.00    +0.000 C 
ATOM      3  O   UNL     1      -5.895  -0.199 125.167  0.00  0.00    +0.000 OA
ATOM      4  H   UNL     1      -8.767   0.620 125.916  0.00  0.00    +0.000 HD
ENDROOT
BRANCH   1  14
ATOM      5  C   UNL     1      -8.381  -3.261 126.157  0.00  0.00    +0.000 C 
ATOM      6  C   UNL     1      -8.051  -2.291 127.236  0.00  0.00    +0.000 A 
ATOM      7  C   UNL     1      -7.954  -2.967 128.455  0.00  0.00    +0.000 A 
ATOM      8  C   UNL     1      -7.682  -2.304 129.628  0.00  0.00    +0.000 A 
ATOM      9  C   UNL     1      -7.635  -3.129 130.876  0.00  0.00    +0.000 C 
ATOM     10  C   UNL     1      -7.476  -0.921 129.574  0.00  0.00    +0.000 A 
ATOM     11 BR   UNL     1      -7.078  -0.049 131.234  0.00  0.00    +0.000 Br
ATOM     12  C   UNL     1      -7.571  -0.194 128.346  0.00  0.00    +0.000 A 
ATOM     13  C   UNL     1      -7.321   1.292 128.322  0.00  0.00    +0.000 C 
ATOM     14  C   UNL     1      -7.878  -0.879 127.132  0.00  0.00    +0.000 A 
ENDBRANCH   1  14
BRANCH   2  15
ATOM     15  C   UNL     1      -7.288   0.610 123.512  0.00  0.00    +0.000 C 
BRANCH  15  16
ATOM     16  N   UNL     1      -7.847   2.049 123.644  0.00  0.00    +0.000 NA
BRANCH  16  17
ATOM     17  C   UNL     1      -6.892   3.055 123.091  0.00  0.00    +0.000 C 
BRANCH  17  18
ATOM     18  C   UNL     1      -6.068   3.757 124.141  0.00  0.00    +0.000 C 
ATOM     19  O   UNL     1      -5.367   3.173 124.962  0.00  0.00    +0.000 OA
BRANCH  18  20
ATOM     20  O   UNL     1      -6.025   5.096 123.952  0.00  0.00    +0.000 OA
ATOM     21  H   UNL     1      -5.912   5.258 122.974  0.00  0.00    +0.000 HD
ENDBRANCH  18  20
ENDBRANCH  17  18
ENDBRANCH  16  17
BRANCH  16  22
ATOM     22  C   UNL     1      -9.129   2.126 122.889  0.00  0.00    +0.000 C 
BRANCH  22  23
ATOM     23  C   UNL     1     -10.241   1.153 123.319  0.00  0.00    +0.000 C 
ATOM     24  O   UNL     1     -10.629   1.103 124.482  0.00  0.00    +0.000 OA
BRANCH  23  25
ATOM     25  O   UNL     1     -10.788   0.358 122.376  0.00  0.00    +0.000 OA
ATOM     26  H   UNL     1     -10.836  -0.591 122.609  0.00  0.00    +0.000 HD
ENDBRANCH  23  25
ENDBRANCH  22  23
ENDBRANCH  16  22
ENDBRANCH  15  16
ENDBRANCH   2  15
TORSDOF 9
ENDMDL
