MODEL 1
REMARK VINA RESULT:      -5.6      0.000      0.000
REMARK  Name = Mebutamate
REMARK  11 active torsions:
REMARK  status: ('A' for Active; 'I' for Inactive)
REMARK    1  A    between atoms: C_1  and  C_2
REMARK    2  A    between atoms: C_2  and  C_3
REMARK    3  A    between atoms: C_3  and  C_4
REMARK    4  A    between atoms: C_3  and  C_5
REMARK    5  A    between atoms: C_5  and  C_6
REMARK    6  A    between atoms: C_5  and  C_7
REMARK    7  A    between atoms: C_5  and  C_12
REMARK    8  A    between atoms: C_7  and  O_8
REMARK    9  A    between atoms: O_8  and  C_9
REMARK   10  A    between atoms: C_12  and  O_13
REMARK   11  A    between atoms: O_13  and  C_14
REMARK                            x       y       z     vdW  Elec       q    Type
REMARK                         _______ _______ _______ _____ _____    ______ ____
ROOT
ATOM      1  C   UNL     1      -7.450  -2.178 124.344  0.00  0.00    +0.000 C 
ATOM      2  C   UNL     1      -7.358  -1.889 122.829  0.00  0.00    +0.000 C 
ENDROOT
BRANCH   1   3
ATOM      3  C   UNL     1      -8.593  -3.231 124.631  0.00  0.00    +0.000 C 
ATOM      4  C   UNL     1      -9.588  -3.330 123.455  0.00  0.00    +0.000 C 
BRANCH   3   6
ATOM      5  C   UNL     1      -8.883  -3.728 127.132  0.00  0.00    +0.000 C 
ATOM      6  C   UNL     1      -9.370  -2.944 125.934  0.00  0.00    +0.000 C 
ENDBRANCH   3   6
ENDBRANCH   1   3
BRANCH   1   7
ATOM      7  C   UNL     1      -7.693  -0.832 125.097  0.00  0.00    +0.000 C 
BRANCH   7   8
ATOM      8  O   UNL     1      -8.343   0.133 124.246  0.00  0.00    +0.000 OA
BRANCH   8   9
ATOM      9  C   UNL     1      -9.550   0.682 124.512  0.00  0.00    +0.000 C 
ATOM     10  N   UNL     1     -10.050   1.528 123.579  0.00  0.00    +0.000 N 
ATOM     11  O   UNL     1     -10.179   0.417 125.531  0.00  0.00    +0.000 OA
ATOM     12  H   UNL     1      -9.601   1.726 122.703  0.00  0.00    +0.000 HD
ATOM     13  H   UNL     1     -11.001   1.839 123.721  0.00  0.00    +0.000 HD
ENDBRANCH   8   9
ENDBRANCH   7   8
ENDBRANCH   1   7
BRANCH   1  14
ATOM     14  C   UNL     1      -6.095  -2.760 124.839  0.00  0.00    +0.000 C 
BRANCH  14  15
ATOM     15  O   UNL     1      -5.780  -3.982 124.152  0.00  0.00    +0.000 OA
BRANCH  15  16
ATOM     16  C   UNL     1      -4.578  -4.179 123.553  0.00  0.00    +0.000 C 
ATOM     17  N   UNL     1      -4.223  -5.460 123.268  0.00  0.00    +0.000 N 
ATOM     18  O   UNL     1      -3.826  -3.248 123.294  0.00  0.00    +0.000 OA
ATOM     19  H   UNL     1      -4.786  -6.275 123.440  0.00  0.00    +0.000 HD
ATOM     20  H   UNL     1      -3.318  -5.588 122.838  0.00  0.00    +0.000 HD
ENDBRANCH  15  16
ENDBRANCH  14  15
ENDBRANCH   1  14
TORSDOF 8
ENDMDL
MODEL 2
REMARK VINA RESULT:      -5.6     10.615     11.962
REMARK  Name = Mebutamate
REMARK  11 active torsions:
REMARK  status: ('A' for Active; 'I' for Inactive)
REMARK    1  A    between atoms: C_1  and  C_2
REMARK    2  A    between atoms: C_2  and  C_3
REMARK    3  A    between atoms: C_3  and  C_4
REMARK    4  A    between atoms: C_3  and  C_5
REMARK    5  A    between atoms: C_5  and  C_6
REMARK    6  A    between atoms: C_5  and  C_7
REMARK    7  A    between atoms: C_5  and  C_12
REMARK    8  A    between atoms: C_7  and  O_8
REMARK    9  A    between atoms: O_8  and  C_9
REMARK   10  A    between atoms: C_12  and  O_13
REMARK   11  A    between atoms: O_13  and  C_14
REMARK                            x       y       z     vdW  Elec       q    Type
REMARK                         _______ _______ _______ _____ _____    ______ ____
ROOT
ATOM      1  C   UNL     1     -11.068   7.168 129.829  0.00  0.00    +0.000 C 
ATOM      2  C   UNL     1     -11.803   5.848 129.506  0.00  0.00    +0.000 C 
ENDROOT
BRANCH   1   3
ATOM      3  C   UNL     1     -12.083   8.229 130.412  0.00  0.00    +0.000 C 
ATOM      4  C   UNL     1     -13.092   7.583 131.384  0.00  0.00    +0.000 C 
BRANCH   3   6
ATOM      5  C   UNL     1     -13.311  10.379 129.734  0.00  0.00    +0.000 C 
ATOM      6  C   UNL     1     -12.851   9.000 129.316  0.00  0.00    +0.000 C 
ENDBRANCH   3   6
ENDBRANCH   1   3
BRANCH   1   7
ATOM      7  C   UNL     1     -10.365   7.681 128.533  0.00  0.00    +0.000 C 
BRANCH   7   8
ATOM      8  O   UNL     1     -10.687   6.850 127.400  0.00  0.00    +0.000 OA
BRANCH   8   9
ATOM      9  C   UNL     1     -11.323   7.296 126.293  0.00  0.00    +0.000 C 
ATOM     10  N   UNL     1     -12.604   6.890 126.124  0.00  0.00    +0.000 N 
ATOM     11  O   UNL     1     -10.785   8.049 125.489  0.00  0.00    +0.000 OA
ATOM     12  H   UNL     1     -13.106   6.325 126.786  0.00  0.00    +0.000 HD
ATOM     13  H   UNL     1     -13.114   7.321 125.366  0.00  0.00    +0.000 HD
ENDBRANCH   8   9
ENDBRANCH   7   8
ENDBRANCH   1   7
BRANCH   1  14
ATOM     14  C   UNL     1      -9.963   6.893 130.890  0.00  0.00    +0.000 C 
BRANCH  14  15
ATOM     15  O   UNL     1     -10.262   5.710 131.648  0.00  0.00    +0.000 OA
BRANCH  15  16
ATOM     16  C   UNL     1      -9.674   5.455 132.844  0.00  0.00    +0.000 C 
ATOM     17  N   UNL     1      -9.959   4.268 133.443  0.00  0.00    +0.000 N 
ATOM     18  O   UNL     1      -8.929   6.265 133.382  0.00  0.00    +0.000 OA
ATOM     19  H   UNL     1     -10.550   3.549 133.063  0.00  0.00    +0.000 HD
ATOM     20  H   UNL     1      -9.525   4.104 134.341  0.00  0.00    +0.000 HD
ENDBRANCH  15  16
ENDBRANCH  14  15
ENDBRANCH   1  14
TORSDOF 8
ENDMDL
MODEL 3
REMARK VINA RESULT:      -5.4      8.772     11.386
REMARK  Name = Mebutamate
REMARK  11 active torsions:
REMARK  status: ('A' for Active; 'I' for Inactive)
REMARK    1  A    between atoms: C_1  and  C_2
REMARK    2  A    between atoms: C_2  and  C_3
REMARK    3  A    between atoms: C_3  and  C_4
REMARK    4  A    between atoms: C_3  and  C_5
REMARK    5  A    between atoms: C_5  and  C_6
REMARK    6  A    between atoms: C_5  and  C_7
REMARK    7  A    between atoms: C_5  and  C_12
REMARK    8  A    between atoms: C_7  and  O_8
REMARK    9  A    between atoms: O_8  and  C_9
REMARK   10  A    between atoms: C_12  and  O_13
REMARK   11  A    between atoms: O_13  and  C_14
REMARK                            x       y       z     vdW  Elec       q    Type
REMARK                         _______ _______ _______ _____ _____    ______ ____
ROOT
ATOM      1  C   UNL     1     -11.400   6.423 130.576  0.00  0.00    +0.000 C 
ATOM      2  C   UNL     1     -10.192   7.131 129.922  0.00  0.00    +0.000 C 
ENDROOT
BRANCH   1   3
ATOM      3  C   UNL     1     -12.745   7.133 130.147  0.00  0.00    +0.000 C 
ATOM      4  C   UNL     1     -13.198   6.698 128.737  0.00  0.00    +0.000 C 
BRANCH   3   6
ATOM      5  C   UNL     1     -13.062   9.365 128.920  0.00  0.00    +0.000 C 
ATOM      6  C   UNL     1     -12.664   8.674 130.205  0.00  0.00    +0.000 C 
ENDBRANCH   3   6
ENDBRANCH   1   3
BRANCH   1   7
ATOM      7  C   UNL     1     -11.204   6.427 132.124  0.00  0.00    +0.000 C 
BRANCH   7   8
ATOM      8  O   UNL     1      -9.812   6.549 132.475  0.00  0.00    +0.000 OA
BRANCH   8   9
ATOM      9  C   UNL     1      -9.114   5.600 133.139  0.00  0.00    +0.000 C 
ATOM     10  N   UNL     1      -9.815   4.526 133.576  0.00  0.00    +0.000 N 
ATOM     11  O   UNL     1      -7.905   5.684 133.320  0.00  0.00    +0.000 OA
ATOM     12  H   UNL     1     -10.794   4.384 133.397  0.00  0.00    +0.000 HD
ATOM     13  H   UNL     1      -9.274   3.764 133.960  0.00  0.00    +0.000 HD
ENDBRANCH   8   9
ENDBRANCH   7   8
ENDBRANCH   1   7
BRANCH   1  14
ATOM     14  C   UNL     1     -11.442   4.940 130.107  0.00  0.00    +0.000 C 
BRANCH  14  15
ATOM     15  O   UNL     1     -10.151   4.512 129.643  0.00  0.00    +0.000 OA
BRANCH  15  16
ATOM     16  C   UNL     1      -9.537   3.412 130.146  0.00  0.00    +0.000 C 
ATOM     17  N   UNL     1      -8.390   3.003 129.541  0.00  0.00    +0.000 N 
ATOM     18  O   UNL     1      -9.999   2.792 131.096  0.00  0.00    +0.000 OA
ATOM     19  H   UNL     1      -7.942   3.462 128.767  0.00  0.00    +0.000 HD
ATOM     20  H   UNL     1      -7.955   2.173 129.919  0.00  0.00    +0.000 HD
ENDBRANCH  15  16
ENDBRANCH  14  15
ENDBRANCH   1  14
TORSDOF 8
ENDMDL
MODEL 4
REMARK VINA RESULT:      -5.3      2.578      5.164
REMARK  Name = Mebutamate
REMARK  11 active torsions:
REMARK  status: ('A' for Active; 'I' for Inactive)
REMARK    1  A    between atoms: C_1  and  C_2
REMARK    2  A    between atoms: C_2  and  C_3
REMARK    3  A    between atoms: C_3  and  C_4
REMARK    4  A    between atoms: C_3  and  C_5
REMARK    5  A    between atoms: C_5  and  C_6
REMARK    6  A    between atoms: C_5  and  C_7
REMARK    7  A    between atoms: C_5  and  C_12
REMARK    8  A    between atoms: C_7  and  O_8
REMARK    9  A    between atoms: O_8  and  C_9
REMARK   10  A    between atoms: C_12  and  O_13
REMARK   11  A    between atoms: O_13  and  C_14
REMARK                            x       y       z     vdW  Elec       q    Type
REMARK                         _______ _______ _______ _____ _____    ______ ____
ROOT
ATOM      1  C   UNL     1      -8.069  -2.196 124.167  0.00  0.00    +0.000 C 
ATOM      2  C   UNL     1      -8.663  -3.623 124.129  0.00  0.00    +0.000 C 
ENDROOT
BRANCH   1   3
ATOM      3  C   UNL     1      -6.516  -2.245 123.881  0.00  0.00    +0.000 C 
ATOM      4  C   UNL     1      -6.194  -1.924 122.407  0.00  0.00    +0.000 C 
BRANCH   3   6
ATOM      5  C   UNL     1      -4.549  -3.866 123.579  0.00  0.00    +0.000 C 
ATOM      6  C   UNL     1      -5.870  -3.595 124.263  0.00  0.00    +0.000 C 
ENDBRANCH   3   6
ENDBRANCH   1   3
BRANCH   1   7
ATOM      7  C   UNL     1      -8.390  -1.557 125.554  0.00  0.00    +0.000 C 
BRANCH   7   8
ATOM      8  O   UNL     1      -8.727  -2.563 126.529  0.00  0.00    +0.000 OA
BRANCH   8   9
ATOM      9  C   UNL     1      -8.034  -2.769 127.672  0.00  0.00    +0.000 C 
ATOM     10  N   UNL     1      -6.732  -2.397 127.668  0.00  0.00    +0.000 N 
ATOM     11  O   UNL     1      -8.555  -3.246 128.674  0.00  0.00    +0.000 OA
ATOM     12  H   UNL     1      -6.279  -1.946 126.892  0.00  0.00    +0.000 HD
ATOM     13  H   UNL     1      -6.252  -2.437 128.556  0.00  0.00    +0.000 HD
ENDBRANCH   8   9
ENDBRANCH   7   8
ENDBRANCH   1   7
BRANCH   1  14
ATOM     14  C   UNL     1      -8.754  -1.326 123.074  0.00  0.00    +0.000 C 
BRANCH  14  15
ATOM     15  O   UNL     1      -8.863   0.041 123.500  0.00  0.00    +0.000 OA
BRANCH  15  16
ATOM     16  C   UNL     1      -9.987   0.772 123.289  0.00  0.00    +0.000 C 
ATOM     17  N   UNL     1     -10.138   1.913 124.013  0.00  0.00    +0.000 N 
ATOM     18  O   UNL     1     -10.848   0.416 122.494  0.00  0.00    +0.000 OA
ATOM     19  H   UNL     1      -9.475   2.278 124.675  0.00  0.00    +0.000 HD
ATOM     20  H   UNL     1     -10.989   2.434 123.854  0.00  0.00    +0.000 HD
ENDBRANCH  15  16
ENDBRANCH  14  15
ENDBRANCH   1  14
TORSDOF 8
ENDMDL
MODEL 5
REMARK VINA RESULT:      -5.3      2.356      4.894
REMARK  Name = Mebutamate
REMARK  11 active torsions:
REMARK  status: ('A' for Active; 'I' for Inactive)
REMARK    1  A    between atoms: C_1  and  C_2
REMARK    2  A    between atoms: C_2  and  C_3
REMARK    3  A    between atoms: C_3  and  C_4
REMARK    4  A    between atoms: C_3  and  C_5
REMARK    5  A    between atoms: C_5  and  C_6
REMARK    6  A    between atoms: C_5  and  C_7
REMARK    7  A    between atoms: C_5  and  C_12
REMARK    8  A    between atoms: C_7  and  O_8
REMARK    9  A    between atoms: O_8  and  C_9
REMARK   10  A    between atoms: C_12  and  O_13
REMARK   11  A    between atoms: O_13  and  C_14
REMARK                            x       y       z     vdW  Elec       q    Type
REMARK                         _______ _______ _______ _____ _____    ______ ____
ROOT
ATOM      1  C   UNL     1      -6.932  -2.170 123.691  0.00  0.00    +0.000 C 
ATOM      2  C   UNL     1      -6.424  -1.931 122.252  0.00  0.00    +0.000 C 
ENDROOT
BRANCH   1   3
ATOM      3  C   UNL     1      -5.850  -2.962 124.527  0.00  0.00    +0.000 C 
ATOM      4  C   UNL     1      -5.460  -2.211 125.817  0.00  0.00    +0.000 C 
BRANCH   3   6
ATOM      5  C   UNL     1      -4.296  -4.762 123.558  0.00  0.00    +0.000 C 
ATOM      6  C   UNL     1      -4.574  -3.284 123.718  0.00  0.00    +0.000 C 
ENDBRANCH   3   6
ENDBRANCH   1   3
BRANCH   1   7
ATOM      7  C   UNL     1      -8.292  -2.935 123.622  0.00  0.00    +0.000 C 
BRANCH   7   8
ATOM      8  O   UNL     1      -8.505  -3.731 124.804  0.00  0.00    +0.000 OA
BRANCH   8   9
ATOM      9  C   UNL     1      -9.191  -3.304 125.888  0.00  0.00    +0.000 C 
ATOM     10  N   UNL     1      -8.757  -3.745 127.093  0.00  0.00    +0.000 N 
ATOM     11  O   UNL     1     -10.143  -2.537 125.799  0.00  0.00    +0.000 OA
ATOM     12  H   UNL     1      -7.945  -4.324 127.220  0.00  0.00    +0.000 HD
ATOM     13  H   UNL     1      -9.191  -3.329 127.906  0.00  0.00    +0.000 HD
ENDBRANCH   8   9
ENDBRANCH   7   8
ENDBRANCH   1   7
BRANCH   1  14
ATOM     14  C   UNL     1      -7.194  -0.799 124.379  0.00  0.00    +0.000 C 
BRANCH  14  15
ATOM     15  O   UNL     1      -8.288  -0.111 123.751  0.00  0.00    +0.000 OA
BRANCH  15  16
ATOM     16  C   UNL     1      -9.310   0.417 124.470  0.00  0.00    +0.000 C 
ATOM     17  N   UNL     1      -9.197   0.402 125.825  0.00  0.00    +0.000 N 
ATOM     18  O   UNL     1     -10.310   0.874 123.930  0.00  0.00    +0.000 OA
ATOM     19  H   UNL     1      -8.407   0.056 126.342  0.00  0.00    +0.000 HD
ATOM     20  H   UNL     1      -9.975   0.785 126.344  0.00  0.00    +0.000 HD
ENDBRANCH  15  16
ENDBRANCH  14  15
ENDBRANCH   1  14
TORSDOF 8
ENDMDL
MODEL 6
REMARK VINA RESULT:      -5.2      8.811     11.465
REMARK  Name = Mebutamate
REMARK  11 active torsions:
REMARK  status: ('A' for Active; 'I' for Inactive)
REMARK    1  A    between atoms: C_1  and  C_2
REMARK    2  A    between atoms: C_2  and  C_3
REMARK    3  A    between atoms: C_3  and  C_4
REMARK    4  A    between atoms: C_3  and  C_5
REMARK    5  A    between atoms: C_5  and  C_6
REMARK    6  A    between atoms: C_5  and  C_7
REMARK    7  A    between atoms: C_5  and  C_12
REMARK    8  A    between atoms: C_7  and  O_8
REMARK    9  A    between atoms: O_8  and  C_9
REMARK   10  A    between atoms: C_12  and  O_13
REMARK   11  A    between atoms: O_13  and  C_14
REMARK                            x       y       z     vdW  Elec       q    Type
REMARK                         _______ _______ _______ _____ _____    ______ ____
ROOT
ATOM      1  C   UNL     1     -11.587   6.845 130.323  0.00  0.00    +0.000 C 
ATOM      2  C   UNL     1     -12.455   7.173 131.559  0.00  0.00    +0.000 C 
ENDROOT
BRANCH   1   3
ATOM      3  C   UNL     1     -11.954   7.811 129.127  0.00  0.00    +0.000 C 
ATOM      4  C   UNL     1     -13.087   7.235 128.253  0.00  0.00    +0.000 C 
BRANCH   3   6
ATOM      5  C   UNL     1     -10.894   7.723 126.791  0.00  0.00    +0.000 C 
ATOM      6  C   UNL     1     -10.743   8.156 128.232  0.00  0.00    +0.000 C 
ENDBRANCH   3   6
ENDBRANCH   1   3
BRANCH   1   7
ATOM      7  C   UNL     1     -11.797   5.345 129.948  0.00  0.00    +0.000 C 
BRANCH   7   8
ATOM      8  O   UNL     1     -10.547   4.710 129.614  0.00  0.00    +0.000 OA
BRANCH   8   9
ATOM      9  C   UNL     1     -10.178   3.487 130.060  0.00  0.00    +0.000 C 
ATOM     10  N   UNL     1     -10.676   3.104 131.260  0.00  0.00    +0.000 N 
ATOM     11  O   UNL     1      -9.450   2.746 129.410  0.00  0.00    +0.000 OA
ATOM     12  H   UNL     1     -11.325   3.650 131.799  0.00  0.00    +0.000 HD
ATOM     13  H   UNL     1     -10.501   2.147 131.533  0.00  0.00    +0.000 HD
ENDBRANCH   8   9
ENDBRANCH   7   8
ENDBRANCH   1   7
BRANCH   1  14
ATOM     14  C   UNL     1     -10.086   7.038 130.684  0.00  0.00    +0.000 C 
BRANCH  14  15
ATOM     15  O   UNL     1      -9.855   6.776 132.077  0.00  0.00    +0.000 OA
BRANCH  15  16
ATOM     16  C   UNL     1      -8.845   5.972 132.498  0.00  0.00    +0.000 C 
ATOM     17  N   UNL     1      -8.887   5.536 133.785  0.00  0.00    +0.000 N 
ATOM     18  O   UNL     1      -7.917   5.662 131.761  0.00  0.00    +0.000 OA
ATOM     19  H   UNL     1      -9.616   5.737 134.447  0.00  0.00    +0.000 HD
ATOM     20  H   UNL     1      -8.118   4.953 134.086  0.00  0.00    +0.000 HD
ENDBRANCH  15  16
ENDBRANCH  14  15
ENDBRANCH   1  14
TORSDOF 8
ENDMDL
MODEL 7
REMARK VINA RESULT:      -5.0      2.449      2.930
REMARK  Name = Mebutamate
REMARK  11 active torsions:
REMARK  status: ('A' for Active; 'I' for Inactive)
REMARK    1  A    between atoms: C_1  and  C_2
REMARK    2  A    between atoms: C_2  and  C_3
REMARK    3  A    between atoms: C_3  and  C_4
REMARK    4  A    between atoms: C_3  and  C_5
REMARK    5  A    between atoms: C_5  and  C_6
REMARK    6  A    between atoms: C_5  and  C_7
REMARK    7  A    between atoms: C_5  and  C_12
REMARK    8  A    between atoms: C_7  and  O_8
REMARK    9  A    between atoms: O_8  and  C_9
REMARK   10  A    between atoms: C_12  and  O_13
REMARK   11  A    between atoms: O_13  and  C_14
REMARK                            x       y       z     vdW  Elec       q    Type
REMARK                         _______ _______ _______ _____ _____    ______ ____
ROOT
ATOM      1  C   UNL     1      -7.518  -1.804 124.364  0.00  0.00    +0.000 C 
ATOM      2  C   UNL     1      -7.041  -1.885 122.897  0.00  0.00    +0.000 C 
ENDROOT
BRANCH   1   3
ATOM      3  C   UNL     1      -8.512  -2.992 124.681  0.00  0.00    +0.000 C 
ATOM      4  C   UNL     1      -9.443  -3.292 123.488  0.00  0.00    +0.000 C 
BRANCH   3   6
ATOM      5  C   UNL     1      -8.989  -3.621 127.123  0.00  0.00    +0.000 C 
ATOM      6  C   UNL     1      -9.364  -2.749 125.946  0.00  0.00    +0.000 C 
ENDBRANCH   3   6
ENDBRANCH   1   3
BRANCH   1   7
ATOM      7  C   UNL     1      -8.179  -0.410 124.601  0.00  0.00    +0.000 C 
BRANCH   7   8
ATOM      8  O   UNL     1      -8.684   0.145 123.370  0.00  0.00    +0.000 OA
BRANCH   8   9
ATOM      9  C   UNL     1      -9.906   0.709 123.241  0.00  0.00    +0.000 C 
ATOM     10  N   UNL     1     -10.167   1.778 124.030  0.00  0.00    +0.000 N 
ATOM     11  O   UNL     1     -10.735   0.297 122.437  0.00  0.00    +0.000 OA
ATOM     12  H   UNL     1      -9.499   2.189 124.658  0.00  0.00    +0.000 HD
ATOM     13  H   UNL     1     -11.030   2.272 123.845  0.00  0.00    +0.000 HD
ENDBRANCH   8   9
ENDBRANCH   7   8
ENDBRANCH   1   7
BRANCH   1  14
ATOM     14  C   UNL     1      -6.288  -1.912 125.311  0.00  0.00    +0.000 C 
BRANCH  14  15
ATOM     15  O   UNL     1      -6.291  -0.851 126.279  0.00  0.00    +0.000 OA
BRANCH  15  16
ATOM     16  C   UNL     1      -6.113  -1.088 127.604  0.00  0.00    +0.000 C 
ATOM     17  N   UNL     1      -4.921  -1.617 127.991  0.00  0.00    +0.000 N 
ATOM     18  O   UNL     1      -6.992  -0.856 128.424  0.00  0.00    +0.000 OA
ATOM     19  H   UNL     1      -4.149  -1.825 127.383  0.00  0.00    +0.000 HD
ATOM     20  H   UNL     1      -4.814  -1.801 128.979  0.00  0.00    +0.000 HD
ENDBRANCH  15  16
ENDBRANCH  14  15
ENDBRANCH   1  14
TORSDOF 8
ENDMDL
MODEL 8
REMARK VINA RESULT:      -5.0      2.919      4.842
REMARK  Name = Mebutamate
REMARK  11 active torsions:
REMARK  status: ('A' for Active; 'I' for Inactive)
REMARK    1  A    between atoms: C_1  and  C_2
REMARK    2  A    between atoms: C_2  and  C_3
REMARK    3  A    between atoms: C_3  and  C_4
REMARK    4  A    between atoms: C_3  and  C_5
REMARK    5  A    between atoms: C_5  and  C_6
REMARK    6  A    between atoms: C_5  and  C_7
REMARK    7  A    between atoms: C_5  and  C_12
REMARK    8  A    between atoms: C_7  and  O_8
REMARK    9  A    between atoms: O_8  and  C_9
REMARK   10  A    between atoms: C_12  and  O_13
REMARK   11  A    between atoms: O_13  and  C_14
REMARK                            x       y       z     vdW  Elec       q    Type
REMARK                         _______ _______ _______ _____ _____    ______ ____
ROOT
ATOM      1  C   UNL     1      -7.837  -2.057 124.253  0.00  0.00    +0.000 C 
ATOM      2  C   UNL     1      -8.582  -3.394 124.046  0.00  0.00    +0.000 C 
ENDROOT
BRANCH   1   3
ATOM      3  C   UNL     1      -6.312  -2.216 123.870  0.00  0.00    +0.000 C 
ATOM      4  C   UNL     1      -6.067  -1.934 122.372  0.00  0.00    +0.000 C 
BRANCH   3   6
ATOM      5  C   UNL     1      -4.439  -3.937 123.530  0.00  0.00    +0.000 C 
ATOM      6  C   UNL     1      -5.738  -3.604 124.229  0.00  0.00    +0.000 C 
ENDBRANCH   3   6
ENDBRANCH   1   3
BRANCH   1   7
ATOM      7  C   UNL     1      -8.023  -1.604 125.736  0.00  0.00    +0.000 C 
BRANCH   7   8
ATOM      8  O   UNL     1      -6.994  -0.676 126.132  0.00  0.00    +0.000 OA
BRANCH   8   9
ATOM      9  C   UNL     1      -7.236   0.588 126.546  0.00  0.00    +0.000 C 
ATOM     10  N   UNL     1      -8.517   0.886 126.871  0.00  0.00    +0.000 N 
ATOM     11  O   UNL     1      -6.345   1.424 126.649  0.00  0.00    +0.000 OA
ATOM     12  H   UNL     1      -9.268   0.218 126.862  0.00  0.00    +0.000 HD
ATOM     13  H   UNL     1      -8.674   1.789 127.296  0.00  0.00    +0.000 HD
ENDBRANCH   8   9
ENDBRANCH   7   8
ENDBRANCH   1   7
BRANCH   1  14
ATOM     14  C   UNL     1      -8.474  -0.968 123.342  0.00  0.00    +0.000 C 
BRANCH  14  15
ATOM     15  O   UNL     1      -9.507  -0.254 124.040  0.00  0.00    +0.000 OA
BRANCH  15  16
ATOM     16  C   UNL     1     -10.193   0.763 123.462  0.00  0.00    +0.000 C 
ATOM     17  N   UNL     1      -9.935   2.024 123.902  0.00  0.00    +0.000 N 
ATOM     18  O   UNL     1     -11.029   0.564 122.589  0.00  0.00    +0.000 OA
ATOM     19  H   UNL     1      -9.258   2.271 124.604  0.00  0.00    +0.000 HD
ATOM     20  H   UNL     1     -10.467   2.767 123.471  0.00  0.00    +0.000 HD
ENDBRANCH  15  16
ENDBRANCH  14  15
ENDBRANCH   1  14
TORSDOF 8
ENDMDL
MODEL 9
REMARK VINA RESULT:      -4.9      2.794      3.832
REMARK  Name = Mebutamate
REMARK  11 active torsions:
REMARK  status: ('A' for Active; 'I' for Inactive)
REMARK    1  A    between atoms: C_1  and  C_2
REMARK    2  A    between atoms: C_2  and  C_3
REMARK    3  A    between atoms: C_3  and  C_4
REMARK    4  A    between atoms: C_3  and  C_5
REMARK    5  A    between atoms: C_5  and  C_6
REMARK    6  A    between atoms: C_5  and  C_7
REMARK    7  A    between atoms: C_5  and  C_12
REMARK    8  A    between atoms: C_7  and  O_8
REMARK    9  A    between atoms: O_8  and  C_9
REMARK   10  A    between atoms: C_12  and  O_13
REMARK   11  A    between atoms: O_13  and  C_14
REMARK                            x       y       z     vdW  Elec       q    Type
REMARK                         _______ _______ _______ _____ _____    ______ ____
ROOT
ATOM      1  C   UNL     1      -7.202  -1.148 124.838  0.00  0.00    +0.000 C 
ATOM      2  C   UNL     1      -5.927  -0.823 125.648  0.00  0.00    +0.000 C 
ENDROOT
BRANCH   1   3
ATOM      3  C   UNL     1      -6.919  -2.328 123.826  0.00  0.00    +0.000 C 
ATOM      4  C   UNL     1      -7.545  -3.655 124.304  0.00  0.00    +0.000 C 
BRANCH   3   6
ATOM      5  C   UNL     1      -4.925  -3.944 123.838  0.00  0.00    +0.000 C 
ATOM      6  C   UNL     1      -5.415  -2.543 123.550  0.00  0.00    +0.000 C 
ENDBRANCH   3   6
ENDBRANCH   1   3
BRANCH   1   7
ATOM      7  C   UNL     1      -7.675   0.148 124.107  0.00  0.00    +0.000 C 
BRANCH   7   8
ATOM      8  O   UNL     1      -8.819  -0.112 123.270  0.00  0.00    +0.000 OA
BRANCH   8   9
ATOM      9  C   UNL     1      -9.904   0.693 123.202  0.00  0.00    +0.000 C 
ATOM     10  N   UNL     1      -9.856   1.839 123.924  0.00  0.00    +0.000 N 
ATOM     11  O   UNL     1     -10.876   0.422 122.507  0.00  0.00    +0.000 OA
ATOM     12  H   UNL     1      -9.057   2.132 124.458  0.00  0.00    +0.000 HD
ATOM     13  H   UNL     1     -10.610   2.494 123.775  0.00  0.00    +0.000 HD
ENDBRANCH   8   9
ENDBRANCH   7   8
ENDBRANCH   1   7
BRANCH   1  14
ATOM     14  C   UNL     1      -8.334  -1.582 125.813  0.00  0.00    +0.000 C 
BRANCH  14  15
ATOM     15  O   UNL     1      -7.833  -1.718 127.153  0.00  0.00    +0.000 OA
BRANCH  15  16
ATOM     16  C   UNL     1      -8.050  -2.835 127.891  0.00  0.00    +0.000 C 
ATOM     17  N   UNL     1      -7.211  -3.070 128.935  0.00  0.00    +0.000 N 
ATOM     18  O   UNL     1      -8.951  -3.620 127.624  0.00  0.00    +0.000 OA
ATOM     19  H   UNL     1      -6.457  -2.471 129.225  0.00  0.00    +0.000 HD
ATOM     20  H   UNL     1      -7.378  -3.915 129.462  0.00  0.00    +0.000 HD
ENDBRANCH  15  16
ENDBRANCH  14  15
ENDBRANCH   1  14
TORSDOF 8
ENDMDL
