MODEL 1
REMARK VINA RESULT:      -5.6      0.000      0.000
REMARK  Name = Mecamylamine
REMARK  5 active torsions:
REMARK  status: ('A' for Active; 'I' for Inactive)
REMARK    1  A    between atoms: C_1  and  N_2
REMARK    2  A    between atoms: N_2  and  C_3
REMARK    3  A    between atoms: C_3  and  C_4
REMARK    4  A    between atoms: C_10  and  C_11
REMARK    5  A    between atoms: C_10  and  C_12
REMARK                            x       y       z     vdW  Elec       q    Type
REMARK                         _______ _______ _______ _____ _____    ______ ____
ROOT
ATOM      1  C   UNL     1     -11.561   6.756 129.472  0.00  0.00    +0.000 C 
ATOM      2  C   UNL     1     -11.394   7.049 130.991  0.00  0.00    +0.000 C 
ATOM      3  C   UNL     1     -10.172   7.100 128.783  0.00  0.00    +0.000 C 
ATOM      4  C   UNL     1     -10.101   6.543 127.355  0.00  0.00    +0.000 C 
ATOM      5  C   UNL     1     -11.117   7.420 126.610  0.00  0.00    +0.000 C 
ATOM      6  C   UNL     1     -11.578   8.439 127.683  0.00  0.00    +0.000 C 
ATOM      7  C   UNL     1     -10.278   8.598 128.475  0.00  0.00    +0.000 C 
ATOM      8  C   UNL     1     -12.547   7.799 128.740  0.00  0.00    +0.000 C 
ATOM      9  C   UNL     1     -13.835   7.288 128.070  0.00  0.00    +0.000 C 
ATOM     10  C   UNL     1     -13.095   8.890 129.706  0.00  0.00    +0.000 C 
ENDROOT
BRANCH   1  12
ATOM     11  C   UNL     1     -11.088   4.431 130.377  0.00  0.00    +0.000 C 
ATOM     12  N   UNL     1     -11.790   5.300 129.463  0.00  0.00    +0.000 NA
ATOM     13  H   UNL     1     -12.797   5.119 129.534  0.00  0.00    +0.000 HD
ENDBRANCH   1  12
TORSDOF 1
ENDMDL
MODEL 2
REMARK VINA RESULT:      -5.5      1.487      2.475
REMARK  Name = Mecamylamine
REMARK  5 active torsions:
REMARK  status: ('A' for Active; 'I' for Inactive)
REMARK    1  A    between atoms: C_1  and  N_2
REMARK    2  A    between atoms: N_2  and  C_3
REMARK    3  A    between atoms: C_3  and  C_4
REMARK    4  A    between atoms: C_10  and  C_11
REMARK    5  A    between atoms: C_10  and  C_12
REMARK                            x       y       z     vdW  Elec       q    Type
REMARK                         _______ _______ _______ _____ _____    ______ ____
ROOT
ATOM      1  C   UNL     1     -10.190   6.709 129.384  0.00  0.00    +0.000 C 
ATOM      2  C   UNL     1      -9.099   7.274 130.340  0.00  0.00    +0.000 C 
ATOM      3  C   UNL     1     -10.738   7.934 128.537  0.00  0.00    +0.000 C 
ATOM      4  C   UNL     1     -11.570   7.460 127.337  0.00  0.00    +0.000 C 
ATOM      5  C   UNL     1     -12.820   6.883 128.014  0.00  0.00    +0.000 C 
ATOM      6  C   UNL     1     -12.596   7.184 129.518  0.00  0.00    +0.000 C 
ATOM      7  C   UNL     1     -11.851   8.518 129.414  0.00  0.00    +0.000 C 
ATOM      8  C   UNL     1     -11.520   6.240 130.164  0.00  0.00    +0.000 C 
ATOM      9  C   UNL     1     -11.965   4.768 130.096  0.00  0.00    +0.000 C 
ATOM     10  C   UNL     1     -11.436   6.482 131.700  0.00  0.00    +0.000 C 
ENDROOT
BRANCH   1  12
ATOM     11  C   UNL     1      -8.498   4.836 129.099  0.00  0.00    +0.000 C 
ATOM     12  N   UNL     1      -9.407   5.801 128.526  0.00  0.00    +0.000 NA
ATOM     13  H   UNL     1     -10.041   5.322 127.879  0.00  0.00    +0.000 HD
ENDBRANCH   1  12
TORSDOF 1
ENDMDL
MODEL 3
REMARK VINA RESULT:      -5.4      9.185     10.984
REMARK  Name = Mecamylamine
REMARK  5 active torsions:
REMARK  status: ('A' for Active; 'I' for Inactive)
REMARK    1  A    between atoms: C_1  and  N_2
REMARK    2  A    between atoms: N_2  and  C_3
REMARK    3  A    between atoms: C_3  and  C_4
REMARK    4  A    between atoms: C_10  and  C_11
REMARK    5  A    between atoms: C_10  and  C_12
REMARK                            x       y       z     vdW  Elec       q    Type
REMARK                         _______ _______ _______ _____ _____    ______ ____
ROOT
ATOM      1  C   UNL     1      -8.162  -1.010 124.314  0.00  0.00    +0.000 C 
ATOM      2  C   UNL     1      -9.079  -0.374 123.229  0.00  0.00    +0.000 C 
ATOM      3  C   UNL     1      -6.671  -0.898 123.780  0.00  0.00    +0.000 C 
ATOM      4  C   UNL     1      -5.653  -1.182 124.892  0.00  0.00    +0.000 C 
ATOM      5  C   UNL     1      -5.851  -2.683 125.142  0.00  0.00    +0.000 C 
ATOM      6  C   UNL     1      -6.894  -3.098 124.072  0.00  0.00    +0.000 C 
ATOM      7  C   UNL     1      -6.492  -2.162 122.931  0.00  0.00    +0.000 C 
ATOM      8  C   UNL     1      -8.343  -2.607 124.426  0.00  0.00    +0.000 C 
ATOM      9  C   UNL     1      -8.831  -3.228 125.747  0.00  0.00    +0.000 C 
ATOM     10  C   UNL     1      -9.373  -3.170 123.403  0.00  0.00    +0.000 C 
ENDROOT
BRANCH   1  12
ATOM     11  C   UNL     1      -9.643   0.528 125.689  0.00  0.00    +0.000 C 
ATOM     12  N   UNL     1      -8.366  -0.102 125.459  0.00  0.00    +0.000 NA
ATOM     13  H   UNL     1      -8.064  -0.574 126.318  0.00  0.00    +0.000 HD
ENDBRANCH   1  12
TORSDOF 1
ENDMDL
MODEL 4
REMARK VINA RESULT:      -5.3      8.995     10.787
REMARK  Name = Mecamylamine
REMARK  5 active torsions:
REMARK  status: ('A' for Active; 'I' for Inactive)
REMARK    1  A    between atoms: C_1  and  N_2
REMARK    2  A    between atoms: N_2  and  C_3
REMARK    3  A    between atoms: C_3  and  C_4
REMARK    4  A    between atoms: C_10  and  C_11
REMARK    5  A    between atoms: C_10  and  C_12
REMARK                            x       y       z     vdW  Elec       q    Type
REMARK                         _______ _______ _______ _____ _____    ______ ____
ROOT
ATOM      1  C   UNL     1      -8.379  -1.535 125.330  0.00  0.00    +0.000 C 
ATOM      2  C   UNL     1      -8.055  -1.665 126.846  0.00  0.00    +0.000 C 
ATOM      3  C   UNL     1      -8.777  -2.984 124.818  0.00  0.00    +0.000 C 
ATOM      4  C   UNL     1      -9.436  -2.930 123.434  0.00  0.00    +0.000 C 
ATOM      5  C   UNL     1      -8.265  -2.522 122.530  0.00  0.00    +0.000 C 
ATOM      6  C   UNL     1      -7.052  -2.486 123.495  0.00  0.00    +0.000 C 
ATOM      7  C   UNL     1      -7.434  -3.623 124.446  0.00  0.00    +0.000 C 
ATOM      8  C   UNL     1      -7.073  -1.229 124.437  0.00  0.00    +0.000 C 
ATOM      9  C   UNL     1      -6.995   0.074 123.621  0.00  0.00    +0.000 C 
ATOM     10  C   UNL     1      -5.767  -1.161 125.282  0.00  0.00    +0.000 C 
ENDROOT
BRANCH   1  12
ATOM     11  C   UNL     1      -9.521   0.632 125.998  0.00  0.00    +0.000 C 
ATOM     12  N   UNL     1      -9.560  -0.653 125.343  0.00  0.00    +0.000 NA
ATOM     13  H   UNL     1      -9.897  -0.530 124.382  0.00  0.00    +0.000 HD
ENDBRANCH   1  12
TORSDOF 1
ENDMDL
MODEL 5
REMARK VINA RESULT:      -5.2      9.710     11.309
REMARK  Name = Mecamylamine
REMARK  5 active torsions:
REMARK  status: ('A' for Active; 'I' for Inactive)
REMARK    1  A    between atoms: C_1  and  N_2
REMARK    2  A    between atoms: N_2  and  C_3
REMARK    3  A    between atoms: C_3  and  C_4
REMARK    4  A    between atoms: C_10  and  C_11
REMARK    5  A    between atoms: C_10  and  C_12
REMARK                            x       y       z     vdW  Elec       q    Type
REMARK                         _______ _______ _______ _____ _____    ______ ____
ROOT
ATOM      1  C   UNL     1      -7.904  -2.517 124.814  0.00  0.00    +0.000 C 
ATOM      2  C   UNL     1      -8.146  -4.055 124.813  0.00  0.00    +0.000 C 
ATOM      3  C   UNL     1      -8.752  -1.918 123.613  0.00  0.00    +0.000 C 
ATOM      4  C   UNL     1      -8.864  -0.390 123.712  0.00  0.00    +0.000 C 
ATOM      5  C   UNL     1      -7.427   0.063 123.421  0.00  0.00    +0.000 C 
ATOM      6  C   UNL     1      -6.685  -1.259 123.094  0.00  0.00    +0.000 C 
ATOM      7  C   UNL     1      -7.812  -2.034 122.408  0.00  0.00    +0.000 C 
ATOM      8  C   UNL     1      -6.405  -2.122 124.376  0.00  0.00    +0.000 C 
ATOM      9  C   UNL     1      -5.497  -1.367 125.363  0.00  0.00    +0.000 C 
ATOM     10  C   UNL     1      -5.534  -3.362 124.017  0.00  0.00    +0.000 C 
ENDROOT
BRANCH   1  12
ATOM     11  C   UNL     1      -8.506  -3.022 127.229  0.00  0.00    +0.000 C 
ATOM     12  N   UNL     1      -8.490  -2.115 126.106  0.00  0.00    +0.000 NA
ATOM     13  H   UNL     1      -8.075  -1.225 126.399  0.00  0.00    +0.000 HD
ENDBRANCH   1  12
TORSDOF 1
ENDMDL
MODEL 6
REMARK VINA RESULT:      -5.0      9.227     11.136
REMARK  Name = Mecamylamine
REMARK  5 active torsions:
REMARK  status: ('A' for Active; 'I' for Inactive)
REMARK    1  A    between atoms: C_1  and  N_2
REMARK    2  A    between atoms: N_2  and  C_3
REMARK    3  A    between atoms: C_3  and  C_4
REMARK    4  A    between atoms: C_10  and  C_11
REMARK    5  A    between atoms: C_10  and  C_12
REMARK                            x       y       z     vdW  Elec       q    Type
REMARK                         _______ _______ _______ _____ _____    ______ ____
ROOT
ATOM      1  C   UNL     1      -7.565  -0.963 124.790  0.00  0.00    +0.000 C 
ATOM      2  C   UNL     1      -8.977  -0.461 125.211  0.00  0.00    +0.000 C 
ATOM      3  C   UNL     1      -7.724  -1.632 123.358  0.00  0.00    +0.000 C 
ATOM      4  C   UNL     1      -6.361  -1.864 122.693  0.00  0.00    +0.000 C 
ATOM      5  C   UNL     1      -5.758  -2.975 123.561  0.00  0.00    +0.000 C 
ATOM      6  C   UNL     1      -6.891  -3.314 124.564  0.00  0.00    +0.000 C 
ATOM      7  C   UNL     1      -8.113  -3.081 123.672  0.00  0.00    +0.000 C 
ATOM      8  C   UNL     1      -7.059  -2.213 125.671  0.00  0.00    +0.000 C 
ATOM      9  C   UNL     1      -5.780  -2.081 126.517  0.00  0.00    +0.000 C 
ATOM     10  C   UNL     1      -8.104  -2.665 126.733  0.00  0.00    +0.000 C 
ENDROOT
BRANCH   1  12
ATOM     11  C   UNL     1      -7.392   1.465 124.068  0.00  0.00    +0.000 C 
ATOM     12  N   UNL     1      -6.809   0.298 124.685  0.00  0.00    +0.000 NA
ATOM     13  H   UNL     1      -6.452   0.552 125.612  0.00  0.00    +0.000 HD
ENDBRANCH   1  12
TORSDOF 1
ENDMDL
MODEL 7
REMARK VINA RESULT:      -5.0      9.523     11.442
REMARK  Name = Mecamylamine
REMARK  5 active torsions:
REMARK  status: ('A' for Active; 'I' for Inactive)
REMARK    1  A    between atoms: C_1  and  N_2
REMARK    2  A    between atoms: N_2  and  C_3
REMARK    3  A    between atoms: C_3  and  C_4
REMARK    4  A    between atoms: C_10  and  C_11
REMARK    5  A    between atoms: C_10  and  C_12
REMARK                            x       y       z     vdW  Elec       q    Type
REMARK                         _______ _______ _______ _____ _____    ______ ____
ROOT
ATOM      1  C   UNL     1      -6.745  -1.519 125.200  0.00  0.00    +0.000 C 
ATOM      2  C   UNL     1      -5.646  -1.658 126.294  0.00  0.00    +0.000 C 
ATOM      3  C   UNL     1      -8.084  -2.107 125.818  0.00  0.00    +0.000 C 
ATOM      4  C   UNL     1      -9.307  -1.726 124.972  0.00  0.00    +0.000 C 
ATOM      5  C   UNL     1      -9.090  -2.548 123.695  0.00  0.00    +0.000 C 
ATOM      6  C   UNL     1      -7.816  -3.377 124.004  0.00  0.00    +0.000 C 
ATOM      7  C   UNL     1      -8.005  -3.605 125.505  0.00  0.00    +0.000 C 
ATOM      8  C   UNL     1      -6.509  -2.508 123.950  0.00  0.00    +0.000 C 
ATOM      9  C   UNL     1      -6.293  -1.920 122.544  0.00  0.00    +0.000 C 
ATOM     10  C   UNL     1      -5.250  -3.408 124.122  0.00  0.00    +0.000 C 
ENDROOT
BRANCH   1  12
ATOM     11  C   UNL     1      -5.930   0.827 125.734  0.00  0.00    +0.000 C 
ATOM     12  N   UNL     1      -6.847  -0.056 125.052  0.00  0.00    +0.000 NA
ATOM     13  H   UNL     1      -6.860   0.180 124.054  0.00  0.00    +0.000 HD
ENDBRANCH   1  12
TORSDOF 1
ENDMDL
MODEL 8
REMARK VINA RESULT:      -4.8      3.339      5.602
REMARK  Name = Mecamylamine
REMARK  5 active torsions:
REMARK  status: ('A' for Active; 'I' for Inactive)
REMARK    1  A    between atoms: C_1  and  N_2
REMARK    2  A    between atoms: N_2  and  C_3
REMARK    3  A    between atoms: C_3  and  C_4
REMARK    4  A    between atoms: C_10  and  C_11
REMARK    5  A    between atoms: C_10  and  C_12
REMARK                            x       y       z     vdW  Elec       q    Type
REMARK                         _______ _______ _______ _____ _____    ______ ____
ROOT
ATOM      1  C   UNL     1      -9.527   5.378 131.921  0.00  0.00    +0.000 C 
ATOM      2  C   UNL     1      -9.013   6.688 131.257  0.00  0.00    +0.000 C 
ATOM      3  C   UNL     1      -8.485   4.999 133.057  0.00  0.00    +0.000 C 
ATOM      4  C   UNL     1      -9.046   3.925 133.998  0.00  0.00    +0.000 C 
ATOM      5  C   UNL     1      -9.084   2.685 133.095  0.00  0.00    +0.000 C 
ATOM      6  C   UNL     1      -8.448   3.177 131.769  0.00  0.00    +0.000 C 
ATOM      7  C   UNL     1      -7.425   4.173 132.319  0.00  0.00    +0.000 C 
ATOM      8  C   UNL     1      -9.417   4.100 130.946  0.00  0.00    +0.000 C 
ATOM      9  C   UNL     1     -10.692   3.339 130.540  0.00  0.00    +0.000 C 
ATOM     10  C   UNL     1      -8.793   4.448 129.563  0.00  0.00    +0.000 C 
ENDROOT
BRANCH   1  12
ATOM     11  C   UNL     1     -11.748   6.600 131.763  0.00  0.00    +0.000 C 
ATOM     12  N   UNL     1     -10.801   5.817 132.521  0.00  0.00    +0.000 NA
ATOM     13  H   UNL     1     -11.281   5.003 132.919  0.00  0.00    +0.000 HD
ENDBRANCH   1  12
TORSDOF 1
ENDMDL
MODEL 9
REMARK VINA RESULT:      -4.8      9.221     10.820
REMARK  Name = Mecamylamine
REMARK  5 active torsions:
REMARK  status: ('A' for Active; 'I' for Inactive)
REMARK    1  A    between atoms: C_1  and  N_2
REMARK    2  A    between atoms: N_2  and  C_3
REMARK    3  A    between atoms: C_3  and  C_4
REMARK    4  A    between atoms: C_10  and  C_11
REMARK    5  A    between atoms: C_10  and  C_12
REMARK                            x       y       z     vdW  Elec       q    Type
REMARK                         _______ _______ _______ _____ _____    ______ ____
ROOT
ATOM      1  C   UNL     1      -6.685  -1.542 125.394  0.00  0.00    +0.000 C 
ATOM      2  C   UNL     1      -5.335  -0.818 125.667  0.00  0.00    +0.000 C 
ATOM      3  C   UNL     1      -6.362  -2.777 124.450  0.00  0.00    +0.000 C 
ATOM      4  C   UNL     1      -7.542  -3.755 124.381  0.00  0.00    +0.000 C 
ATOM      5  C   UNL     1      -8.589  -2.950 123.600  0.00  0.00    +0.000 C 
ATOM      6  C   UNL     1      -7.845  -1.640 123.232  0.00  0.00    +0.000 C 
ATOM      7  C   UNL     1      -6.428  -2.185 123.038  0.00  0.00    +0.000 C 
ATOM      8  C   UNL     1      -7.678  -0.680 124.463  0.00  0.00    +0.000 C 
ATOM      9  C   UNL     1      -9.048  -0.241 125.011  0.00  0.00    +0.000 C 
ATOM     10  C   UNL     1      -7.059   0.676 124.015  0.00  0.00    +0.000 C 
ENDROOT
BRANCH   1  12
ATOM     11  C   UNL     1      -6.073  -2.137 127.786  0.00  0.00    +0.000 C 
ATOM     12  N   UNL     1      -7.061  -2.011 126.741  0.00  0.00    +0.000 NA
ATOM     13  H   UNL     1      -7.843  -1.446 127.086  0.00  0.00    +0.000 HD
ENDBRANCH   1  12
TORSDOF 1
ENDMDL
