MODEL 1
REMARK VINA RESULT:      -3.5      0.000      0.000
REMARK  Name = Mechlorethamine
REMARK  5 active torsions:
REMARK  status: ('A' for Active; 'I' for Inactive)
REMARK    1  A    between atoms: C_1  and  N_2
REMARK    2  A    between atoms: N_2  and  C_3
REMARK    3  A    between atoms: N_2  and  C_6
REMARK    4  A    between atoms: C_3  and  C_4
REMARK    5  A    between atoms: C_6  and  C_7
REMARK                            x       y       z     vdW  Elec       q    Type
REMARK                         _______ _______ _______ _____ _____    ______ ____
ROOT
ATOM      1  C   UNL     1     -10.745   7.234 128.538  0.00  0.00    +0.000 C 
ATOM      2  N   UNL     1     -11.882   6.355 128.843  0.00  0.00    +0.000 NA
ENDROOT
BRANCH   2   3
ATOM      3  C   UNL     1     -11.658   5.600 130.097  0.00  0.00    +0.000 C 
BRANCH   3   4
ATOM      4  C   UNL     1     -11.862   6.426 131.374  0.00  0.00    +0.000 C 
ATOM      5 CL   UNL     1     -10.481   6.206 132.480  0.00  0.00    +0.000 Cl
ENDBRANCH   3   4
ENDBRANCH   2   3
BRANCH   2   6
ATOM      6  C   UNL     1     -13.118   7.176 128.916  0.00  0.00    +0.000 C 
BRANCH   6   7
ATOM      7  C   UNL     1     -12.954   8.619 128.421  0.00  0.00    +0.000 C 
ATOM      8 CL   UNL     1     -13.040   9.766 129.783  0.00  0.00    +0.000 Cl
ENDBRANCH   6   7
ENDBRANCH   2   6
TORSDOF 4
ENDMDL
MODEL 2
REMARK VINA RESULT:      -3.4      1.771      2.063
REMARK  Name = Mechlorethamine
REMARK  5 active torsions:
REMARK  status: ('A' for Active; 'I' for Inactive)
REMARK    1  A    between atoms: C_1  and  N_2
REMARK    2  A    between atoms: N_2  and  C_3
REMARK    3  A    between atoms: N_2  and  C_6
REMARK    4  A    between atoms: C_3  and  C_4
REMARK    5  A    between atoms: C_6  and  C_7
REMARK                            x       y       z     vdW  Elec       q    Type
REMARK                         _______ _______ _______ _____ _____    ______ ____
ROOT
ATOM      1  C   UNL     1      -9.295   5.398 129.608  0.00  0.00    +0.000 C 
ATOM      2  N   UNL     1     -10.510   6.099 129.173  0.00  0.00    +0.000 NA
ENDROOT
BRANCH   2   3
ATOM      3  C   UNL     1     -11.666   5.760 130.035  0.00  0.00    +0.000 C 
BRANCH   3   4
ATOM      4  C   UNL     1     -11.636   6.420 131.419  0.00  0.00    +0.000 C 
ATOM      5 CL   UNL     1     -12.960   7.605 131.567  0.00  0.00    +0.000 Cl
ENDBRANCH   3   4
ENDBRANCH   2   3
BRANCH   2   6
ATOM      6  C   UNL     1     -10.246   7.562 129.171  0.00  0.00    +0.000 C 
BRANCH   6   7
ATOM      7  C   UNL     1     -10.842   8.315 127.975  0.00  0.00    +0.000 C 
ATOM      8 CL   UNL     1     -12.487   8.890 128.348  0.00  0.00    +0.000 Cl
ENDBRANCH   6   7
ENDBRANCH   2   6
TORSDOF 4
ENDMDL
MODEL 3
REMARK VINA RESULT:      -3.4      1.775      3.671
REMARK  Name = Mechlorethamine
REMARK  5 active torsions:
REMARK  status: ('A' for Active; 'I' for Inactive)
REMARK    1  A    between atoms: C_1  and  N_2
REMARK    2  A    between atoms: N_2  and  C_3
REMARK    3  A    between atoms: N_2  and  C_6
REMARK    4  A    between atoms: C_3  and  C_4
REMARK    5  A    between atoms: C_6  and  C_7
REMARK                            x       y       z     vdW  Elec       q    Type
REMARK                         _______ _______ _______ _____ _____    ______ ____
ROOT
ATOM      1  C   UNL     1     -12.780   7.572 131.106  0.00  0.00    +0.000 C 
ATOM      2  N   UNL     1     -12.644   6.555 130.055  0.00  0.00    +0.000 NA
ENDROOT
BRANCH   2   3
ATOM      3  C   UNL     1     -12.715   7.161 128.706  0.00  0.00    +0.000 C 
BRANCH   3   4
ATOM      4  C   UNL     1     -12.192   8.601 128.634  0.00  0.00    +0.000 C 
ATOM      5 CL   UNL     1     -10.501   8.617 128.067  0.00  0.00    +0.000 Cl
ENDBRANCH   3   4
ENDBRANCH   2   3
BRANCH   2   6
ATOM      6  C   UNL     1     -11.365   5.826 130.256  0.00  0.00    +0.000 C 
BRANCH   6   7
ATOM      7  C   UNL     1     -10.513   6.344 131.422  0.00  0.00    +0.000 C 
ATOM      8 CL   UNL     1      -8.986   7.043 130.825  0.00  0.00    +0.000 Cl
ENDBRANCH   6   7
ENDBRANCH   2   6
TORSDOF 4
ENDMDL
MODEL 4
REMARK VINA RESULT:      -3.3      1.870      2.173
REMARK  Name = Mechlorethamine
REMARK  5 active torsions:
REMARK  status: ('A' for Active; 'I' for Inactive)
REMARK    1  A    between atoms: C_1  and  N_2
REMARK    2  A    between atoms: N_2  and  C_3
REMARK    3  A    between atoms: N_2  and  C_6
REMARK    4  A    between atoms: C_3  and  C_4
REMARK    5  A    between atoms: C_6  and  C_7
REMARK                            x       y       z     vdW  Elec       q    Type
REMARK                         _______ _______ _______ _____ _____    ______ ____
ROOT
ATOM      1  C   UNL     1     -12.889   7.518 131.252  0.00  0.00    +0.000 C 
ATOM      2  N   UNL     1     -11.892   7.157 130.236  0.00  0.00    +0.000 NA
ENDROOT
BRANCH   2   3
ATOM      3  C   UNL     1     -11.128   5.953 130.635  0.00  0.00    +0.000 C 
BRANCH   3   4
ATOM      4  C   UNL     1     -10.004   6.224 131.642  0.00  0.00    +0.000 C 
ATOM      5 CL   UNL     1      -8.627   7.018 130.833  0.00  0.00    +0.000 Cl
ENDBRANCH   3   4
ENDBRANCH   2   3
BRANCH   2   6
ATOM      6  C   UNL     1     -12.583   6.956 128.936  0.00  0.00    +0.000 C 
BRANCH   6   7
ATOM      7  C   UNL     1     -12.184   7.954 127.842  0.00  0.00    +0.000 C 
ATOM      8 CL   UNL     1     -10.542   8.584 128.131  0.00  0.00    +0.000 Cl
ENDBRANCH   6   7
ENDBRANCH   2   6
TORSDOF 4
ENDMDL
MODEL 5
REMARK VINA RESULT:      -3.2     11.895     12.677
REMARK  Name = Mechlorethamine
REMARK  5 active torsions:
REMARK  status: ('A' for Active; 'I' for Inactive)
REMARK    1  A    between atoms: C_1  and  N_2
REMARK    2  A    between atoms: N_2  and  C_3
REMARK    3  A    between atoms: N_2  and  C_6
REMARK    4  A    between atoms: C_3  and  C_4
REMARK    5  A    between atoms: C_6  and  C_7
REMARK                            x       y       z     vdW  Elec       q    Type
REMARK                         _______ _______ _______ _____ _____    ______ ____
ROOT
ATOM      1  C   UNL     1      -5.725  -1.014 125.215  0.00  0.00    +0.000 C 
ATOM      2  N   UNL     1      -6.456  -1.216 123.957  0.00  0.00    +0.000 NA
ENDROOT
BRANCH   2   3
ATOM      3  C   UNL     1      -5.924  -2.376 123.206  0.00  0.00    +0.000 C 
BRANCH   3   4
ATOM      4  C   UNL     1      -5.596  -3.595 124.077  0.00  0.00    +0.000 C 
ATOM      5 CL   UNL     1      -4.096  -4.375 123.509  0.00  0.00    +0.000 Cl
ENDBRANCH   3   4
ENDBRANCH   2   3
BRANCH   2   6
ATOM      6  C   UNL     1      -7.900  -1.383 124.264  0.00  0.00    +0.000 C 
BRANCH   6   7
ATOM      7  C   UNL     1      -8.766  -1.773 123.059  0.00  0.00    +0.000 C 
ATOM      8 CL   UNL     1      -9.608  -3.315 123.360  0.00  0.00    +0.000 Cl
ENDBRANCH   6   7
ENDBRANCH   2   6
TORSDOF 4
ENDMDL
MODEL 6
REMARK VINA RESULT:      -3.2     11.946     12.908
REMARK  Name = Mechlorethamine
REMARK  5 active torsions:
REMARK  status: ('A' for Active; 'I' for Inactive)
REMARK    1  A    between atoms: C_1  and  N_2
REMARK    2  A    between atoms: N_2  and  C_3
REMARK    3  A    between atoms: N_2  and  C_6
REMARK    4  A    between atoms: C_3  and  C_4
REMARK    5  A    between atoms: C_6  and  C_7
REMARK                            x       y       z     vdW  Elec       q    Type
REMARK                         _______ _______ _______ _____ _____    ______ ____
ROOT
ATOM      1  C   UNL     1      -6.844  -1.642 122.734  0.00  0.00    +0.000 C 
ATOM      2  N   UNL     1      -7.365  -2.671 123.643  0.00  0.00    +0.000 NA
ENDROOT
BRANCH   2   3
ATOM      3  C   UNL     1      -6.267  -3.411 124.306  0.00  0.00    +0.000 C 
BRANCH   3   4
ATOM      4  C   UNL     1      -4.916  -3.312 123.588  0.00  0.00    +0.000 C 
ATOM      5 CL   UNL     1      -4.212  -4.935 123.367  0.00  0.00    +0.000 Cl
ENDBRANCH   3   4
ENDBRANCH   2   3
BRANCH   2   6
ATOM      6  C   UNL     1      -8.261  -2.024 124.636  0.00  0.00    +0.000 C 
BRANCH   6   7
ATOM      7  C   UNL     1      -9.329  -2.952 125.230  0.00  0.00    +0.000 C 
ATOM      8 CL   UNL     1      -8.914  -3.400 126.905  0.00  0.00    +0.000 Cl
ENDBRANCH   6   7
ENDBRANCH   2   6
TORSDOF 4
ENDMDL
MODEL 7
REMARK VINA RESULT:      -3.2      2.501      3.591
REMARK  Name = Mechlorethamine
REMARK  5 active torsions:
REMARK  status: ('A' for Active; 'I' for Inactive)
REMARK    1  A    between atoms: C_1  and  N_2
REMARK    2  A    between atoms: N_2  and  C_3
REMARK    3  A    between atoms: N_2  and  C_6
REMARK    4  A    between atoms: C_3  and  C_4
REMARK    5  A    between atoms: C_6  and  C_7
REMARK                            x       y       z     vdW  Elec       q    Type
REMARK                         _______ _______ _______ _____ _____    ______ ____
ROOT
ATOM      1  C   UNL     1     -11.935   6.321 130.265  0.00  0.00    +0.000 C 
ATOM      2  N   UNL     1     -12.855   7.280 129.638  0.00  0.00    +0.000 NA
ENDROOT
BRANCH   2   3
ATOM      3  C   UNL     1     -12.702   8.633 130.221  0.00  0.00    +0.000 C 
BRANCH   3   4
ATOM      4  C   UNL     1     -13.133   9.773 129.291  0.00  0.00    +0.000 C 
ATOM      5 CL   UNL     1     -13.561  11.220 130.242  0.00  0.00    +0.000 Cl
ENDBRANCH   3   4
ENDBRANCH   2   3
BRANCH   2   6
ATOM      6  C   UNL     1     -12.613   7.290 128.172  0.00  0.00    +0.000 C 
BRANCH   6   7
ATOM      7  C   UNL     1     -11.135   7.192 127.771  0.00  0.00    +0.000 C 
ATOM      8 CL   UNL     1     -10.888   7.818 126.120  0.00  0.00    +0.000 Cl
ENDBRANCH   6   7
ENDBRANCH   2   6
TORSDOF 4
ENDMDL
MODEL 8
REMARK VINA RESULT:      -3.2      1.515      3.823
REMARK  Name = Mechlorethamine
REMARK  5 active torsions:
REMARK  status: ('A' for Active; 'I' for Inactive)
REMARK    1  A    between atoms: C_1  and  N_2
REMARK    2  A    between atoms: N_2  and  C_3
REMARK    3  A    between atoms: N_2  and  C_6
REMARK    4  A    between atoms: C_3  and  C_4
REMARK    5  A    between atoms: C_6  and  C_7
REMARK                            x       y       z     vdW  Elec       q    Type
REMARK                         _______ _______ _______ _____ _____    ______ ____
ROOT
ATOM      1  C   UNL     1     -11.796   6.056 130.764  0.00  0.00    +0.000 C 
ATOM      2  N   UNL     1     -11.574   6.027 129.312  0.00  0.00    +0.000 NA
ENDROOT
BRANCH   2   3
ATOM      3  C   UNL     1     -12.572   6.856 128.598  0.00  0.00    +0.000 C 
BRANCH   3   4
ATOM      4  C   UNL     1     -12.099   8.281 128.286  0.00  0.00    +0.000 C 
ATOM      5 CL   UNL     1     -12.874   9.445 129.393  0.00  0.00    +0.000 Cl
ENDBRANCH   3   4
ENDBRANCH   2   3
BRANCH   2   6
ATOM      6  C   UNL     1     -10.188   6.481 129.030  0.00  0.00    +0.000 C 
BRANCH   6   7
ATOM      7  C   UNL     1      -9.110   5.807 129.889  0.00  0.00    +0.000 C 
ATOM      8 CL   UNL     1      -8.257   7.011 130.889  0.00  0.00    +0.000 Cl
ENDBRANCH   6   7
ENDBRANCH   2   6
TORSDOF 4
ENDMDL
MODEL 9
REMARK VINA RESULT:      -3.1     10.664     11.847
REMARK  Name = Mechlorethamine
REMARK  5 active torsions:
REMARK  status: ('A' for Active; 'I' for Inactive)
REMARK    1  A    between atoms: C_1  and  N_2
REMARK    2  A    between atoms: N_2  and  C_3
REMARK    3  A    between atoms: N_2  and  C_6
REMARK    4  A    between atoms: C_3  and  C_4
REMARK    5  A    between atoms: C_6  and  C_7
REMARK                            x       y       z     vdW  Elec       q    Type
REMARK                         _______ _______ _______ _____ _____    ______ ____
ROOT
ATOM      1  C   UNL     1      -8.845  -0.756 125.121  0.00  0.00    +0.000 C 
ATOM      2  N   UNL     1      -9.348  -1.938 124.408  0.00  0.00    +0.000 NA
ENDROOT
BRANCH   2   3
ATOM      3  C   UNL     1      -8.651  -2.124 123.115  0.00  0.00    +0.000 C 
BRANCH   3   4
ATOM      4  C   UNL     1      -7.261  -1.479 123.050  0.00  0.00    +0.000 C 
ATOM      5 CL   UNL     1      -6.007  -2.668 123.490  0.00  0.00    +0.000 Cl
ENDBRANCH   3   4
ENDBRANCH   2   3
BRANCH   2   6
ATOM      6  C   UNL     1      -9.195  -3.128 125.284  0.00  0.00    +0.000 C 
BRANCH   6   7
ATOM      7  C   UNL     1      -8.485  -2.851 126.616  0.00  0.00    +0.000 C 
ATOM      8 CL   UNL     1      -9.023  -4.000 127.868  0.00  0.00    +0.000 Cl
ENDBRANCH   6   7
ENDBRANCH   2   6
TORSDOF 4
ENDMDL
