MODEL 1
REMARK VINA RESULT:      -7.0      0.000      0.000
REMARK  Name = Meclofenamic acid
REMARK  5 active torsions:
REMARK  status: ('A' for Active; 'I' for Inactive)
REMARK    1  A    between atoms: C_1  and  C_2
REMARK    2  A    between atoms: C_5  and  N_6
REMARK    3  A    between atoms: N_6  and  C_7
REMARK    4  A    between atoms: C_12  and  C_13
REMARK    5  A    between atoms: C_13  and  O_14
REMARK                            x       y       z     vdW  Elec       q    Type
REMARK                         _______ _______ _______ _____ _____    ______ ____
ROOT
ATOM      1  N   UNL     1      -9.738   6.014 129.429  0.00  0.00    +0.000 N 
ATOM      2  H   UNL     1      -8.957   6.234 128.808  0.00  0.00    +0.000 HD
ENDROOT
BRANCH   1   7
ATOM      3  C   UNL     1      -6.572   5.789 133.325  0.00  0.00    +0.000 C 
ATOM      4  C   UNL     1      -7.783   5.341 132.559  0.00  0.00    +0.000 A 
ATOM      5  C   UNL     1      -8.215   5.919 131.350  0.00  0.00    +0.000 A 
ATOM      6 CL   UNL     1      -7.389   7.310 130.698  0.00  0.00    +0.000 Cl
ATOM      7  C   UNL     1      -9.325   5.389 130.639  0.00  0.00    +0.000 A 
ATOM      8  C   UNL     1      -9.947   4.229 131.166  0.00  0.00    +0.000 A 
ATOM      9 CL   UNL     1     -11.166   3.277 130.370  0.00  0.00    +0.000 Cl
ATOM     10  C   UNL     1      -9.587   3.729 132.409  0.00  0.00    +0.000 A 
ATOM     11  C   UNL     1      -8.505   4.262 133.089  0.00  0.00    +0.000 A 
ENDBRANCH   1   7
BRANCH   1  12
ATOM     12  C   UNL     1     -10.836   6.885 129.267  0.00  0.00    +0.000 A 
ATOM     13  C   UNL     1     -11.507   7.195 130.468  0.00  0.00    +0.000 A 
ATOM     14  C   UNL     1     -12.518   8.146 130.501  0.00  0.00    +0.000 A 
ATOM     15  C   UNL     1     -12.835   8.837 129.341  0.00  0.00    +0.000 A 
ATOM     16  C   UNL     1     -12.211   8.518 128.129  0.00  0.00    +0.000 A 
ATOM     17  C   UNL     1     -11.230   7.510 128.049  0.00  0.00    +0.000 A 
BRANCH  17  18
ATOM     18  C   UNL     1     -10.534   7.208 126.734  0.00  0.00    +0.000 C 
ATOM     19  O   UNL     1      -9.712   6.314 126.572  0.00  0.00    +0.000 OA
BRANCH  18  20
ATOM     20  O   UNL     1     -10.837   8.000 125.680  0.00  0.00    +0.000 OA
ATOM     21  H   UNL     1     -11.764   8.126 125.438  0.00  0.00    +0.000 HD
ENDBRANCH  18  20
ENDBRANCH  17  18
ENDBRANCH   1  12
TORSDOF 4
ENDMDL
MODEL 2
REMARK VINA RESULT:      -6.9      0.479      2.373
REMARK  Name = Meclofenamic acid
REMARK  5 active torsions:
REMARK  status: ('A' for Active; 'I' for Inactive)
REMARK    1  A    between atoms: C_1  and  C_2
REMARK    2  A    between atoms: C_5  and  N_6
REMARK    3  A    between atoms: N_6  and  C_7
REMARK    4  A    between atoms: C_12  and  C_13
REMARK    5  A    between atoms: C_13  and  O_14
REMARK                            x       y       z     vdW  Elec       q    Type
REMARK                         _______ _______ _______ _____ _____    ______ ____
ROOT
ATOM      1  N   UNL     1      -9.610   5.901 129.254  0.00  0.00    +0.000 N 
ATOM      2  H   UNL     1      -8.937   6.043 128.499  0.00  0.00    +0.000 HD
ENDROOT
BRANCH   1   7
ATOM      3  C   UNL     1      -9.563   2.496 132.949  0.00  0.00    +0.000 C 
ATOM      4  C   UNL     1      -8.995   3.671 132.207  0.00  0.00    +0.000 A 
ATOM      5  C   UNL     1      -9.563   4.223 131.042  0.00  0.00    +0.000 A 
ATOM      6 CL   UNL     1     -10.962   3.480 130.312  0.00  0.00    +0.000 Cl
ATOM      7  C   UNL     1      -9.015   5.386 130.439  0.00  0.00    +0.000 A 
ATOM      8  C   UNL     1      -7.908   5.997 131.080  0.00  0.00    +0.000 A 
ATOM      9 CL   UNL     1      -7.211   7.536 130.663  0.00  0.00    +0.000 Cl
ATOM     10  C   UNL     1      -7.287   5.391 132.163  0.00  0.00    +0.000 A 
ATOM     11  C   UNL     1      -7.834   4.255 132.735  0.00  0.00    +0.000 A 
ENDBRANCH   1   7
BRANCH   1  12
ATOM     12  C   UNL     1     -10.715   6.776 129.182  0.00  0.00    +0.000 A 
ATOM     13  C   UNL     1     -11.326   7.035 130.426  0.00  0.00    +0.000 A 
ATOM     14  C   UNL     1     -12.333   7.982 130.546  0.00  0.00    +0.000 A 
ATOM     15  C   UNL     1     -12.707   8.719 129.433  0.00  0.00    +0.000 A 
ATOM     16  C   UNL     1     -12.143   8.452 128.179  0.00  0.00    +0.000 A 
ATOM     17  C   UNL     1     -11.169   7.449 128.011  0.00  0.00    +0.000 A 
BRANCH  17  18
ATOM     18  C   UNL     1     -10.538   7.202 126.652  0.00  0.00    +0.000 C 
ATOM     19  O   UNL     1      -9.740   6.304 126.409  0.00  0.00    +0.000 OA
BRANCH  18  20
ATOM     20  O   UNL     1     -10.874   8.050 125.653  0.00  0.00    +0.000 OA
ATOM     21  H   UNL     1     -10.225   8.696 125.346  0.00  0.00    +0.000 HD
ENDBRANCH  18  20
ENDBRANCH  17  18
ENDBRANCH   1  12
TORSDOF 4
ENDMDL
MODEL 3
REMARK VINA RESULT:      -6.9      8.655     10.525
REMARK  Name = Meclofenamic acid
REMARK  5 active torsions:
REMARK  status: ('A' for Active; 'I' for Inactive)
REMARK    1  A    between atoms: C_1  and  C_2
REMARK    2  A    between atoms: C_5  and  N_6
REMARK    3  A    between atoms: N_6  and  C_7
REMARK    4  A    between atoms: C_12  and  C_13
REMARK    5  A    between atoms: C_13  and  O_14
REMARK                            x       y       z     vdW  Elec       q    Type
REMARK                         _______ _______ _______ _____ _____    ______ ____
ROOT
ATOM      1  N   UNL     1      -7.665  -0.280 125.024  0.00  0.00    +0.000 N 
ATOM      2  H   UNL     1      -7.615  -0.153 126.037  0.00  0.00    +0.000 HD
ENDROOT
BRANCH   1   7
ATOM      3  C   UNL     1      -5.714   4.297 124.323  0.00  0.00    +0.000 C 
ATOM      4  C   UNL     1      -6.636   3.168 123.965  0.00  0.00    +0.000 A 
ATOM      5  C   UNL     1      -6.696   1.943 124.656  0.00  0.00    +0.000 A 
ATOM      6 CL   UNL     1      -5.586   1.619 125.962  0.00  0.00    +0.000 Cl
ATOM      7  C   UNL     1      -7.650   0.950 124.310  0.00  0.00    +0.000 A 
ATOM      8  C   UNL     1      -8.572   1.259 123.277  0.00  0.00    +0.000 A 
ATOM      9 CL   UNL     1      -9.958   0.308 122.830  0.00  0.00    +0.000 Cl
ATOM     10  C   UNL     1      -8.441   2.421 122.528  0.00  0.00    +0.000 A 
ATOM     11  C   UNL     1      -7.500   3.375 122.880  0.00  0.00    +0.000 A 
ENDBRANCH   1   7
BRANCH   1  12
ATOM     12  C   UNL     1      -7.118  -1.508 124.593  0.00  0.00    +0.000 A 
ATOM     13  C   UNL     1      -5.723  -1.477 124.391  0.00  0.00    +0.000 A 
ATOM     14  C   UNL     1      -5.014  -2.635 124.105  0.00  0.00    +0.000 A 
ATOM     15  C   UNL     1      -5.685  -3.848 124.067  0.00  0.00    +0.000 A 
ATOM     16  C   UNL     1      -7.076  -3.898 124.224  0.00  0.00    +0.000 A 
ATOM     17  C   UNL     1      -7.833  -2.731 124.447  0.00  0.00    +0.000 A 
BRANCH  17  18
ATOM     18  C   UNL     1      -9.334  -2.811 124.658  0.00  0.00    +0.000 C 
ATOM     19  O   UNL     1      -9.914  -2.436 125.670  0.00  0.00    +0.000 OA
BRANCH  18  20
ATOM     20  O   UNL     1     -10.069  -3.349 123.659  0.00  0.00    +0.000 OA
ATOM     21  H   UNL     1     -10.110  -2.896 122.807  0.00  0.00    +0.000 HD
ENDBRANCH  18  20
ENDBRANCH  17  18
ENDBRANCH   1  12
TORSDOF 4
ENDMDL
MODEL 4
REMARK VINA RESULT:      -6.9      8.693     10.755
REMARK  Name = Meclofenamic acid
REMARK  5 active torsions:
REMARK  status: ('A' for Active; 'I' for Inactive)
REMARK    1  A    between atoms: C_1  and  C_2
REMARK    2  A    between atoms: C_5  and  N_6
REMARK    3  A    between atoms: N_6  and  C_7
REMARK    4  A    between atoms: C_12  and  C_13
REMARK    5  A    between atoms: C_13  and  O_14
REMARK                            x       y       z     vdW  Elec       q    Type
REMARK                         _______ _______ _______ _____ _____    ______ ____
ROOT
ATOM      1  N   UNL     1      -7.551  -0.358 125.184  0.00  0.00    +0.000 N 
ATOM      2  H   UNL     1      -7.669  -0.344 126.199  0.00  0.00    +0.000 HD
ENDROOT
BRANCH   1   7
ATOM      3  C   UNL     1      -8.680   3.185 121.805  0.00  0.00    +0.000 C 
ATOM      4  C   UNL     1      -7.929   2.665 122.996  0.00  0.00    +0.000 A 
ATOM      5  C   UNL     1      -8.119   1.388 123.558  0.00  0.00    +0.000 A 
ATOM      6 CL   UNL     1      -9.359   0.332 122.934  0.00  0.00    +0.000 Cl
ATOM      7  C   UNL     1      -7.314   0.934 124.636  0.00  0.00    +0.000 A 
ATOM      8  C   UNL     1      -6.282   1.793 125.091  0.00  0.00    +0.000 A 
ATOM      9 CL   UNL     1      -5.039   1.375 126.234  0.00  0.00    +0.000 Cl
ATOM     10  C   UNL     1      -6.168   3.089 124.608  0.00  0.00    +0.000 A 
ATOM     11  C   UNL     1      -6.965   3.514 123.558  0.00  0.00    +0.000 A 
ENDBRANCH   1   7
BRANCH   1  12
ATOM     12  C   UNL     1      -7.037  -1.581 124.704  0.00  0.00    +0.000 A 
ATOM     13  C   UNL     1      -5.642  -1.577 124.496  0.00  0.00    +0.000 A 
ATOM     14  C   UNL     1      -4.964  -2.741 124.162  0.00  0.00    +0.000 A 
ATOM     15  C   UNL     1      -5.665  -3.934 124.081  0.00  0.00    +0.000 A 
ATOM     16  C   UNL     1      -7.056  -3.956 124.243  0.00  0.00    +0.000 A 
ATOM     17  C   UNL     1      -7.782  -2.780 124.514  0.00  0.00    +0.000 A 
BRANCH  17  18
ATOM     18  C   UNL     1      -9.285  -2.830 124.729  0.00  0.00    +0.000 C 
ATOM     19  O   UNL     1      -9.853  -2.470 125.754  0.00  0.00    +0.000 OA
BRANCH  18  20
ATOM     20  O   UNL     1     -10.036  -3.324 123.719  0.00  0.00    +0.000 OA
ATOM     21  H   UNL     1      -9.850  -3.044 122.813  0.00  0.00    +0.000 HD
ENDBRANCH  18  20
ENDBRANCH  17  18
ENDBRANCH   1  12
TORSDOF 4
ENDMDL
MODEL 5
REMARK VINA RESULT:      -6.8      9.004     10.092
REMARK  Name = Meclofenamic acid
REMARK  5 active torsions:
REMARK  status: ('A' for Active; 'I' for Inactive)
REMARK    1  A    between atoms: C_1  and  C_2
REMARK    2  A    between atoms: C_5  and  N_6
REMARK    3  A    between atoms: N_6  and  C_7
REMARK    4  A    between atoms: C_12  and  C_13
REMARK    5  A    between atoms: C_13  and  O_14
REMARK                            x       y       z     vdW  Elec       q    Type
REMARK                         _______ _______ _______ _____ _____    ______ ____
ROOT
ATOM      1  N   UNL     1      -7.136  -1.122 126.156  0.00  0.00    +0.000 N 
ATOM      2  H   UNL     1      -7.713  -0.279 126.176  0.00  0.00    +0.000 HD
ENDROOT
BRANCH   1   7
ATOM      3  C   UNL     1      -6.030  -3.227 130.583  0.00  0.00    +0.000 C 
ATOM      4  C   UNL     1      -6.912  -3.015 129.386  0.00  0.00    +0.000 A 
ATOM      5  C   UNL     1      -6.618  -2.130 128.331  0.00  0.00    +0.000 A 
ATOM      6 CL   UNL     1      -5.201  -1.116 128.406  0.00  0.00    +0.000 Cl
ATOM      7  C   UNL     1      -7.461  -2.041 127.192  0.00  0.00    +0.000 A 
ATOM      8  C   UNL     1      -8.579  -2.911 127.135  0.00  0.00    +0.000 A 
ATOM      9 CL   UNL     1      -9.620  -3.144 125.760  0.00  0.00    +0.000 Cl
ATOM     10  C   UNL     1      -8.924  -3.703 128.222  0.00  0.00    +0.000 A 
ATOM     11  C   UNL     1      -8.090  -3.772 129.325  0.00  0.00    +0.000 A 
ENDBRANCH   1   7
BRANCH   1  12
ATOM     12  C   UNL     1      -6.671  -1.444 124.863  0.00  0.00    +0.000 A 
ATOM     13  C   UNL     1      -5.483  -2.202 124.851  0.00  0.00    +0.000 A 
ATOM     14  C   UNL     1      -4.974  -2.720 123.667  0.00  0.00    +0.000 A 
ATOM     15  C   UNL     1      -5.676  -2.527 122.487  0.00  0.00    +0.000 A 
ATOM     16  C   UNL     1      -6.837  -1.744 122.468  0.00  0.00    +0.000 A 
ATOM     17  C   UNL     1      -7.340  -1.148 123.640  0.00  0.00    +0.000 A 
BRANCH  17  18
ATOM     18  C   UNL     1      -8.624  -0.337 123.608  0.00  0.00    +0.000 C 
ATOM     19  O   UNL     1      -8.762   0.767 124.121  0.00  0.00    +0.000 OA
BRANCH  18  20
ATOM     20  O   UNL     1      -9.686  -0.890 122.980  0.00  0.00    +0.000 OA
ATOM     21  H   UNL     1      -9.535  -1.571 122.310  0.00  0.00    +0.000 HD
ENDBRANCH  18  20
ENDBRANCH  17  18
ENDBRANCH   1  12
TORSDOF 4
ENDMDL
MODEL 6
REMARK VINA RESULT:      -6.6      2.589      3.157
REMARK  Name = Meclofenamic acid
REMARK  5 active torsions:
REMARK  status: ('A' for Active; 'I' for Inactive)
REMARK    1  A    between atoms: C_1  and  C_2
REMARK    2  A    between atoms: C_5  and  N_6
REMARK    3  A    between atoms: N_6  and  C_7
REMARK    4  A    between atoms: C_12  and  C_13
REMARK    5  A    between atoms: C_13  and  O_14
REMARK                            x       y       z     vdW  Elec       q    Type
REMARK                         _______ _______ _______ _____ _____    ______ ____
ROOT
ATOM      1  N   UNL     1      -9.591   6.665 130.943  0.00  0.00    +0.000 N 
ATOM      2  H   UNL     1      -9.913   6.721 131.910  0.00  0.00    +0.000 HD
ENDROOT
BRANCH   1   7
ATOM      3  C   UNL     1      -5.064   4.576 130.317  0.00  0.00    +0.000 C 
ATOM      4  C   UNL     1      -6.560   4.516 130.435  0.00  0.00    +0.000 A 
ATOM      5  C   UNL     1      -7.383   5.634 130.668  0.00  0.00    +0.000 A 
ATOM      6 CL   UNL     1      -6.673   7.204 130.940  0.00  0.00    +0.000 Cl
ATOM      7  C   UNL     1      -8.798   5.512 130.688  0.00  0.00    +0.000 A 
ATOM      8  C   UNL     1      -9.349   4.235 130.415  0.00  0.00    +0.000 A 
ATOM      9 CL   UNL     1     -11.035   3.886 130.165  0.00  0.00    +0.000 Cl
ATOM     10  C   UNL     1      -8.535   3.117 130.293  0.00  0.00    +0.000 A 
ATOM     11  C   UNL     1      -7.158   3.256 130.280  0.00  0.00    +0.000 A 
ENDBRANCH   1   7
BRANCH   1  12
ATOM     12  C   UNL     1     -10.461   7.304 130.033  0.00  0.00    +0.000 A 
ATOM     13  C   UNL     1      -9.844   7.701 128.829  0.00  0.00    +0.000 A 
ATOM     14  C   UNL     1     -10.589   8.212 127.776  0.00  0.00    +0.000 A 
ATOM     15  C   UNL     1     -11.968   8.287 127.895  0.00  0.00    +0.000 A 
ATOM     16  C   UNL     1     -12.599   7.937 129.095  0.00  0.00    +0.000 A 
ATOM     17  C   UNL     1     -11.864   7.479 130.206  0.00  0.00    +0.000 A 
BRANCH  17  18
ATOM     18  C   UNL     1     -12.570   7.064 131.485  0.00  0.00    +0.000 C 
ATOM     19  O   UNL     1     -13.583   7.595 131.923  0.00  0.00    +0.000 OA
BRANCH  18  20
ATOM     20  O   UNL     1     -12.022   6.047 132.188  0.00  0.00    +0.000 OA
ATOM     21  H   UNL     1     -11.413   5.442 131.745  0.00  0.00    +0.000 HD
ENDBRANCH  18  20
ENDBRANCH  17  18
ENDBRANCH   1  12
TORSDOF 4
ENDMDL
MODEL 7
REMARK VINA RESULT:      -6.5      7.964      9.433
REMARK  Name = Meclofenamic acid
REMARK  5 active torsions:
REMARK  status: ('A' for Active; 'I' for Inactive)
REMARK    1  A    between atoms: C_1  and  C_2
REMARK    2  A    between atoms: C_5  and  N_6
REMARK    3  A    between atoms: N_6  and  C_7
REMARK    4  A    between atoms: C_12  and  C_13
REMARK    5  A    between atoms: C_13  and  O_14
REMARK                            x       y       z     vdW  Elec       q    Type
REMARK                         _______ _______ _______ _____ _____    ______ ____
ROOT
ATOM      1  N   UNL     1      -7.723   1.365 124.516  0.00  0.00    +0.000 N 
ATOM      2  H   UNL     1      -8.573   1.774 124.909  0.00  0.00    +0.000 HD
ENDROOT
BRANCH   1   7
ATOM      3  C   UNL     1      -6.075  -3.375 124.255  0.00  0.00    +0.000 C 
ATOM      4  C   UNL     1      -7.090  -2.296 124.006  0.00  0.00    +0.000 A 
ATOM      5  C   UNL     1      -6.940  -0.956 124.412  0.00  0.00    +0.000 A 
ATOM      6 CL   UNL     1      -5.551  -0.476 125.352  0.00  0.00    +0.000 Cl
ATOM      7  C   UNL     1      -7.906   0.026 124.071  0.00  0.00    +0.000 A 
ATOM      8  C   UNL     1      -9.000  -0.382 123.266  0.00  0.00    +0.000 A 
ATOM      9 CL   UNL     1     -10.179   0.671 122.540  0.00  0.00    +0.000 Cl
ATOM     10  C   UNL     1      -9.200  -1.721 122.959  0.00  0.00    +0.000 A 
ATOM     11  C   UNL     1      -8.247  -2.665 123.305  0.00  0.00    +0.000 A 
ENDBRANCH   1   7
BRANCH   1  12
ATOM     12  C   UNL     1      -6.857   2.326 123.951  0.00  0.00    +0.000 A 
ATOM     13  C   UNL     1      -6.772   2.269 122.545  0.00  0.00    +0.000 A 
ATOM     14  C   UNL     1      -6.076   3.232 121.829  0.00  0.00    +0.000 A 
ATOM     15  C   UNL     1      -5.498   4.295 122.508  0.00  0.00    +0.000 A 
ATOM     16  C   UNL     1      -5.534   4.351 123.906  0.00  0.00    +0.000 A 
ATOM     17  C   UNL     1      -6.173   3.351 124.666  0.00  0.00    +0.000 A 
BRANCH  17  18
ATOM     18  C   UNL     1      -6.239   3.452 126.179  0.00  0.00    +0.000 C 
ATOM     19  O   UNL     1      -6.148   2.498 126.944  0.00  0.00    +0.000 OA
BRANCH  18  20
ATOM     20  O   UNL     1      -6.429   4.682 126.707  0.00  0.00    +0.000 OA
ATOM     21  H   UNL     1      -5.741   5.065 127.269  0.00  0.00    +0.000 HD
ENDBRANCH  18  20
ENDBRANCH  17  18
ENDBRANCH   1  12
TORSDOF 4
ENDMDL
MODEL 8
REMARK VINA RESULT:      -6.4      2.448      5.400
REMARK  Name = Meclofenamic acid
REMARK  5 active torsions:
REMARK  status: ('A' for Active; 'I' for Inactive)
REMARK    1  A    between atoms: C_1  and  C_2
REMARK    2  A    between atoms: C_5  and  N_6
REMARK    3  A    between atoms: N_6  and  C_7
REMARK    4  A    between atoms: C_12  and  C_13
REMARK    5  A    between atoms: C_13  and  O_14
REMARK                            x       y       z     vdW  Elec       q    Type
REMARK                         _______ _______ _______ _____ _____    ______ ____
ROOT
ATOM      1  N   UNL     1      -9.409   6.295 129.580  0.00  0.00    +0.000 N 
ATOM      2  H   UNL     1      -9.554   5.766 128.719  0.00  0.00    +0.000 HD
ENDROOT
BRANCH   1   7
ATOM      3  C   UNL     1     -13.155   9.593 128.991  0.00  0.00    +0.000 C 
ATOM      4  C   UNL     1     -12.449   8.488 129.723  0.00  0.00    +0.000 A 
ATOM      5  C   UNL     1     -11.257   7.880 129.284  0.00  0.00    +0.000 A 
ATOM      6 CL   UNL     1     -10.558   8.329 127.750  0.00  0.00    +0.000 Cl
ATOM      7  C   UNL     1     -10.603   6.895 130.070  0.00  0.00    +0.000 A 
ATOM      8  C   UNL     1     -11.166   6.585 131.334  0.00  0.00    +0.000 A 
ATOM      9 CL   UNL     1     -10.435   5.589 132.558  0.00  0.00    +0.000 Cl
ATOM     10  C   UNL     1     -12.395   7.106 131.714  0.00  0.00    +0.000 A 
ATOM     11  C   UNL     1     -13.020   8.062 130.932  0.00  0.00    +0.000 A 
ENDBRANCH   1   7
BRANCH   1  12
ATOM     12  C   UNL     1      -8.336   5.806 130.356  0.00  0.00    +0.000 A 
ATOM     13  C   UNL     1      -7.531   6.814 130.924  0.00  0.00    +0.000 A 
ATOM     14  C   UNL     1      -6.523   6.503 131.826  0.00  0.00    +0.000 A 
ATOM     15  C   UNL     1      -6.341   5.183 132.210  0.00  0.00    +0.000 A 
ATOM     16  C   UNL     1      -7.102   4.161 131.630  0.00  0.00    +0.000 A 
ATOM     17  C   UNL     1      -8.085   4.437 130.660  0.00  0.00    +0.000 A 
BRANCH  17  18
ATOM     18  C   UNL     1      -8.930   3.320 130.072  0.00  0.00    +0.000 C 
ATOM     19  O   UNL     1     -10.048   3.472 129.594  0.00  0.00    +0.000 OA
BRANCH  18  20
ATOM     20  O   UNL     1      -8.408   2.073 130.100  0.00  0.00    +0.000 OA
ATOM     21  H   UNL     1      -8.776   1.421 130.712  0.00  0.00    +0.000 HD
ENDBRANCH  18  20
ENDBRANCH  17  18
ENDBRANCH   1  12
TORSDOF 4
ENDMDL
MODEL 9
REMARK VINA RESULT:      -6.4      7.916      9.561
REMARK  Name = Meclofenamic acid
REMARK  5 active torsions:
REMARK  status: ('A' for Active; 'I' for Inactive)
REMARK    1  A    between atoms: C_1  and  C_2
REMARK    2  A    between atoms: C_5  and  N_6
REMARK    3  A    between atoms: N_6  and  C_7
REMARK    4  A    between atoms: C_12  and  C_13
REMARK    5  A    between atoms: C_13  and  O_14
REMARK                            x       y       z     vdW  Elec       q    Type
REMARK                         _______ _______ _______ _____ _____    ______ ____
ROOT
ATOM      1  N   UNL     1      -7.579   1.742 123.948  0.00  0.00    +0.000 N 
ATOM      2  H   UNL     1      -8.547   2.044 123.822  0.00  0.00    +0.000 HD
ENDROOT
BRANCH   1   7
ATOM      3  C   UNL     1      -9.378  -2.893 123.224  0.00  0.00    +0.000 C 
ATOM      4  C   UNL     1      -8.343  -1.922 123.715  0.00  0.00    +0.000 A 
ATOM      5  C   UNL     1      -8.435  -0.524 123.571  0.00  0.00    +0.000 A 
ATOM      6 CL   UNL     1      -9.766   0.180 122.691  0.00  0.00    +0.000 Cl
ATOM      7  C   UNL     1      -7.455   0.337 124.132  0.00  0.00    +0.000 A 
ATOM      8  C   UNL     1      -6.411  -0.259 124.883  0.00  0.00    +0.000 A 
ATOM      9 CL   UNL     1      -5.234   0.589 125.842  0.00  0.00    +0.000 Cl
ATOM     10  C   UNL     1      -6.265  -1.639 124.932  0.00  0.00    +0.000 A 
ATOM     11  C   UNL     1      -7.230  -2.462 124.375  0.00  0.00    +0.000 A 
ENDBRANCH   1   7
BRANCH   1  12
ATOM     12  C   UNL     1      -6.648   2.591 123.311  0.00  0.00    +0.000 A 
ATOM     13  C   UNL     1      -6.411   2.272 121.958  0.00  0.00    +0.000 A 
ATOM     14  C   UNL     1      -5.633   3.093 121.154  0.00  0.00    +0.000 A 
ATOM     15  C   UNL     1      -5.123   4.271 121.680  0.00  0.00    +0.000 A 
ATOM     16  C   UNL     1      -5.311   4.587 123.031  0.00  0.00    +0.000 A 
ATOM     17  C   UNL     1      -6.037   3.740 123.890  0.00  0.00    +0.000 A 
BRANCH  17  18
ATOM     18  C   UNL     1      -6.267   4.122 125.342  0.00  0.00    +0.000 C 
ATOM     19  O   UNL     1      -6.838   3.415 126.164  0.00  0.00    +0.000 OA
BRANCH  18  20
ATOM     20  O   UNL     1      -5.822   5.335 125.738  0.00  0.00    +0.000 OA
ATOM     21  H   UNL     1      -6.030   5.646 126.629  0.00  0.00    +0.000 HD
ENDBRANCH  18  20
ENDBRANCH  17  18
ENDBRANCH   1  12
TORSDOF 4
ENDMDL
