MODEL 1
REMARK VINA RESULT:      -9.0      0.000      0.000
REMARK  Name = Meclizine
REMARK  6 active torsions:
REMARK  status: ('A' for Active; 'I' for Inactive)
REMARK    1  A    between atoms: C_1  and  C_2
REMARK    2  A    between atoms: C_4  and  C_5
REMARK    3  A    between atoms: C_5  and  N_6
REMARK    4  A    between atoms: N_9  and  C_12
REMARK    5  A    between atoms: C_12  and  C_13
REMARK    6  A    between atoms: C_12  and  C_19
REMARK                            x       y       z     vdW  Elec       q    Type
REMARK                         _______ _______ _______ _____ _____    ______ ____
ROOT
ATOM      1  N   UNL     1      -7.376   1.807 124.266  0.00  0.00    +0.000 NA
ATOM      2  C   UNL     1      -6.606   0.436 124.111  0.00  0.00    +0.000 C 
ATOM      3  C   UNL     1      -5.988  -0.035 125.445  0.00  0.00    +0.000 C 
ATOM      4  N   UNL     1      -6.906   0.111 126.776  0.00  0.00    +0.000 NA
ATOM      5  C   UNL     1      -7.785   1.452 126.956  0.00  0.00    +0.000 C 
ATOM      6  C   UNL     1      -8.285   2.083 125.574  0.00  0.00    +0.000 C 
ENDROOT
BRANCH   1   7
ATOM      7  C   UNL     1      -6.365   2.903 124.078  0.00  0.00    +0.000 C 
BRANCH   7  11
ATOM      8  C   UNL     1      -7.434   4.213 119.281  0.00  0.00    +0.000 C 
ATOM      9  C   UNL     1      -6.516   4.115 120.407  0.00  0.00    +0.000 A 
ATOM     10  C   UNL     1      -6.992   3.479 121.615  0.00  0.00    +0.000 A 
ATOM     11  C   UNL     1      -6.287   3.604 122.717  0.00  0.00    +0.000 A 
ATOM     12  C   UNL     1      -5.225   4.445 122.468  0.00  0.00    +0.000 A 
ATOM     13  C   UNL     1      -4.572   4.956 121.339  0.00  0.00    +0.000 A 
ATOM     14  C   UNL     1      -5.265   4.779 120.250  0.00  0.00    +0.000 A 
ENDBRANCH   7  11
ENDBRANCH   1   7
BRANCH   4  15
ATOM     15  C   UNL     1      -7.775  -1.109 127.016  0.00  0.00    +0.000 C 
BRANCH  15  16
ATOM     16  C   UNL     1      -7.164  -1.899 128.169  0.00  0.00    +0.000 A 
ATOM     17  C   UNL     1      -5.784  -1.993 128.310  0.00  0.00    +0.000 A 
ATOM     18  C   UNL     1      -5.252  -2.885 129.242  0.00  0.00    +0.000 A 
ATOM     19  C   UNL     1      -6.089  -3.720 129.989  0.00  0.00    +0.000 A 
ATOM     20 CL   UNL     1      -5.443  -4.745 131.206  0.00  0.00    +0.000 Cl
ATOM     21  C   UNL     1      -7.459  -3.663 129.833  0.00  0.00    +0.000 A 
ATOM     22  C   UNL     1      -7.979  -2.659 129.035  0.00  0.00    +0.000 A 
ENDBRANCH  15  16
BRANCH  15  23
ATOM     23  C   UNL     1      -8.058  -2.001 125.808  0.00  0.00    +0.000 A 
ATOM     24  C   UNL     1      -7.477  -3.131 125.354  0.00  0.00    +0.000 A 
ATOM     25  C   UNL     1      -7.894  -3.657 124.088  0.00  0.00    +0.000 A 
ATOM     26  C   UNL     1      -8.892  -3.080 123.261  0.00  0.00    +0.000 A 
ATOM     27  C   UNL     1      -9.509  -1.983 123.709  0.00  0.00    +0.000 A 
ATOM     28  C   UNL     1      -9.016  -1.594 124.929  0.00  0.00    +0.000 A 
ENDBRANCH  15  23
ENDBRANCH   4  15
TORSDOF 5
ENDMDL
MODEL 2
REMARK VINA RESULT:      -8.9      1.457      1.958
REMARK  Name = Meclizine
REMARK  6 active torsions:
REMARK  status: ('A' for Active; 'I' for Inactive)
REMARK    1  A    between atoms: C_1  and  C_2
REMARK    2  A    between atoms: C_4  and  C_5
REMARK    3  A    between atoms: C_5  and  N_6
REMARK    4  A    between atoms: N_9  and  C_12
REMARK    5  A    between atoms: C_12  and  C_13
REMARK    6  A    between atoms: C_12  and  C_19
REMARK                            x       y       z     vdW  Elec       q    Type
REMARK                         _______ _______ _______ _____ _____    ______ ____
ROOT
ATOM      1  N   UNL     1      -8.586   1.428 123.365  0.00  0.00    +0.000 NA
ATOM      2  C   UNL     1      -7.199   0.714 123.618  0.00  0.00    +0.000 C 
ATOM      3  C   UNL     1      -6.895   0.558 125.124  0.00  0.00    +0.000 C 
ATOM      4  N   UNL     1      -8.118   0.081 126.078  0.00  0.00    +0.000 NA
ATOM      5  C   UNL     1      -9.582   0.708 125.818  0.00  0.00    +0.000 C 
ATOM      6  C   UNL     1      -9.865   1.065 124.285  0.00  0.00    +0.000 C 
ENDROOT
BRANCH   1   7
ATOM      7  C   UNL     1      -8.327   2.908 123.371  0.00  0.00    +0.000 C 
BRANCH   7  11
ATOM      8  C   UNL     1      -7.298   4.524 118.659  0.00  0.00    +0.000 C 
ATOM      9  C   UNL     1      -6.877   4.087 119.983  0.00  0.00    +0.000 A 
ATOM     10  C   UNL     1      -7.902   3.678 120.917  0.00  0.00    +0.000 A 
ATOM     11  C   UNL     1      -7.581   3.528 122.183  0.00  0.00    +0.000 A 
ATOM     12  C   UNL     1      -6.267   3.905 122.353  0.00  0.00    +0.000 A 
ATOM     13  C   UNL     1      -5.157   4.131 121.530  0.00  0.00    +0.000 A 
ATOM     14  C   UNL     1      -5.490   4.230 120.274  0.00  0.00    +0.000 A 
ENDBRANCH   7  11
ENDBRANCH   1   7
BRANCH   4  15
ATOM     15  C   UNL     1      -8.217  -1.430 126.180  0.00  0.00    +0.000 C 
BRANCH  15  16
ATOM     16  C   UNL     1      -8.073  -1.810 127.650  0.00  0.00    +0.000 A 
ATOM     17  C   UNL     1      -7.577  -0.896 128.573  0.00  0.00    +0.000 A 
ATOM     18  C   UNL     1      -7.260  -1.329 129.861  0.00  0.00    +0.000 A 
ATOM     19  C   UNL     1      -7.383  -2.678 130.210  0.00  0.00    +0.000 A 
ATOM     20 CL   UNL     1      -7.090  -3.194 131.821  0.00  0.00    +0.000 Cl
ATOM     21  C   UNL     1      -7.839  -3.602 129.293  0.00  0.00    +0.000 A 
ATOM     22  C   UNL     1      -8.310  -3.133 128.079  0.00  0.00    +0.000 A 
ENDBRANCH  15  16
BRANCH  15  23
ATOM     23  C   UNL     1      -7.276  -2.242 125.291  0.00  0.00    +0.000 A 
ATOM     24  C   UNL     1      -7.495  -3.043 124.227  0.00  0.00    +0.000 A 
ATOM     25  C   UNL     1      -6.394  -3.788 123.691  0.00  0.00    +0.000 A 
ATOM     26  C   UNL     1      -5.066  -3.742 124.190  0.00  0.00    +0.000 A 
ATOM     27  C   UNL     1      -4.819  -2.924 125.217  0.00  0.00    +0.000 A 
ATOM     28  C   UNL     1      -5.957  -2.274 125.625  0.00  0.00    +0.000 A 
ENDBRANCH  15  23
ENDBRANCH   4  15
TORSDOF 5
ENDMDL
MODEL 3
REMARK VINA RESULT:      -8.8      4.452      7.915
REMARK  Name = Meclizine
REMARK  6 active torsions:
REMARK  status: ('A' for Active; 'I' for Inactive)
REMARK    1  A    between atoms: C_1  and  C_2
REMARK    2  A    between atoms: C_4  and  C_5
REMARK    3  A    between atoms: C_5  and  N_6
REMARK    4  A    between atoms: N_9  and  C_12
REMARK    5  A    between atoms: C_12  and  C_13
REMARK    6  A    between atoms: C_12  and  C_19
REMARK                            x       y       z     vdW  Elec       q    Type
REMARK                         _______ _______ _______ _____ _____    ______ ____
ROOT
ATOM      1  N   UNL     1      -7.263   2.809 127.715  0.00  0.00    +0.000 NA
ATOM      2  C   UNL     1      -7.795   1.386 127.278  0.00  0.00    +0.000 C 
ATOM      3  C   UNL     1      -8.768   1.476 126.081  0.00  0.00    +0.000 C 
ATOM      4  N   UNL     1      -8.359   2.478 124.872  0.00  0.00    +0.000 NA
ATOM      5  C   UNL     1      -7.729   3.915 125.248  0.00  0.00    +0.000 C 
ATOM      6  C   UNL     1      -6.868   3.906 126.596  0.00  0.00    +0.000 C 
ENDROOT
BRANCH   1   7
ATOM      7  C   UNL     1      -8.261   3.372 128.687  0.00  0.00    +0.000 C 
BRANCH   7  11
ATOM      8  C   UNL     1      -5.507   6.713 131.357  0.00  0.00    +0.000 C 
ATOM      9  C   UNL     1      -6.782   6.132 130.960  0.00  0.00    +0.000 A 
ATOM     10  C   UNL     1      -6.759   5.000 130.061  0.00  0.00    +0.000 A 
ATOM     11  C   UNL     1      -7.881   4.623 129.488  0.00  0.00    +0.000 A 
ATOM     12  C   UNL     1      -8.874   5.511 129.836  0.00  0.00    +0.000 A 
ATOM     13  C   UNL     1      -9.062   6.501 130.808  0.00  0.00    +0.000 A 
ATOM     14  C   UNL     1      -7.947   6.827 131.398  0.00  0.00    +0.000 A 
ENDBRANCH   7  11
ENDBRANCH   1   7
BRANCH   4  15
ATOM     15  C   UNL     1      -7.499   1.798 123.823  0.00  0.00    +0.000 C 
BRANCH  15  16
ATOM     16  C   UNL     1      -7.409   2.729 122.617  0.00  0.00    +0.000 A 
ATOM     17  C   UNL     1      -8.556   3.120 121.937  0.00  0.00    +0.000 A 
ATOM     18  C   UNL     1      -8.433   3.796 120.722  0.00  0.00    +0.000 A 
ATOM     19  C   UNL     1      -7.173   4.031 120.162  0.00  0.00    +0.000 A 
ATOM     20 CL   UNL     1      -7.016   4.950 118.720  0.00  0.00    +0.000 Cl
ATOM     21  C   UNL     1      -6.028   3.616 120.808  0.00  0.00    +0.000 A 
ATOM     22  C   UNL     1      -6.155   3.102 122.087  0.00  0.00    +0.000 A 
ENDBRANCH  15  16
BRANCH  15  23
ATOM     23  C   UNL     1      -7.903   0.382 123.415  0.00  0.00    +0.000 A 
ATOM     24  C   UNL     1      -9.104  -0.215 123.266  0.00  0.00    +0.000 A 
ATOM     25  C   UNL     1      -9.143  -1.623 123.006  0.00  0.00    +0.000 A 
ATOM     26  C   UNL     1      -8.001  -2.456 122.881  0.00  0.00    +0.000 A 
ATOM     27  C   UNL     1      -6.800  -1.878 122.985  0.00  0.00    +0.000 A 
ATOM     28  C   UNL     1      -6.911  -0.532 123.229  0.00  0.00    +0.000 A 
ENDBRANCH  15  23
ENDBRANCH   4  15
TORSDOF 5
ENDMDL
MODEL 4
REMARK VINA RESULT:      -8.6      4.405      6.761
REMARK  Name = Meclizine
REMARK  6 active torsions:
REMARK  status: ('A' for Active; 'I' for Inactive)
REMARK    1  A    between atoms: C_1  and  C_2
REMARK    2  A    between atoms: C_4  and  C_5
REMARK    3  A    between atoms: C_5  and  N_6
REMARK    4  A    between atoms: N_9  and  C_12
REMARK    5  A    between atoms: C_12  and  C_13
REMARK    6  A    between atoms: C_12  and  C_19
REMARK                            x       y       z     vdW  Elec       q    Type
REMARK                         _______ _______ _______ _____ _____    ______ ____
ROOT
ATOM      1  N   UNL     1      -4.015   1.913 128.581  0.00  0.00    +0.000 NA
ATOM      2  C   UNL     1      -4.322   0.778 129.636  0.00  0.00    +0.000 C 
ATOM      3  C   UNL     1      -5.753   0.217 129.482  0.00  0.00    +0.000 C 
ATOM      4  N   UNL     1      -6.276  -0.064 127.971  0.00  0.00    +0.000 NA
ATOM      5  C   UNL     1      -5.922   1.015 126.825  0.00  0.00    +0.000 C 
ATOM      6  C   UNL     1      -4.527   1.763 127.056  0.00  0.00    +0.000 C 
ENDROOT
BRANCH   1   7
ATOM      7  C   UNL     1      -4.488   3.208 129.178  0.00  0.00    +0.000 C 
BRANCH   7  11
ATOM      8  C   UNL     1      -1.481   6.239 131.943  0.00  0.00    +0.000 C 
ATOM      9  C   UNL     1      -2.190   5.917 130.712  0.00  0.00    +0.000 A 
ATOM     10  C   UNL     1      -3.008   4.725 130.696  0.00  0.00    +0.000 A 
ATOM     11  C   UNL     1      -3.446   4.274 129.542  0.00  0.00    +0.000 A 
ATOM     12  C   UNL     1      -2.914   5.048 128.535  0.00  0.00    +0.000 A 
ATOM     13  C   UNL     1      -2.284   6.294 128.431  0.00  0.00    +0.000 A 
ATOM     14  C   UNL     1      -1.900   6.747 129.591  0.00  0.00    +0.000 A 
ENDBRANCH   7  11
ENDBRANCH   1   7
BRANCH   4  15
ATOM     15  C   UNL     1      -5.927  -1.460 127.489  0.00  0.00    +0.000 C 
BRANCH  15  16
ATOM     16  C   UNL     1      -6.912  -1.834 126.386  0.00  0.00    +0.000 A 
ATOM     17  C   UNL     1      -8.277  -1.625 126.555  0.00  0.00    +0.000 A 
ATOM     18  C   UNL     1      -9.170  -2.162 125.627  0.00  0.00    +0.000 A 
ATOM     19  C   UNL     1      -8.709  -2.951 124.568  0.00  0.00    +0.000 A 
ATOM     20 CL   UNL     1      -9.795  -3.528 123.370  0.00  0.00    +0.000 Cl
ATOM     21  C   UNL     1      -7.361  -3.197 124.409  0.00  0.00    +0.000 A 
ATOM     22  C   UNL     1      -6.477  -2.520 125.232  0.00  0.00    +0.000 A 
ENDBRANCH  15  16
BRANCH  15  23
ATOM     23  C   UNL     1      -5.829  -2.551 128.553  0.00  0.00    +0.000 A 
ATOM     24  C   UNL     1      -6.753  -3.140 129.341  0.00  0.00    +0.000 A 
ATOM     25  C   UNL     1      -6.311  -4.048 130.358  0.00  0.00    +0.000 A 
ATOM     26  C   UNL     1      -4.956  -4.391 130.603  0.00  0.00    +0.000 A 
ATOM     27  C   UNL     1      -4.027  -3.850 129.808  0.00  0.00    +0.000 A 
ATOM     28  C   UNL     1      -4.589  -3.009 128.882  0.00  0.00    +0.000 A 
ENDBRANCH  15  23
ENDBRANCH   4  15
TORSDOF 5
ENDMDL
MODEL 5
REMARK VINA RESULT:      -8.5      3.947      8.322
REMARK  Name = Meclizine
REMARK  6 active torsions:
REMARK  status: ('A' for Active; 'I' for Inactive)
REMARK    1  A    between atoms: C_1  and  C_2
REMARK    2  A    between atoms: C_4  and  C_5
REMARK    3  A    between atoms: C_5  and  N_6
REMARK    4  A    between atoms: N_9  and  C_12
REMARK    5  A    between atoms: C_12  and  C_13
REMARK    6  A    between atoms: C_12  and  C_19
REMARK                            x       y       z     vdW  Elec       q    Type
REMARK                         _______ _______ _______ _____ _____    ______ ____
ROOT
ATOM      1  N   UNL     1      -6.910   2.573 127.640  0.00  0.00    +0.000 NA
ATOM      2  C   UNL     1      -7.695   1.309 127.106  0.00  0.00    +0.000 C 
ATOM      3  C   UNL     1      -8.632   1.664 125.930  0.00  0.00    +0.000 C 
ATOM      4  N   UNL     1      -8.042   2.661 124.793  0.00  0.00    +0.000 NA
ATOM      5  C   UNL     1      -7.158   3.925 125.265  0.00  0.00    +0.000 C 
ATOM      6  C   UNL     1      -6.317   3.658 126.599  0.00  0.00    +0.000 C 
ENDROOT
BRANCH   1   7
ATOM      7  C   UNL     1      -7.789   3.237 128.661  0.00  0.00    +0.000 C 
BRANCH   7  11
ATOM      8  C   UNL     1      -7.886  -0.406 132.209  0.00  0.00    +0.000 C 
ATOM      9  C   UNL     1      -8.503   0.704 131.497  0.00  0.00    +0.000 A 
ATOM     10  C   UNL     1      -7.766   1.301 130.406  0.00  0.00    +0.000 A 
ATOM     11  C   UNL     1      -8.176   2.452 129.920  0.00  0.00    +0.000 A 
ATOM     12  C   UNL     1      -9.239   2.896 130.675  0.00  0.00    +0.000 A 
ATOM     13  C   UNL     1     -10.132   2.345 131.602  0.00  0.00    +0.000 A 
ATOM     14  C   UNL     1      -9.732   1.184 132.036  0.00  0.00    +0.000 A 
ENDBRANCH   7  11
ENDBRANCH   1   7
BRANCH   4  15
ATOM     15  C   UNL     1      -7.321   1.913 123.687  0.00  0.00    +0.000 C 
BRANCH  15  16
ATOM     16  C   UNL     1      -7.282   2.817 122.459  0.00  0.00    +0.000 A 
ATOM     17  C   UNL     1      -8.459   3.212 121.833  0.00  0.00    +0.000 A 
ATOM     18  C   UNL     1      -8.392   3.862 120.600  0.00  0.00    +0.000 A 
ATOM     19  C   UNL     1      -7.161   4.065 119.967  0.00  0.00    +0.000 A 
ATOM     20 CL   UNL     1      -7.069   4.951 118.500  0.00  0.00    +0.000 Cl
ATOM     21  C   UNL     1      -5.988   3.644 120.559  0.00  0.00    +0.000 A 
ATOM     22  C   UNL     1      -6.054   3.159 121.854  0.00  0.00    +0.000 A 
ENDBRANCH  15  16
BRANCH  15  23
ATOM     23  C   UNL     1      -7.842   0.518 123.346  0.00  0.00    +0.000 A 
ATOM     24  C   UNL     1      -9.087   0.033 123.153  0.00  0.00    +0.000 A 
ATOM     25  C   UNL     1      -9.255  -1.380 122.984  0.00  0.00    +0.000 A 
ATOM     26  C   UNL     1      -8.199  -2.328 122.994  0.00  0.00    +0.000 A 
ATOM     27  C   UNL     1      -6.955  -1.865 123.144  0.00  0.00    +0.000 A 
ATOM     28  C   UNL     1      -6.941  -0.501 123.290  0.00  0.00    +0.000 A 
ENDBRANCH  15  23
ENDBRANCH   4  15
TORSDOF 5
ENDMDL
MODEL 6
REMARK VINA RESULT:      -8.4      6.856      9.313
REMARK  Name = Meclizine
REMARK  6 active torsions:
REMARK  status: ('A' for Active; 'I' for Inactive)
REMARK    1  A    between atoms: C_1  and  C_2
REMARK    2  A    between atoms: C_4  and  C_5
REMARK    3  A    between atoms: C_5  and  N_6
REMARK    4  A    between atoms: N_9  and  C_12
REMARK    5  A    between atoms: C_12  and  C_13
REMARK    6  A    between atoms: C_12  and  C_19
REMARK                            x       y       z     vdW  Elec       q    Type
REMARK                         _______ _______ _______ _____ _____    ______ ____
ROOT
ATOM      1  N   UNL     1      -7.540   6.094 130.470  0.00  0.00    +0.000 NA
ATOM      2  C   UNL     1      -6.226   6.640 131.158  0.00  0.00    +0.000 C 
ATOM      3  C   UNL     1      -5.640   5.630 132.170  0.00  0.00    +0.000 C 
ATOM      4  N   UNL     1      -5.605   4.072 131.719  0.00  0.00    +0.000 NA
ATOM      5  C   UNL     1      -6.881   3.471 130.935  0.00  0.00    +0.000 C 
ATOM      6  C   UNL     1      -7.635   4.545 130.020  0.00  0.00    +0.000 C 
ENDROOT
BRANCH   1   7
ATOM      7  C   UNL     1      -8.690   6.463 131.363  0.00  0.00    +0.000 C 
BRANCH   7  11
ATOM      8  C   UNL     1     -12.017   8.533 128.120  0.00  0.00    +0.000 C 
ATOM      9  C   UNL     1     -11.666   8.007 129.431  0.00  0.00    +0.000 A 
ATOM     10  C   UNL     1     -10.300   7.583 129.646  0.00  0.00    +0.000 A 
ATOM     11  C   UNL     1     -10.019   6.874 130.718  0.00  0.00    +0.000 A 
ATOM     12  C   UNL     1     -11.190   6.608 131.391  0.00  0.00    +0.000 A 
ATOM     13  C   UNL     1     -12.501   7.099 131.390  0.00  0.00    +0.000 A 
ATOM     14  C   UNL     1     -12.747   7.838 130.345  0.00  0.00    +0.000 A 
ENDBRANCH   7  11
ENDBRANCH   1   7
BRANCH   4  15
ATOM     15  C   UNL     1      -4.330   3.713 130.978  0.00  0.00    +0.000 C 
BRANCH  15  16
ATOM     16  C   UNL     1      -4.128   2.206 131.097  0.00  0.00    +0.000 A 
ATOM     17  C   UNL     1      -4.143   1.397 129.967  0.00  0.00    +0.000 A 
ATOM     18  C   UNL     1      -4.165   0.010 130.120  0.00  0.00    +0.000 A 
ATOM     19  C   UNL     1      -4.228  -0.566 131.393  0.00  0.00    +0.000 A 
ATOM     20 CL   UNL     1      -4.153  -2.271 131.585  0.00  0.00    +0.000 Cl
ATOM     21  C   UNL     1      -4.250   0.225 132.522  0.00  0.00    +0.000 A 
ATOM     22  C   UNL     1      -4.055   1.587 132.364  0.00  0.00    +0.000 A 
ENDBRANCH  15  16
BRANCH  15  23
ATOM     23  C   UNL     1      -3.070   4.486 131.363  0.00  0.00    +0.000 A 
ATOM     24  C   UNL     1      -2.278   4.449 132.456  0.00  0.00    +0.000 A 
ATOM     25  C   UNL     1      -1.232   5.420 132.579  0.00  0.00    +0.000 A 
ATOM     26  C   UNL     1      -0.949   6.431 131.623  0.00  0.00    +0.000 A 
ATOM     27  C   UNL     1      -1.694   6.460 130.514  0.00  0.00    +0.000 A 
ATOM     28  C   UNL     1      -2.651   5.476 130.528  0.00  0.00    +0.000 A 
ENDBRANCH  15  23
ENDBRANCH   4  15
TORSDOF 5
ENDMDL
MODEL 7
REMARK VINA RESULT:      -8.3      4.145      7.085
REMARK  Name = Meclizine
REMARK  6 active torsions:
REMARK  status: ('A' for Active; 'I' for Inactive)
REMARK    1  A    between atoms: C_1  and  C_2
REMARK    2  A    between atoms: C_4  and  C_5
REMARK    3  A    between atoms: C_5  and  N_6
REMARK    4  A    between atoms: N_9  and  C_12
REMARK    5  A    between atoms: C_12  and  C_13
REMARK    6  A    between atoms: C_12  and  C_19
REMARK                            x       y       z     vdW  Elec       q    Type
REMARK                         _______ _______ _______ _____ _____    ______ ____
ROOT
ATOM      1  N   UNL     1      -5.963   4.643 126.734  0.00  0.00    +0.000 NA
ATOM      2  C   UNL     1      -6.083   5.295 125.300  0.00  0.00    +0.000 C 
ATOM      3  C   UNL     1      -5.625   4.330 124.184  0.00  0.00    +0.000 C 
ATOM      4  N   UNL     1      -6.113   2.786 124.299  0.00  0.00    +0.000 NA
ATOM      5  C   UNL     1      -6.097   2.084 125.752  0.00  0.00    +0.000 C 
ATOM      6  C   UNL     1      -6.377   3.096 126.958  0.00  0.00    +0.000 C 
ENDROOT
BRANCH   1   7
ATOM      7  C   UNL     1      -4.563   4.896 127.216  0.00  0.00    +0.000 C 
BRANCH   7  11
ATOM      8  C   UNL     1      -4.956   6.468 132.038  0.00  0.00    +0.000 C 
ATOM      9  C   UNL     1      -4.666   6.712 130.631  0.00  0.00    +0.000 A 
ATOM     10  C   UNL     1      -4.855   5.619 129.703  0.00  0.00    +0.000 A 
ATOM     11  C   UNL     1      -4.363   5.728 128.489  0.00  0.00    +0.000 A 
ATOM     12  C   UNL     1      -3.656   6.906 128.403  0.00  0.00    +0.000 A 
ATOM     13  C   UNL     1      -3.556   8.092 129.141  0.00  0.00    +0.000 A 
ATOM     14  C   UNL     1      -4.092   7.979 130.323  0.00  0.00    +0.000 A 
ENDBRANCH   7  11
ENDBRANCH   1   7
BRANCH   4  15
ATOM     15  C   UNL     1      -7.454   2.552 123.630  0.00  0.00    +0.000 C 
BRANCH  15  16
ATOM     16  C   UNL     1      -7.711   1.049 123.610  0.00  0.00    +0.000 A 
ATOM     17  C   UNL     1      -8.783   0.504 124.308  0.00  0.00    +0.000 A 
ATOM     18  C   UNL     1      -8.876  -0.882 124.446  0.00  0.00    +0.000 A 
ATOM     19  C   UNL     1      -7.875  -1.717 123.940  0.00  0.00    +0.000 A 
ATOM     20 CL   UNL     1      -8.037  -3.424 124.020  0.00  0.00    +0.000 Cl
ATOM     21  C   UNL     1      -6.786  -1.188 123.277  0.00  0.00    +0.000 A 
ATOM     22  C   UNL     1      -6.794   0.168 122.998  0.00  0.00    +0.000 A 
ENDBRANCH  15  16
BRANCH  15  23
ATOM     23  C   UNL     1      -7.653   3.178 122.250  0.00  0.00    +0.000 A 
ATOM     24  C   UNL     1      -8.754   3.405 121.504  0.00  0.00    +0.000 A 
ATOM     25  C   UNL     1      -8.588   3.889 120.165  0.00  0.00    +0.000 A 
ATOM     26  C   UNL     1      -7.338   4.164 119.553  0.00  0.00    +0.000 A 
ATOM     27  C   UNL     1      -6.237   3.985 120.288  0.00  0.00    +0.000 A 
ATOM     28  C   UNL     1      -6.542   3.525 121.544  0.00  0.00    +0.000 A 
ENDBRANCH  15  23
ENDBRANCH   4  15
TORSDOF 5
ENDMDL
MODEL 8
REMARK VINA RESULT:      -8.1      2.499      3.634
REMARK  Name = Meclizine
REMARK  6 active torsions:
REMARK  status: ('A' for Active; 'I' for Inactive)
REMARK    1  A    between atoms: C_1  and  C_2
REMARK    2  A    between atoms: C_4  and  C_5
REMARK    3  A    between atoms: C_5  and  N_6
REMARK    4  A    between atoms: N_9  and  C_12
REMARK    5  A    between atoms: C_12  and  C_13
REMARK    6  A    between atoms: C_12  and  C_19
REMARK                            x       y       z     vdW  Elec       q    Type
REMARK                         _______ _______ _______ _____ _____    ______ ____
ROOT
ATOM      1  N   UNL     1      -6.949   2.330 125.583  0.00  0.00    +0.000 NA
ATOM      2  C   UNL     1      -6.802   1.017 124.715  0.00  0.00    +0.000 C 
ATOM      3  C   UNL     1      -5.846  -0.005 125.368  0.00  0.00    +0.000 C 
ATOM      4  N   UNL     1      -5.989  -0.231 126.969  0.00  0.00    +0.000 NA
ATOM      5  C   UNL     1      -6.227   1.061 127.906  0.00  0.00    +0.000 C 
ATOM      6  C   UNL     1      -7.054   2.229 127.193  0.00  0.00    +0.000 C 
ENDROOT
BRANCH   1   7
ATOM      7  C   UNL     1      -5.835   3.252 125.177  0.00  0.00    +0.000 C 
BRANCH   7  11
ATOM      8  C   UNL     1      -3.443   5.909 128.796  0.00  0.00    +0.000 C 
ATOM      9  C   UNL     1      -3.450   4.917 127.729  0.00  0.00    +0.000 A 
ATOM     10  C   UNL     1      -4.687   4.707 127.010  0.00  0.00    +0.000 A 
ATOM     11  C   UNL     1      -4.794   3.655 126.229  0.00  0.00    +0.000 A 
ATOM     12  C   UNL     1      -3.652   2.895 126.353  0.00  0.00    +0.000 A 
ATOM     13  C   UNL     1      -2.356   3.076 126.851  0.00  0.00    +0.000 A 
ATOM     14  C   UNL     1      -2.259   4.150 127.583  0.00  0.00    +0.000 A 
ENDBRANCH   7  11
ENDBRANCH   1   7
BRANCH   4  15
ATOM     15  C   UNL     1      -7.001  -1.309 127.312  0.00  0.00    +0.000 C 
BRANCH  15  16
ATOM     16  C   UNL     1      -6.455  -2.102 128.495  0.00  0.00    +0.000 A 
ATOM     17  C   UNL     1      -5.124  -2.504 128.525  0.00  0.00    +0.000 A 
ATOM     18  C   UNL     1      -4.703  -3.400 129.509  0.00  0.00    +0.000 A 
ATOM     19  C   UNL     1      -5.616  -3.936 130.423  0.00  0.00    +0.000 A 
ATOM     20 CL   UNL     1      -5.082  -4.959 131.694  0.00  0.00    +0.000 Cl
ATOM     21  C   UNL     1      -6.947  -3.574 130.381  0.00  0.00    +0.000 A 
ATOM     22  C   UNL     1      -7.316  -2.559 129.515  0.00  0.00    +0.000 A 
ENDBRANCH  15  16
BRANCH  15  23
ATOM     23  C   UNL     1      -7.443  -2.225 126.172  0.00  0.00    +0.000 A 
ATOM     24  C   UNL     1      -6.754  -2.935 125.256  0.00  0.00    +0.000 A 
ATOM     25  C   UNL     1      -7.479  -3.595 124.211  0.00  0.00    +0.000 A 
ATOM     26  C   UNL     1      -8.890  -3.570 124.064  0.00  0.00    +0.000 A 
ATOM     27  C   UNL     1      -9.596  -2.906 124.984  0.00  0.00    +0.000 A 
ATOM     28  C   UNL     1      -8.778  -2.329 125.923  0.00  0.00    +0.000 A 
ENDBRANCH  15  23
ENDBRANCH   4  15
TORSDOF 5
ENDMDL
MODEL 9
REMARK VINA RESULT:      -8.0      4.622      7.056
REMARK  Name = Meclizine
REMARK  6 active torsions:
REMARK  status: ('A' for Active; 'I' for Inactive)
REMARK    1  A    between atoms: C_1  and  C_2
REMARK    2  A    between atoms: C_4  and  C_5
REMARK    3  A    between atoms: C_5  and  N_6
REMARK    4  A    between atoms: N_9  and  C_12
REMARK    5  A    between atoms: C_12  and  C_13
REMARK    6  A    between atoms: C_12  and  C_19
REMARK                            x       y       z     vdW  Elec       q    Type
REMARK                         _______ _______ _______ _____ _____    ______ ____
ROOT
ATOM      1  N   UNL     1      -6.983   1.831 130.473  0.00  0.00    +0.000 NA
ATOM      2  C   UNL     1      -6.736   0.439 131.179  0.00  0.00    +0.000 C 
ATOM      3  C   UNL     1      -7.650  -0.669 130.610  0.00  0.00    +0.000 C 
ATOM      4  N   UNL     1      -7.833  -0.718 128.998  0.00  0.00    +0.000 NA
ATOM      5  C   UNL     1      -8.004   0.675 128.203  0.00  0.00    +0.000 C 
ATOM      6  C   UNL     1      -7.223   1.899 128.876  0.00  0.00    +0.000 C 
ENDROOT
BRANCH   1   7
ATOM      7  C   UNL     1      -8.104   2.505 131.211  0.00  0.00    +0.000 C 
BRANCH   7  11
ATOM      8  C   UNL     1      -9.560   7.249 130.093  0.00  0.00    +0.000 C 
ATOM      9  C   UNL     1      -8.575   6.294 130.579  0.00  0.00    +0.000 A 
ATOM     10  C   UNL     1      -8.921   4.890 130.547  0.00  0.00    +0.000 A 
ATOM     11  C   UNL     1      -8.169   4.038 131.208  0.00  0.00    +0.000 A 
ATOM     12  C   UNL     1      -7.207   4.740 131.898  0.00  0.00    +0.000 A 
ATOM     13  C   UNL     1      -6.669   6.033 131.867  0.00  0.00    +0.000 A 
ATOM     14  C   UNL     1      -7.403   6.852 131.168  0.00  0.00    +0.000 A 
ENDBRANCH   7  11
ENDBRANCH   1   7
BRANCH   4  15
ATOM     15  C   UNL     1      -6.774  -1.569 128.322  0.00  0.00    +0.000 C 
BRANCH  15  16
ATOM     16  C   UNL     1      -7.386  -2.160 127.056  0.00  0.00    +0.000 A 
ATOM     17  C   UNL     1      -6.786  -1.958 125.818  0.00  0.00    +0.000 A 
ATOM     18  C   UNL     1      -7.471  -2.327 124.659  0.00  0.00    +0.000 A 
ATOM     19  C   UNL     1      -8.769  -2.843 124.731  0.00  0.00    +0.000 A 
ATOM     20 CL   UNL     1      -9.572  -3.390 123.316  0.00  0.00    +0.000 Cl
ATOM     21  C   UNL     1      -9.390  -3.013 125.951  0.00  0.00    +0.000 A 
ATOM     22  C   UNL     1      -8.640  -2.806 127.096  0.00  0.00    +0.000 A 
ENDBRANCH  15  16
BRANCH  15  23
ATOM     23  C   UNL     1      -6.102  -2.640 129.179  0.00  0.00    +0.000 A 
ATOM     24  C   UNL     1      -6.587  -3.706 129.849  0.00  0.00    +0.000 A 
ATOM     25  C   UNL     1      -5.699  -4.450 130.692  0.00  0.00    +0.000 A 
ATOM     26  C   UNL     1      -4.322  -4.159 130.875  0.00  0.00    +0.000 A 
ATOM     27  C   UNL     1      -3.811  -3.132 130.189  0.00  0.00    +0.000 A 
ATOM     28  C   UNL     1      -4.768  -2.515 129.424  0.00  0.00    +0.000 A 
ENDBRANCH  15  23
ENDBRANCH   4  15
TORSDOF 5
ENDMDL
