MODEL 1
REMARK VINA RESULT:      -6.9      0.000      0.000
REMARK  Name = Medifoxamine
REMARK  8 active torsions:
REMARK  status: ('A' for Active; 'I' for Inactive)
REMARK    1  A    between atoms: C_1  and  N_2
REMARK    2  A    between atoms: N_2  and  C_3
REMARK    3  A    between atoms: N_2  and  C_4
REMARK    4  A    between atoms: C_4  and  C_5
REMARK    5  A    between atoms: C_5  and  O_6
REMARK    6  A    between atoms: C_5  and  O_13
REMARK    7  A    between atoms: O_6  and  C_7
REMARK    8  A    between atoms: O_13  and  C_14
REMARK                            x       y       z     vdW  Elec       q    Type
REMARK                         _______ _______ _______ _____ _____    ______ ____
ROOT
ATOM      1  C   UNL     1     -10.551   5.225 130.187  0.00  0.00    +0.000 C 
ENDROOT
BRANCH   1   2
ATOM      2  C   UNL     1      -9.539   6.494 130.197  0.00  0.00    +0.000 C 
BRANCH   2   4
ATOM      3  C   UNL     1      -9.071   5.979 132.654  0.00  0.00    +0.000 C 
ATOM      4  N   UNL     1      -8.850   6.760 131.453  0.00  0.00    +0.000 NA
ATOM      5  C   UNL     1      -7.412   6.767 131.201  0.00  0.00    +0.000 C 
ENDBRANCH   2   4
ENDBRANCH   1   2
BRANCH   1   6
ATOM      6  O   UNL     1     -11.881   5.338 129.576  0.00  0.00    +0.000 OA
BRANCH   6   7
ATOM      7  C   UNL     1     -12.661   6.479 129.477  0.00  0.00    +0.000 A 
ATOM      8  C   UNL     1     -13.144   6.829 128.197  0.00  0.00    +0.000 A 
ATOM      9  C   UNL     1     -13.436   8.177 127.886  0.00  0.00    +0.000 A 
ATOM     10  C   UNL     1     -13.141   9.189 128.780  0.00  0.00    +0.000 A 
ATOM     11  C   UNL     1     -12.778   8.819 130.072  0.00  0.00    +0.000 A 
ATOM     12  C   UNL     1     -12.752   7.460 130.439  0.00  0.00    +0.000 A 
ENDBRANCH   6   7
ENDBRANCH   1   6
BRANCH   1  13
ATOM     13  O   UNL     1      -9.674   4.218 129.548  0.00  0.00    +0.000 OA
BRANCH  13  14
ATOM     14  C   UNL     1      -9.467   2.997 130.111  0.00  0.00    +0.000 A 
ATOM     15  C   UNL     1     -10.064   2.742 131.353  0.00  0.00    +0.000 A 
ATOM     16  C   UNL     1      -9.793   1.550 132.038  0.00  0.00    +0.000 A 
ATOM     17  C   UNL     1      -8.962   0.591 131.463  0.00  0.00    +0.000 A 
ATOM     18  C   UNL     1      -8.352   0.852 130.242  0.00  0.00    +0.000 A 
ATOM     19  C   UNL     1      -8.578   2.063 129.594  0.00  0.00    +0.000 A 
ENDBRANCH  13  14
ENDBRANCH   1  13
TORSDOF 6
ENDMDL
MODEL 2
REMARK VINA RESULT:      -6.8      0.908      6.236
REMARK  Name = Medifoxamine
REMARK  8 active torsions:
REMARK  status: ('A' for Active; 'I' for Inactive)
REMARK    1  A    between atoms: C_1  and  N_2
REMARK    2  A    between atoms: N_2  and  C_3
REMARK    3  A    between atoms: N_2  and  C_4
REMARK    4  A    between atoms: C_4  and  C_5
REMARK    5  A    between atoms: C_5  and  O_6
REMARK    6  A    between atoms: C_5  and  O_13
REMARK    7  A    between atoms: O_6  and  C_7
REMARK    8  A    between atoms: O_13  and  C_14
REMARK                            x       y       z     vdW  Elec       q    Type
REMARK                         _______ _______ _______ _____ _____    ______ ____
ROOT
ATOM      1  C   UNL     1     -10.878   5.346 130.851  0.00  0.00    +0.000 C 
ENDROOT
BRANCH   1   2
ATOM      2  C   UNL     1     -10.291   5.982 132.225  0.00  0.00    +0.000 C 
BRANCH   2   4
ATOM      3  C   UNL     1      -7.783   5.706 132.619  0.00  0.00    +0.000 C 
ATOM      4  N   UNL     1      -8.923   6.481 132.171  0.00  0.00    +0.000 NA
ATOM      5  C   UNL     1      -8.640   6.914 130.806  0.00  0.00    +0.000 C 
ENDBRANCH   2   4
ENDBRANCH   1   2
BRANCH   1   6
ATOM      6  O   UNL     1     -10.885   3.893 130.647  0.00  0.00    +0.000 OA
BRANCH   6   7
ATOM      7  C   UNL     1      -9.863   3.003 130.941  0.00  0.00    +0.000 A 
ATOM      8  C   UNL     1      -8.903   2.758 129.935  0.00  0.00    +0.000 A 
ATOM      9  C   UNL     1      -8.202   1.531 129.898  0.00  0.00    +0.000 A 
ATOM     10  C   UNL     1      -8.527   0.505 130.765  0.00  0.00    +0.000 A 
ATOM     11  C   UNL     1      -9.388   0.802 131.817  0.00  0.00    +0.000 A 
ATOM     12  C   UNL     1      -9.869   2.113 131.991  0.00  0.00    +0.000 A 
ENDBRANCH   6   7
ENDBRANCH   1   6
BRANCH   1  13
ATOM     13  O   UNL     1     -12.224   5.964 130.852  0.00  0.00    +0.000 OA
BRANCH  13  14
ATOM     14  C   UNL     1     -12.569   6.914 129.942  0.00  0.00    +0.000 A 
ATOM     15  C   UNL     1     -12.463   8.258 130.329  0.00  0.00    +0.000 A 
ATOM     16  C   UNL     1     -12.914   9.277 129.479  0.00  0.00    +0.000 A 
ATOM     17  C   UNL     1     -13.431   8.960 128.225  0.00  0.00    +0.000 A 
ATOM     18  C   UNL     1     -13.558   7.627 127.850  0.00  0.00    +0.000 A 
ATOM     19  C   UNL     1     -13.162   6.617 128.721  0.00  0.00    +0.000 A 
ENDBRANCH  13  14
ENDBRANCH   1  13
TORSDOF 6
ENDMDL
MODEL 3
REMARK VINA RESULT:      -6.7      7.930     10.604
REMARK  Name = Medifoxamine
REMARK  8 active torsions:
REMARK  status: ('A' for Active; 'I' for Inactive)
REMARK    1  A    between atoms: C_1  and  N_2
REMARK    2  A    between atoms: N_2  and  C_3
REMARK    3  A    between atoms: N_2  and  C_4
REMARK    4  A    between atoms: C_4  and  C_5
REMARK    5  A    between atoms: C_5  and  O_6
REMARK    6  A    between atoms: C_5  and  O_13
REMARK    7  A    between atoms: O_6  and  C_7
REMARK    8  A    between atoms: O_13  and  C_14
REMARK                            x       y       z     vdW  Elec       q    Type
REMARK                         _______ _______ _______ _____ _____    ______ ____
ROOT
ATOM      1  C   UNL     1      -7.975   1.852 123.203  0.00  0.00    +0.000 C 
ENDROOT
BRANCH   1   2
ATOM      2  C   UNL     1      -7.476   2.607 124.550  0.00  0.00    +0.000 C 
BRANCH   2   4
ATOM      3  C   UNL     1      -5.512   4.241 124.522  0.00  0.00    +0.000 C 
ATOM      4  N   UNL     1      -6.050   2.900 124.636  0.00  0.00    +0.000 NA
ATOM      5  C   UNL     1      -5.534   2.331 125.877  0.00  0.00    +0.000 C 
ENDBRANCH   2   4
ENDBRANCH   1   2
BRANCH   1   6
ATOM      6  O   UNL     1      -8.772   0.624 123.290  0.00  0.00    +0.000 OA
BRANCH   6   7
ATOM      7  C   UNL     1      -8.315  -0.681 123.179  0.00  0.00    +0.000 A 
ATOM      8  C   UNL     1      -9.276  -1.692 122.962  0.00  0.00    +0.000 A 
ATOM      9  C   UNL     1      -9.026  -3.018 123.381  0.00  0.00    +0.000 A 
ATOM     10  C   UNL     1      -7.899  -3.326 124.118  0.00  0.00    +0.000 A 
ATOM     11  C   UNL     1      -6.913  -2.350 124.223  0.00  0.00    +0.000 A 
ATOM     12  C   UNL     1      -7.066  -1.115 123.565  0.00  0.00    +0.000 A 
ENDBRANCH   6   7
ENDBRANCH   1   6
BRANCH   1  13
ATOM     13  O   UNL     1      -8.666   2.977 122.534  0.00  0.00    +0.000 OA
BRANCH  13  14
ATOM     14  C   UNL     1      -8.178   3.533 121.392  0.00  0.00    +0.000 A 
ATOM     15  C   UNL     1      -9.086   3.803 120.358  0.00  0.00    +0.000 A 
ATOM     16  C   UNL     1      -8.628   4.264 119.117  0.00  0.00    +0.000 A 
ATOM     17  C   UNL     1      -7.269   4.499 118.919  0.00  0.00    +0.000 A 
ATOM     18  C   UNL     1      -6.366   4.210 119.936  0.00  0.00    +0.000 A 
ATOM     19  C   UNL     1      -6.821   3.696 121.147  0.00  0.00    +0.000 A 
ENDBRANCH  13  14
ENDBRANCH   1  13
TORSDOF 6
ENDMDL
MODEL 4
REMARK VINA RESULT:      -6.7      7.820      9.971
REMARK  Name = Medifoxamine
REMARK  8 active torsions:
REMARK  status: ('A' for Active; 'I' for Inactive)
REMARK    1  A    between atoms: C_1  and  N_2
REMARK    2  A    between atoms: N_2  and  C_3
REMARK    3  A    between atoms: N_2  and  C_4
REMARK    4  A    between atoms: C_4  and  C_5
REMARK    5  A    between atoms: C_5  and  O_6
REMARK    6  A    between atoms: C_5  and  O_13
REMARK    7  A    between atoms: O_6  and  C_7
REMARK    8  A    between atoms: O_13  and  C_14
REMARK                            x       y       z     vdW  Elec       q    Type
REMARK                         _______ _______ _______ _____ _____    ______ ____
ROOT
ATOM      1  C   UNL     1      -7.253   0.884 123.489  0.00  0.00    +0.000 C 
ENDROOT
BRANCH   1   2
ATOM      2  C   UNL     1      -7.093   2.361 122.834  0.00  0.00    +0.000 C 
BRANCH   2   4
ATOM      3  C   UNL     1      -8.516   3.587 121.103  0.00  0.00    +0.000 C 
ATOM      4  N   UNL     1      -8.326   3.023 122.425  0.00  0.00    +0.000 NA
ATOM      5  C   UNL     1      -9.443   2.116 122.673  0.00  0.00    +0.000 C 
ENDBRANCH   2   4
ENDBRANCH   1   2
BRANCH   1   6
ATOM      6  O   UNL     1      -6.649  -0.286 122.842  0.00  0.00    +0.000 OA
BRANCH   6   7
ATOM      7  C   UNL     1      -7.037  -1.610 122.977  0.00  0.00    +0.000 A 
ATOM      8  C   UNL     1      -8.420  -1.890 122.945  0.00  0.00    +0.000 A 
ATOM      9  C   UNL     1      -8.935  -3.029 123.605  0.00  0.00    +0.000 A 
ATOM     10  C   UNL     1      -8.120  -3.819 124.394  0.00  0.00    +0.000 A 
ATOM     11  C   UNL     1      -6.747  -3.598 124.322  0.00  0.00    +0.000 A 
ATOM     12  C   UNL     1      -6.231  -2.624 123.445  0.00  0.00    +0.000 A 
ENDBRANCH   6   7
ENDBRANCH   1   6
BRANCH   1  13
ATOM     13  O   UNL     1      -6.734   1.162 124.847  0.00  0.00    +0.000 OA
BRANCH  13  14
ATOM     14  C   UNL     1      -6.739   0.209 125.817  0.00  0.00    +0.000 A 
ATOM     15  C   UNL     1      -5.507  -0.341 126.199  0.00  0.00    +0.000 A 
ATOM     16  C   UNL     1      -5.459  -1.407 127.107  0.00  0.00    +0.000 A 
ATOM     17  C   UNL     1      -6.635  -1.898 127.668  0.00  0.00    +0.000 A 
ATOM     18  C   UNL     1      -7.858  -1.369 127.274  0.00  0.00    +0.000 A 
ATOM     19  C   UNL     1      -7.905  -0.349 126.327  0.00  0.00    +0.000 A 
ENDBRANCH  13  14
ENDBRANCH   1  13
TORSDOF 6
ENDMDL
MODEL 5
REMARK VINA RESULT:      -6.7      7.468     10.537
REMARK  Name = Medifoxamine
REMARK  8 active torsions:
REMARK  status: ('A' for Active; 'I' for Inactive)
REMARK    1  A    between atoms: C_1  and  N_2
REMARK    2  A    between atoms: N_2  and  C_3
REMARK    3  A    between atoms: N_2  and  C_4
REMARK    4  A    between atoms: C_4  and  C_5
REMARK    5  A    between atoms: C_5  and  O_6
REMARK    6  A    between atoms: C_5  and  O_13
REMARK    7  A    between atoms: O_6  and  C_7
REMARK    8  A    between atoms: O_13  and  C_14
REMARK                            x       y       z     vdW  Elec       q    Type
REMARK                         _______ _______ _______ _____ _____    ______ ____
ROOT
ATOM      1  C   UNL     1      -7.098   1.161 123.867  0.00  0.00    +0.000 C 
ENDROOT
BRANCH   1   2
ATOM      2  C   UNL     1      -7.025   1.244 125.487  0.00  0.00    +0.000 C 
BRANCH   2   4
ATOM      3  C   UNL     1      -7.771  -0.776 126.862  0.00  0.00    +0.000 C 
ATOM      4  N   UNL     1      -8.040   0.494 126.217  0.00  0.00    +0.000 NA
ATOM      5  C   UNL     1      -8.630   1.373 127.223  0.00  0.00    +0.000 C 
ENDBRANCH   2   4
ENDBRANCH   1   2
BRANCH   1   6
ATOM      6  O   UNL     1      -7.991   0.199 123.211  0.00  0.00    +0.000 OA
BRANCH   6   7
ATOM      7  C   UNL     1      -7.856  -1.180 123.178  0.00  0.00    +0.000 A 
ATOM      8  C   UNL     1      -9.032  -1.952 123.295  0.00  0.00    +0.000 A 
ATOM      9  C   UNL     1      -8.979  -3.263 123.823  0.00  0.00    +0.000 A 
ATOM     10  C   UNL     1      -7.803  -3.766 124.348  0.00  0.00    +0.000 A 
ATOM     11  C   UNL     1      -6.637  -3.042 124.121  0.00  0.00    +0.000 A 
ATOM     12  C   UNL     1      -6.673  -1.862 123.354  0.00  0.00    +0.000 A 
ENDBRANCH   6   7
ENDBRANCH   1   6
BRANCH   1  13
ATOM     13  O   UNL     1      -7.404   2.578 123.564  0.00  0.00    +0.000 OA
BRANCH  13  14
ATOM     14  C   UNL     1      -7.440   3.038 122.285  0.00  0.00    +0.000 A 
ATOM     15  C   UNL     1      -6.219   3.336 121.664  0.00  0.00    +0.000 A 
ATOM     16  C   UNL     1      -6.197   3.924 120.392  0.00  0.00    +0.000 A 
ATOM     17  C   UNL     1      -7.391   4.173 119.719  0.00  0.00    +0.000 A 
ATOM     18  C   UNL     1      -8.602   3.899 120.342  0.00  0.00    +0.000 A 
ATOM     19  C   UNL     1      -8.620   3.370 121.630  0.00  0.00    +0.000 A 
ENDBRANCH  13  14
ENDBRANCH   1  13
TORSDOF 6
ENDMDL
MODEL 6
REMARK VINA RESULT:      -6.6      1.549      5.509
REMARK  Name = Medifoxamine
REMARK  8 active torsions:
REMARK  status: ('A' for Active; 'I' for Inactive)
REMARK    1  A    between atoms: C_1  and  N_2
REMARK    2  A    between atoms: N_2  and  C_3
REMARK    3  A    between atoms: N_2  and  C_4
REMARK    4  A    between atoms: C_4  and  C_5
REMARK    5  A    between atoms: C_5  and  O_6
REMARK    6  A    between atoms: C_5  and  O_13
REMARK    7  A    between atoms: O_6  and  C_7
REMARK    8  A    between atoms: O_13  and  C_14
REMARK                            x       y       z     vdW  Elec       q    Type
REMARK                         _______ _______ _______ _____ _____    ______ ____
ROOT
ATOM      1  C   UNL     1     -11.064   5.595 130.245  0.00  0.00    +0.000 C 
ENDROOT
BRANCH   1   2
ATOM      2  C   UNL     1     -12.101   6.476 129.359  0.00  0.00    +0.000 C 
BRANCH   2   4
ATOM      3  C   UNL     1     -10.984   8.002 127.642  0.00  0.00    +0.000 C 
ATOM      4  N   UNL     1     -11.628   7.783 128.923  0.00  0.00    +0.000 NA
ATOM      5  C   UNL     1     -12.733   8.732 129.018  0.00  0.00    +0.000 C 
ENDBRANCH   2   4
ENDBRANCH   1   2
BRANCH   1   6
ATOM      6  O   UNL     1     -10.173   4.624 129.600  0.00  0.00    +0.000 OA
BRANCH   6   7
ATOM      7  C   UNL     1      -9.632   3.480 130.166  0.00  0.00    +0.000 A 
ATOM      8  C   UNL     1     -10.409   2.801 131.130  0.00  0.00    +0.000 A 
ATOM      9  C   UNL     1      -9.786   2.019 132.129  0.00  0.00    +0.000 A 
ATOM     10  C   UNL     1      -8.410   2.002 132.259  0.00  0.00    +0.000 A 
ATOM     11  C   UNL     1      -7.662   2.579 131.237  0.00  0.00    +0.000 A 
ATOM     12  C   UNL     1      -8.304   3.122 130.108  0.00  0.00    +0.000 A 
ENDBRANCH   6   7
ENDBRANCH   1   6
BRANCH   1  13
ATOM     13  O   UNL     1     -10.360   6.688 130.953  0.00  0.00    +0.000 OA
BRANCH  13  14
ATOM     14  C   UNL     1      -9.216   6.458 131.652  0.00  0.00    +0.000 A 
ATOM     15  C   UNL     1      -7.997   6.751 131.024  0.00  0.00    +0.000 A 
ATOM     16  C   UNL     1      -6.784   6.427 131.646  0.00  0.00    +0.000 A 
ATOM     17  C   UNL     1      -6.784   5.851 132.915  0.00  0.00    +0.000 A 
ATOM     18  C   UNL     1      -7.991   5.541 133.529  0.00  0.00    +0.000 A 
ATOM     19  C   UNL     1      -9.194   5.811 132.881  0.00  0.00    +0.000 A 
ENDBRANCH  13  14
ENDBRANCH   1  13
TORSDOF 6
ENDMDL
MODEL 7
REMARK VINA RESULT:      -6.5      1.759      5.836
REMARK  Name = Medifoxamine
REMARK  8 active torsions:
REMARK  status: ('A' for Active; 'I' for Inactive)
REMARK    1  A    between atoms: C_1  and  N_2
REMARK    2  A    between atoms: N_2  and  C_3
REMARK    3  A    between atoms: N_2  and  C_4
REMARK    4  A    between atoms: C_4  and  C_5
REMARK    5  A    between atoms: C_5  and  O_6
REMARK    6  A    between atoms: C_5  and  O_13
REMARK    7  A    between atoms: O_6  and  C_7
REMARK    8  A    between atoms: O_13  and  C_14
REMARK                            x       y       z     vdW  Elec       q    Type
REMARK                         _______ _______ _______ _____ _____    ______ ____
ROOT
ATOM      1  C   UNL     1     -10.490   4.690 130.881  0.00  0.00    +0.000 C 
ENDROOT
BRANCH   1   2
ATOM      2  C   UNL     1      -9.372   3.574 130.506  0.00  0.00    +0.000 C 
BRANCH   2   4
ATOM      3  C   UNL     1      -7.806   4.292 128.620  0.00  0.00    +0.000 C 
ATOM      4  N   UNL     1      -8.940   3.536 129.114  0.00  0.00    +0.000 NA
ATOM      5  C   UNL     1      -8.730   2.143 128.731  0.00  0.00    +0.000 C 
ENDBRANCH   2   4
ENDBRANCH   1   2
BRANCH   1   6
ATOM      6  O   UNL     1     -10.133   5.856 131.698  0.00  0.00    +0.000 OA
BRANCH   6   7
ATOM      7  C   UNL     1      -8.859   6.257 132.071  0.00  0.00    +0.000 A 
ATOM      8  C   UNL     1      -8.076   6.922 131.103  0.00  0.00    +0.000 A 
ATOM      9  C   UNL     1      -6.665   6.867 131.162  0.00  0.00    +0.000 A 
ATOM     10  C   UNL     1      -6.028   6.065 132.090  0.00  0.00    +0.000 A 
ATOM     11  C   UNL     1      -6.805   5.512 133.103  0.00  0.00    +0.000 A 
ATOM     12  C   UNL     1      -8.181   5.801 133.178  0.00  0.00    +0.000 A 
ENDBRANCH   6   7
ENDBRANCH   1   6
BRANCH   1  13
ATOM     13  O   UNL     1     -10.965   5.026 129.519  0.00  0.00    +0.000 OA
BRANCH  13  14
ATOM     14  C   UNL     1     -11.332   6.293 129.189  0.00  0.00    +0.000 A 
ATOM     15  C   UNL     1     -12.660   6.673 129.433  0.00  0.00    +0.000 A 
ATOM     16  C   UNL     1     -13.129   7.923 129.007  0.00  0.00    +0.000 A 
ATOM     17  C   UNL     1     -12.262   8.814 128.377  0.00  0.00    +0.000 A 
ATOM     18  C   UNL     1     -10.952   8.430 128.115  0.00  0.00    +0.000 A 
ATOM     19  C   UNL     1     -10.508   7.165 128.488  0.00  0.00    +0.000 A 
ENDBRANCH  13  14
ENDBRANCH   1  13
TORSDOF 6
ENDMDL
MODEL 8
REMARK VINA RESULT:      -6.5      6.941      9.664
REMARK  Name = Medifoxamine
REMARK  8 active torsions:
REMARK  status: ('A' for Active; 'I' for Inactive)
REMARK    1  A    between atoms: C_1  and  N_2
REMARK    2  A    between atoms: N_2  and  C_3
REMARK    3  A    between atoms: N_2  and  C_4
REMARK    4  A    between atoms: C_4  and  C_5
REMARK    5  A    between atoms: C_5  and  O_6
REMARK    6  A    between atoms: C_5  and  O_13
REMARK    7  A    between atoms: O_6  and  C_7
REMARK    8  A    between atoms: O_13  and  C_14
REMARK                            x       y       z     vdW  Elec       q    Type
REMARK                         _______ _______ _______ _____ _____    ______ ____
ROOT
ATOM      1  C   UNL     1      -9.301  -1.134 125.646  0.00  0.00    +0.000 C 
ENDROOT
BRANCH   1   2
ATOM      2  C   UNL     1      -9.628   0.445 125.454  0.00  0.00    +0.000 C 
BRANCH   2   4
ATOM      3  C   UNL     1      -9.912   1.065 122.993  0.00  0.00    +0.000 C 
ATOM      4  N   UNL     1      -9.146   1.058 124.223  0.00  0.00    +0.000 NA
ATOM      5  C   UNL     1      -8.775   2.441 124.508  0.00  0.00    +0.000 C 
ENDBRANCH   2   4
ENDBRANCH   1   2
BRANCH   1   6
ATOM      6  O   UNL     1      -9.290  -2.037 124.489  0.00  0.00    +0.000 OA
BRANCH   6   7
ATOM      7  C   UNL     1      -8.178  -2.510 123.809  0.00  0.00    +0.000 A 
ATOM      8  C   UNL     1      -7.463  -3.578 124.393  0.00  0.00    +0.000 A 
ATOM      9  C   UNL     1      -6.087  -3.751 124.120  0.00  0.00    +0.000 A 
ATOM     10  C   UNL     1      -5.389  -2.816 123.379  0.00  0.00    +0.000 A 
ATOM     11  C   UNL     1      -6.128  -1.839 122.718  0.00  0.00    +0.000 A 
ATOM     12  C   UNL     1      -7.534  -1.845 122.789  0.00  0.00    +0.000 A 
ENDBRANCH   6   7
ENDBRANCH   1   6
BRANCH   1  13
ATOM     13  O   UNL     1      -8.002  -1.031 126.348  0.00  0.00    +0.000 OA
BRANCH  13  14
ATOM     14  C   UNL     1      -7.834  -1.519 127.606  0.00  0.00    +0.000 A 
ATOM     15  C   UNL     1      -8.174  -2.860 127.836  0.00  0.00    +0.000 A 
ATOM     16  C   UNL     1      -8.136  -3.387 129.134  0.00  0.00    +0.000 A 
ATOM     17  C   UNL     1      -7.715  -2.591 130.197  0.00  0.00    +0.000 A 
ATOM     18  C   UNL     1      -7.399  -1.256 129.973  0.00  0.00    +0.000 A 
ATOM     19  C   UNL     1      -7.496  -0.721 128.692  0.00  0.00    +0.000 A 
ENDBRANCH  13  14
ENDBRANCH   1  13
TORSDOF 6
ENDMDL
MODEL 9
REMARK VINA RESULT:      -6.4      7.711     10.079
REMARK  Name = Medifoxamine
REMARK  8 active torsions:
REMARK  status: ('A' for Active; 'I' for Inactive)
REMARK    1  A    between atoms: C_1  and  N_2
REMARK    2  A    between atoms: N_2  and  C_3
REMARK    3  A    between atoms: N_2  and  C_4
REMARK    4  A    between atoms: C_4  and  C_5
REMARK    5  A    between atoms: C_5  and  O_6
REMARK    6  A    between atoms: C_5  and  O_13
REMARK    7  A    between atoms: O_6  and  C_7
REMARK    8  A    between atoms: O_13  and  C_14
REMARK                            x       y       z     vdW  Elec       q    Type
REMARK                         _______ _______ _______ _____ _____    ______ ____
ROOT
ATOM      1  C   UNL     1      -7.855  -2.898 127.120  0.00  0.00    +0.000 C 
ENDROOT
BRANCH   1   2
ATOM      2  C   UNL     1      -8.228  -3.477 128.590  0.00  0.00    +0.000 C 
BRANCH   2   4
ATOM      3  C   UNL     1      -5.803  -3.049 129.269  0.00  0.00    +0.000 C 
ATOM      4  N   UNL     1      -7.155  -3.472 129.577  0.00  0.00    +0.000 NA
ATOM      5  C   UNL     1      -7.594  -2.701 130.736  0.00  0.00    +0.000 C 
ENDBRANCH   2   4
ENDBRANCH   1   2
BRANCH   1   6
ATOM      6  O   UNL     1      -8.282  -3.609 125.910  0.00  0.00    +0.000 OA
BRANCH   6   7
ATOM      7  C   UNL     1      -7.835  -3.399 124.614  0.00  0.00    +0.000 A 
ATOM      8  C   UNL     1      -6.441  -3.312 124.412  0.00  0.00    +0.000 A 
ATOM      9  C   UNL     1      -5.920  -2.575 123.324  0.00  0.00    +0.000 A 
ATOM     10  C   UNL     1      -6.753  -1.828 122.513  0.00  0.00    +0.000 A 
ATOM     11  C   UNL     1      -8.125  -2.016 122.653  0.00  0.00    +0.000 A 
ATOM     12  C   UNL     1      -8.620  -2.963 123.570  0.00  0.00    +0.000 A 
ENDBRANCH   6   7
ENDBRANCH   1   6
BRANCH   1  13
ATOM     13  O   UNL     1      -8.411  -1.531 127.248  0.00  0.00    +0.000 OA
BRANCH  13  14
ATOM     14  C   UNL     1      -8.020  -0.526 126.419  0.00  0.00    +0.000 A 
ATOM     15  C   UNL     1      -9.005   0.099 125.642  0.00  0.00    +0.000 A 
ATOM     16  C   UNL     1      -8.649   1.058 124.685  0.00  0.00    +0.000 A 
ATOM     17  C   UNL     1      -7.314   1.429 124.533  0.00  0.00    +0.000 A 
ATOM     18  C   UNL     1      -6.335   0.794 125.288  0.00  0.00    +0.000 A 
ATOM     19  C   UNL     1      -6.688  -0.201 126.195  0.00  0.00    +0.000 A 
ENDBRANCH  13  14
ENDBRANCH   1  13
TORSDOF 6
ENDMDL
