MODEL 1
REMARK VINA RESULT:      -4.7      0.000      0.000
REMARK  Name = Medronic acid
REMARK  6 active torsions:
REMARK  status: ('A' for Active; 'I' for Inactive)
REMARK    1  A    between atoms: O_1  and  P_2
REMARK    2  A    between atoms: P_2  and  O_3
REMARK    3  A    between atoms: P_2  and  C_5
REMARK    4  A    between atoms: C_5  and  P_6
REMARK    5  A    between atoms: P_6  and  O_7
REMARK    6  A    between atoms: P_6  and  O_8
REMARK                            x       y       z     vdW  Elec       q    Type
REMARK                         _______ _______ _______ _____ _____    ______ ____
ROOT
ATOM      1  C   UNL     1     -11.070   6.858 128.433  0.00  0.00    +0.000 C 
ENDROOT
BRANCH   1   2
ATOM      2  P   UNL     1     -10.950   7.477 126.714  0.00  0.00    +0.000 P 
ATOM      3  O   UNL     1      -9.799   6.492 126.479  0.00  0.00    +0.000 OA
BRANCH   2   4
ATOM      4  O   UNL     1     -10.837   8.062 125.090  0.00  0.00    +0.000 OA
ATOM      5  H   UNL     1     -10.585   7.338 124.486  0.00  0.00    +0.000 HD
ENDBRANCH   2   4
BRANCH   2   6
ATOM      6  O   UNL     1     -12.334   6.737 126.265  0.00  0.00    +0.000 OA
ATOM      7  H   UNL     1     -12.104   5.822 126.003  0.00  0.00    +0.000 HD
ENDBRANCH   2   6
ENDBRANCH   1   2
BRANCH   1   8
ATOM      8  P   UNL     1     -12.037   8.041 129.441  0.00  0.00    +0.000 P 
ATOM      9  O   UNL     1     -12.855   9.041 130.294  0.00  0.00    +0.000 OA
BRANCH   8  10
ATOM     10  O   UNL     1     -12.010   9.067 128.155  0.00  0.00    +0.000 OA
ATOM     11  H   UNL     1     -12.845   9.394 127.737  0.00  0.00    +0.000 HD
ENDBRANCH   8  10
BRANCH   8  12
ATOM     12  O   UNL     1     -13.333   7.104 129.050  0.00  0.00    +0.000 OA
ATOM     13  H   UNL     1     -13.735   7.418 128.208  0.00  0.00    +0.000 HD
ENDBRANCH   8  12
ENDBRANCH   1   8
TORSDOF 6
ENDMDL
MODEL 2
REMARK VINA RESULT:      -4.4      1.224      1.657
REMARK  Name = Medronic acid
REMARK  6 active torsions:
REMARK  status: ('A' for Active; 'I' for Inactive)
REMARK    1  A    between atoms: O_1  and  P_2
REMARK    2  A    between atoms: P_2  and  O_3
REMARK    3  A    between atoms: P_2  and  C_5
REMARK    4  A    between atoms: C_5  and  P_6
REMARK    5  A    between atoms: P_6  and  O_7
REMARK    6  A    between atoms: P_6  and  O_8
REMARK                            x       y       z     vdW  Elec       q    Type
REMARK                         _______ _______ _______ _____ _____    ______ ____
ROOT
ATOM      1  C   UNL     1     -11.863   8.428 128.104  0.00  0.00    +0.000 C 
ENDROOT
BRANCH   1   2
ATOM      2  P   UNL     1     -10.744   7.305 127.191  0.00  0.00    +0.000 P 
ATOM      3  O   UNL     1     -10.686   6.411 128.435  0.00  0.00    +0.000 OA
BRANCH   2   4
ATOM      4  O   UNL     1      -9.686   6.243 126.328  0.00  0.00    +0.000 OA
ATOM      5  H   UNL     1      -8.757   6.517 126.449  0.00  0.00    +0.000 HD
ENDBRANCH   2   4
BRANCH   2   6
ATOM      6  O   UNL     1     -11.947   6.749 126.238  0.00  0.00    +0.000 OA
ATOM      7  H   UNL     1     -12.732   6.614 126.808  0.00  0.00    +0.000 HD
ENDBRANCH   2   6
ENDBRANCH   1   2
BRANCH   1   8
ATOM      8  P   UNL     1     -12.394   7.627 129.662  0.00  0.00    +0.000 P 
ATOM      9  O   UNL     1     -12.843   6.949 130.979  0.00  0.00    +0.000 OA
BRANCH   8  10
ATOM     10  O   UNL     1     -12.956   9.093 130.154  0.00  0.00    +0.000 OA
ATOM     11  H   UNL     1     -12.442   9.660 130.781  0.00  0.00    +0.000 HD
ENDBRANCH   8  10
BRANCH   8  12
ATOM     12  O   UNL     1     -13.681   7.090 128.787  0.00  0.00    +0.000 OA
ATOM     13  H   UNL     1     -14.405   6.805 129.391  0.00  0.00    +0.000 HD
ENDBRANCH   8  12
ENDBRANCH   1   8
TORSDOF 6
ENDMDL
MODEL 3
REMARK VINA RESULT:      -4.3      1.233      4.086
REMARK  Name = Medronic acid
REMARK  6 active torsions:
REMARK  status: ('A' for Active; 'I' for Inactive)
REMARK    1  A    between atoms: O_1  and  P_2
REMARK    2  A    between atoms: P_2  and  O_3
REMARK    3  A    between atoms: P_2  and  C_5
REMARK    4  A    between atoms: C_5  and  P_6
REMARK    5  A    between atoms: P_6  and  O_7
REMARK    6  A    between atoms: P_6  and  O_8
REMARK                            x       y       z     vdW  Elec       q    Type
REMARK                         _______ _______ _______ _____ _____    ______ ____
ROOT
ATOM      1  C   UNL     1     -11.876   8.440 128.024  0.00  0.00    +0.000 C 
ENDROOT
BRANCH   1   2
ATOM      2  P   UNL     1     -12.387   7.685 129.611  0.00  0.00    +0.000 P 
ATOM      3  O   UNL     1     -12.847   9.070 130.079  0.00  0.00    +0.000 OA
BRANCH   2   4
ATOM      4  O   UNL     1     -12.871   6.971 131.110  0.00  0.00    +0.000 OA
ATOM      5  H   UNL     1     -13.401   6.167 130.948  0.00  0.00    +0.000 HD
ENDBRANCH   2   4
BRANCH   2   6
ATOM      6  O   UNL     1     -13.673   6.939 128.935  0.00  0.00    +0.000 OA
ATOM      7  H   UNL     1     -14.366   7.618 128.799  0.00  0.00    +0.000 HD
ENDBRANCH   2   6
ENDBRANCH   1   2
BRANCH   1   8
ATOM      8  P   UNL     1     -10.747   7.300 127.142  0.00  0.00    +0.000 P 
ATOM      9  O   UNL     1      -9.793   6.336 126.396  0.00  0.00    +0.000 OA
BRANCH   8  10
ATOM     10  O   UNL     1     -10.724   6.369 128.498  0.00  0.00    +0.000 OA
ATOM     11  H   UNL     1     -11.559   6.061 128.928  0.00  0.00    +0.000 HD
ENDBRANCH   8  10
BRANCH   8  12
ATOM     12  O   UNL     1     -12.109   6.734 126.412  0.00  0.00    +0.000 OA
ATOM     13  H   UNL     1     -12.712   6.337 127.082  0.00  0.00    +0.000 HD
ENDBRANCH   8  12
ENDBRANCH   1   8
TORSDOF 6
ENDMDL
MODEL 4
REMARK VINA RESULT:      -4.1      2.615      4.049
REMARK  Name = Medronic acid
REMARK  6 active torsions:
REMARK  status: ('A' for Active; 'I' for Inactive)
REMARK    1  A    between atoms: O_1  and  P_2
REMARK    2  A    between atoms: P_2  and  O_3
REMARK    3  A    between atoms: P_2  and  C_5
REMARK    4  A    between atoms: C_5  and  P_6
REMARK    5  A    between atoms: P_6  and  O_7
REMARK    6  A    between atoms: P_6  and  O_8
REMARK                            x       y       z     vdW  Elec       q    Type
REMARK                         _______ _______ _______ _____ _____    ______ ____
ROOT
ATOM      1  C   UNL     1     -11.830   7.899 129.923  0.00  0.00    +0.000 C 
ENDROOT
BRANCH   1   2
ATOM      2  P   UNL     1     -11.486   6.188 130.474  0.00  0.00    +0.000 P 
ATOM      3  O   UNL     1     -10.062   6.631 130.834  0.00  0.00    +0.000 OA
BRANCH   2   4
ATOM      4  O   UNL     1     -11.160   4.571 130.994  0.00  0.00    +0.000 OA
ATOM      5  H   UNL     1     -10.213   4.469 131.210  0.00  0.00    +0.000 HD
ENDBRANCH   2   4
BRANCH   2   6
ATOM      6  O   UNL     1     -12.407   6.347 131.812  0.00  0.00    +0.000 OA
ATOM      7  H   UNL     1     -12.963   7.144 131.690  0.00  0.00    +0.000 HD
ENDBRANCH   2   6
ENDBRANCH   1   2
BRANCH   1   8
ATOM      8  P   UNL     1     -11.326   8.091 128.174  0.00  0.00    +0.000 P 
ATOM      9  O   UNL     1     -10.900   8.252 126.695  0.00  0.00    +0.000 OA
BRANCH   8  10
ATOM     10  O   UNL     1      -9.796   8.374 128.708  0.00  0.00    +0.000 OA
ATOM     11  H   UNL     1      -9.459   7.973 129.548  0.00  0.00    +0.000 HD
ENDBRANCH   8  10
BRANCH   8  12
ATOM     12  O   UNL     1     -11.331   6.445 128.135  0.00  0.00    +0.000 OA
ATOM     13  H   UNL     1     -12.147   6.120 127.688  0.00  0.00    +0.000 HD
ENDBRANCH   8  12
ENDBRANCH   1   8
TORSDOF 6
ENDMDL
MODEL 5
REMARK VINA RESULT:      -4.0      1.752      1.955
REMARK  Name = Medronic acid
REMARK  6 active torsions:
REMARK  status: ('A' for Active; 'I' for Inactive)
REMARK    1  A    between atoms: O_1  and  P_2
REMARK    2  A    between atoms: P_2  and  O_3
REMARK    3  A    between atoms: P_2  and  C_5
REMARK    4  A    between atoms: C_5  and  P_6
REMARK    5  A    between atoms: P_6  and  O_7
REMARK    6  A    between atoms: P_6  and  O_8
REMARK                            x       y       z     vdW  Elec       q    Type
REMARK                         _______ _______ _______ _____ _____    ______ ____
ROOT
ATOM      1  C   UNL     1     -12.320   7.748 128.414  0.00  0.00    +0.000 C 
ENDROOT
BRANCH   1   2
ATOM      2  P   UNL     1     -11.421   7.874 126.825  0.00  0.00    +0.000 P 
ATOM      3  O   UNL     1     -10.134   7.490 127.565  0.00  0.00    +0.000 OA
BRANCH   2   4
ATOM      4  O   UNL     1     -10.571   7.992 125.323  0.00  0.00    +0.000 OA
ATOM      5  H   UNL     1     -10.173   8.879 125.228  0.00  0.00    +0.000 HD
ENDBRANCH   2   4
BRANCH   2   6
ATOM      6  O   UNL     1     -12.087   6.500 126.246  0.00  0.00    +0.000 OA
ATOM      7  H   UNL     1     -11.378   6.003 125.787  0.00  0.00    +0.000 HD
ENDBRANCH   2   6
ENDBRANCH   1   2
BRANCH   1   8
ATOM      8  P   UNL     1     -11.172   7.177 129.721  0.00  0.00    +0.000 P 
ATOM      9  O   UNL     1     -10.201   6.695 130.826  0.00  0.00    +0.000 OA
BRANCH   8  10
ATOM     10  O   UNL     1     -12.351   7.510 130.818  0.00  0.00    +0.000 OA
ATOM     11  H   UNL     1     -12.140   7.908 131.699  0.00  0.00    +0.000 HD
ENDBRANCH   8  10
BRANCH   8  12
ATOM     12  O   UNL     1     -11.613   5.661 129.256  0.00  0.00    +0.000 OA
ATOM     13  H   UNL     1     -12.392   5.361 129.779  0.00  0.00    +0.000 HD
ENDBRANCH   8  12
ENDBRANCH   1   8
TORSDOF 6
ENDMDL
MODEL 6
REMARK VINA RESULT:      -4.0      2.267      4.400
REMARK  Name = Medronic acid
REMARK  6 active torsions:
REMARK  status: ('A' for Active; 'I' for Inactive)
REMARK    1  A    between atoms: O_1  and  P_2
REMARK    2  A    between atoms: P_2  and  O_3
REMARK    3  A    between atoms: P_2  and  C_5
REMARK    4  A    between atoms: C_5  and  P_6
REMARK    5  A    between atoms: P_6  and  O_7
REMARK    6  A    between atoms: P_6  and  O_8
REMARK                            x       y       z     vdW  Elec       q    Type
REMARK                         _______ _______ _______ _____ _____    ______ ____
ROOT
ATOM      1  C   UNL     1     -11.900   7.796 129.446  0.00  0.00    +0.000 C 
ENDROOT
BRANCH   1   2
ATOM      2  P   UNL     1     -11.630   6.707 130.892  0.00  0.00    +0.000 P 
ATOM      3  O   UNL     1     -13.050   7.045 131.364  0.00  0.00    +0.000 OA
BRANCH   2   4
ATOM      4  O   UNL     1     -11.376   5.678 132.259  0.00  0.00    +0.000 OA
ATOM      5  H   UNL     1     -12.195   5.195 132.477  0.00  0.00    +0.000 HD
ENDBRANCH   2   4
BRANCH   2   6
ATOM      6  O   UNL     1     -11.719   5.350 129.989  0.00  0.00    +0.000 OA
ATOM      7  H   UNL     1     -12.187   5.582 129.160  0.00  0.00    +0.000 HD
ENDBRANCH   2   6
ENDBRANCH   1   2
BRANCH   1   8
ATOM      8  P   UNL     1     -10.853   7.232 128.054  0.00  0.00    +0.000 P 
ATOM      9  O   UNL     1      -9.968   6.754 126.877  0.00  0.00    +0.000 OA
BRANCH   8  10
ATOM     10  O   UNL     1     -10.819   8.789 127.526  0.00  0.00    +0.000 OA
ATOM     11  H   UNL     1     -10.473   9.521 128.095  0.00  0.00    +0.000 HD
ENDBRANCH   8  10
BRANCH   8  12
ATOM     12  O   UNL     1      -9.623   7.257 129.147  0.00  0.00    +0.000 OA
ATOM     13  H   UNL     1      -8.901   6.654 128.857  0.00  0.00    +0.000 HD
ENDBRANCH   8  12
ENDBRANCH   1   8
TORSDOF 6
ENDMDL
MODEL 7
REMARK VINA RESULT:      -3.8      6.223      7.928
REMARK  Name = Medronic acid
REMARK  6 active torsions:
REMARK  status: ('A' for Active; 'I' for Inactive)
REMARK    1  A    between atoms: O_1  and  P_2
REMARK    2  A    between atoms: P_2  and  O_3
REMARK    3  A    between atoms: P_2  and  C_5
REMARK    4  A    between atoms: C_5  and  P_6
REMARK    5  A    between atoms: P_6  and  O_7
REMARK    6  A    between atoms: P_6  and  O_8
REMARK                            x       y       z     vdW  Elec       q    Type
REMARK                         _______ _______ _______ _____ _____    ______ ____
ROOT
ATOM      1  C   UNL     1      -8.067   1.407 124.098  0.00  0.00    +0.000 C 
ENDROOT
BRANCH   1   2
ATOM      2  P   UNL     1      -8.194   3.164 124.595  0.00  0.00    +0.000 P 
ATOM      3  O   UNL     1      -6.698   3.140 124.928  0.00  0.00    +0.000 OA
BRANCH   2   4
ATOM      4  O   UNL     1      -8.315   4.825 125.064  0.00  0.00    +0.000 OA
ATOM      5  H   UNL     1      -7.428   5.193 125.238  0.00  0.00    +0.000 HD
ENDBRANCH   2   4
BRANCH   2   6
ATOM      6  O   UNL     1      -8.350   3.673 123.052  0.00  0.00    +0.000 OA
ATOM      7  H   UNL     1      -8.418   4.650 123.072  0.00  0.00    +0.000 HD
ENDBRANCH   2   6
ENDBRANCH   1   2
BRANCH   1   8
ATOM      8  P   UNL     1      -9.625   0.887 123.290  0.00  0.00    +0.000 P 
ATOM      9  O   UNL     1     -10.943   0.447 122.607  0.00  0.00    +0.000 OA
BRANCH   8  10
ATOM     10  O   UNL     1      -9.580  -0.473 124.215  0.00  0.00    +0.000 OA
ATOM     11  H   UNL     1     -10.206  -1.224 124.061  0.00  0.00    +0.000 HD
ENDBRANCH   8  10
BRANCH   8  12
ATOM     12  O   UNL     1     -10.354   1.934 124.330  0.00  0.00    +0.000 OA
ATOM     13  H   UNL     1     -10.604   2.761 123.857  0.00  0.00    +0.000 HD
ENDBRANCH   8  12
ENDBRANCH   1   8
TORSDOF 6
ENDMDL
MODEL 8
REMARK VINA RESULT:      -3.8      4.150      5.414
REMARK  Name = Medronic acid
REMARK  6 active torsions:
REMARK  status: ('A' for Active; 'I' for Inactive)
REMARK    1  A    between atoms: O_1  and  P_2
REMARK    2  A    between atoms: P_2  and  O_3
REMARK    3  A    between atoms: P_2  and  C_5
REMARK    4  A    between atoms: C_5  and  P_6
REMARK    5  A    between atoms: P_6  and  O_7
REMARK    6  A    between atoms: P_6  and  O_8
REMARK                            x       y       z     vdW  Elec       q    Type
REMARK                         _______ _______ _______ _____ _____    ______ ____
ROOT
ATOM      1  C   UNL     1      -9.943   6.356 130.955  0.00  0.00    +0.000 C 
ENDROOT
BRANCH   1   2
ATOM      2  P   UNL     1      -9.879   5.238 132.403  0.00  0.00    +0.000 P 
ATOM      3  O   UNL     1      -8.492   4.778 131.939  0.00  0.00    +0.000 OA
BRANCH   2   4
ATOM      4  O   UNL     1      -9.818   4.182 133.771  0.00  0.00    +0.000 OA
ATOM      5  H   UNL     1      -9.244   4.559 134.465  0.00  0.00    +0.000 HD
ENDBRANCH   2   4
BRANCH   2   6
ATOM      6  O   UNL     1      -9.666   6.473 133.449  0.00  0.00    +0.000 OA
ATOM      7  H   UNL     1      -9.390   7.254 132.926  0.00  0.00    +0.000 HD
ENDBRANCH   2   6
ENDBRANCH   1   2
BRANCH   1   8
ATOM      8  P   UNL     1     -11.686   6.775 130.585  0.00  0.00    +0.000 P 
ATOM      9  O   UNL     1     -13.160   7.130 130.273  0.00  0.00    +0.000 OA
BRANCH   8  10
ATOM     10  O   UNL     1     -11.694   5.532 129.508  0.00  0.00    +0.000 OA
ATOM     11  H   UNL     1     -11.082   4.761 129.604  0.00  0.00    +0.000 HD
ENDBRANCH   8  10
BRANCH   8  12
ATOM     12  O   UNL     1     -12.033   5.970 131.978  0.00  0.00    +0.000 OA
ATOM     13  H   UNL     1     -13.003   5.819 132.048  0.00  0.00    +0.000 HD
ENDBRANCH   8  12
ENDBRANCH   1   8
TORSDOF 6
ENDMDL
MODEL 9
REMARK VINA RESULT:      -3.7      3.573      5.075
REMARK  Name = Medronic acid
REMARK  6 active torsions:
REMARK  status: ('A' for Active; 'I' for Inactive)
REMARK    1  A    between atoms: O_1  and  P_2
REMARK    2  A    between atoms: P_2  and  O_3
REMARK    3  A    between atoms: P_2  and  C_5
REMARK    4  A    between atoms: C_5  and  P_6
REMARK    5  A    between atoms: P_6  and  O_7
REMARK    6  A    between atoms: P_6  and  O_8
REMARK                            x       y       z     vdW  Elec       q    Type
REMARK                         _______ _______ _______ _____ _____    ______ ____
ROOT
ATOM      1  C   UNL     1     -10.339   5.200 130.494  0.00  0.00    +0.000 C 
ENDROOT
BRANCH   1   2
ATOM      2  P   UNL     1      -9.737   5.714 132.145  0.00  0.00    +0.000 P 
ATOM      3  O   UNL     1      -9.057   6.917 131.481  0.00  0.00    +0.000 OA
BRANCH   2   4
ATOM      4  O   UNL     1      -9.169   6.200 133.704  0.00  0.00    +0.000 OA
ATOM      5  H   UNL     1      -8.267   6.569 133.637  0.00  0.00    +0.000 HD
ENDBRANCH   2   4
BRANCH   2   6
ATOM      6  O   UNL     1     -11.222   6.190 132.627  0.00  0.00    +0.000 OA
ATOM      7  H   UNL     1     -11.801   6.185 131.837  0.00  0.00    +0.000 HD
ENDBRANCH   2   6
ENDBRANCH   1   2
BRANCH   1   8
ATOM      8  P   UNL     1     -10.198   6.605 129.329  0.00  0.00    +0.000 P 
ATOM      9  O   UNL     1     -10.080   7.793 128.344  0.00  0.00    +0.000 OA
BRANCH   8  10
ATOM     10  O   UNL     1      -9.180   5.678 128.428  0.00  0.00    +0.000 OA
ATOM     11  H   UNL     1      -8.336   6.042 128.064  0.00  0.00    +0.000 HD
ENDBRANCH   8  10
BRANCH   8  12
ATOM     12  O   UNL     1     -11.655   6.097 128.755  0.00  0.00    +0.000 OA
ATOM     13  H   UNL     1     -11.523   5.478 128.000  0.00  0.00    +0.000 HD
ENDBRANCH   8  12
ENDBRANCH   1   8
TORSDOF 6
ENDMDL
