MODEL 1
REMARK VINA RESULT:      -9.1      0.000      0.000
REMARK  Name = Medrysone
REMARK  6 active torsions:
REMARK  status: ('A' for Active; 'I' for Inactive)
REMARK    1  A    between atoms: C_5  and  C_6
REMARK    2  A    between atoms: C_6  and  C_7
REMARK    3  A    between atoms: C_9  and  C_10
REMARK    4  A    between atoms: C_12  and  O_13
REMARK    5  A    between atoms: C_19  and  C_20
REMARK    6  A    between atoms: C_27  and  C_28
REMARK                            x       y       z     vdW  Elec       q    Type
REMARK                         _______ _______ _______ _____ _____    ______ ____
ROOT
ATOM      1  C   UNL     1      -7.332  -1.565 123.421  0.00  0.00    +0.000 C 
ATOM      2  C   UNL     1      -6.017  -1.873 122.972  0.00  0.00    +0.000 C 
ATOM      3  C   UNL     1      -6.035  -1.679 124.452  0.00  0.00    +0.000 C 
ATOM      4  C   UNL     1      -7.939  -1.733 125.259  0.00  0.00    +0.000 C 
ATOM      5  C   UNL     1      -7.180  -2.788 124.834  0.00  0.00    +0.000 C 
ATOM      6  C   UNL     1      -7.516  -4.142 124.363  0.00  0.00    +0.000 C 
ATOM      7  C   UNL     1      -6.436  -2.147 126.481  0.00  0.00    +0.000 C 
ATOM      8  C   UNL     1      -6.670  -0.421 126.698  0.00  0.00    +0.000 C 
ATOM      9  C   UNL     1      -6.444   0.589 125.434  0.00  0.00    +0.000 C 
ATOM     10  C   UNL     1      -7.366   0.181 124.018  0.00  0.00    +0.000 C 
ATOM     11  C   UNL     1      -6.941   1.023 122.849  0.00  0.00    +0.000 C 
ATOM     12  C   UNL     1      -6.942   2.492 123.202  0.00  0.00    +0.000 C 
ATOM     13  C   UNL     1      -6.432   3.228 121.981  0.00  0.00    +0.000 C 
ATOM     14  C   UNL     1      -6.181   2.892 124.447  0.00  0.00    +0.000 C 
ATOM     15  C   UNL     1      -5.394   3.978 124.483  0.00  0.00    +0.000 C 
ATOM     16  C   UNL     1      -5.038   4.440 125.818  0.00  0.00    +0.000 C 
ATOM     17  O   UNL     1      -5.788   4.994 126.618  0.00  0.00    +0.000 OA
ATOM     18  C   UNL     1      -3.875   3.752 126.305  0.00  0.00    +0.000 C 
ATOM     19  C   UNL     1      -4.952   2.473 126.734  0.00  0.00    +0.000 C 
ATOM     20  C   UNL     1      -6.390   2.118 125.739  0.00  0.00    +0.000 C 
ATOM     21  C   UNL     1      -7.826   2.447 126.211  0.00  0.00    +0.000 C 
ENDROOT
BRANCH   4  22
ATOM     22  C   UNL     1      -8.954  -2.679 126.327  0.00  0.00    +0.000 C 
ATOM     23  C   UNL     1      -8.523  -3.265 127.697  0.00  0.00    +0.000 C 
ATOM     24  O   UNL     1     -10.144  -2.850 126.003  0.00  0.00    +0.000 OA
ENDBRANCH   4  22
BRANCH   8  25
ATOM     25  O   UNL     1      -8.001  -0.260 127.242  0.00  0.00    +0.000 OA
ATOM     26  H   UNL     1      -8.145   0.641 127.601  0.00  0.00    +0.000 HD
ENDBRANCH   8  25
TORSDOF 2
ENDMDL
MODEL 2
REMARK VINA RESULT:      -8.6      2.892      5.258
REMARK  Name = Medrysone
REMARK  6 active torsions:
REMARK  status: ('A' for Active; 'I' for Inactive)
REMARK    1  A    between atoms: C_5  and  C_6
REMARK    2  A    between atoms: C_6  and  C_7
REMARK    3  A    between atoms: C_9  and  C_10
REMARK    4  A    between atoms: C_12  and  O_13
REMARK    5  A    between atoms: C_19  and  C_20
REMARK    6  A    between atoms: C_27  and  C_28
REMARK                            x       y       z     vdW  Elec       q    Type
REMARK                         _______ _______ _______ _____ _____    ______ ____
ROOT
ATOM      1  C   UNL     1      -8.305  -3.191 125.879  0.00  0.00    +0.000 C 
ATOM      2  C   UNL     1      -9.700  -3.269 126.155  0.00  0.00    +0.000 C 
ATOM      3  C   UNL     1      -9.307  -1.867 125.827  0.00  0.00    +0.000 C 
ATOM      4  C   UNL     1      -7.448  -1.728 124.929  0.00  0.00    +0.000 C 
ATOM      5  C   UNL     1      -8.624  -2.137 124.361  0.00  0.00    +0.000 C 
ATOM      6  C   UNL     1      -8.937  -2.999 123.209  0.00  0.00    +0.000 C 
ATOM      7  C   UNL     1      -8.712  -0.237 124.609  0.00  0.00    +0.000 C 
ATOM      8  C   UNL     1      -7.794   0.304 126.004  0.00  0.00    +0.000 C 
ATOM      9  C   UNL     1      -7.868  -0.547 127.396  0.00  0.00    +0.000 C 
ATOM     10  C   UNL     1      -7.483  -2.234 127.226  0.00  0.00    +0.000 C 
ATOM     11  C   UNL     1      -7.780  -2.975 128.498  0.00  0.00    +0.000 C 
ATOM     12  C   UNL     1      -7.144  -2.299 129.689  0.00  0.00    +0.000 C 
ATOM     13  C   UNL     1      -7.569  -3.088 130.909  0.00  0.00    +0.000 C 
ATOM     14  C   UNL     1      -7.422  -0.822 129.860  0.00  0.00    +0.000 C 
ATOM     15  C   UNL     1      -7.706  -0.284 131.056  0.00  0.00    +0.000 C 
ATOM     16  C   UNL     1      -7.577   1.165 131.130  0.00  0.00    +0.000 C 
ATOM     17  O   UNL     1      -6.526   1.801 131.128  0.00  0.00    +0.000 OA
ATOM     18  C   UNL     1      -8.789   1.809 130.707  0.00  0.00    +0.000 C 
ATOM     19  C   UNL     1      -8.223   1.563 129.095  0.00  0.00    +0.000 C 
ATOM     20  C   UNL     1      -7.267   0.116 128.674  0.00  0.00    +0.000 C 
ATOM     21  C   UNL     1      -5.751   0.184 128.372  0.00  0.00    +0.000 C 
ENDROOT
BRANCH   4  22
ATOM     22  C   UNL     1      -6.680  -1.287 123.419  0.00  0.00    +0.000 C 
ATOM     23  C   UNL     1      -5.767  -2.208 122.568  0.00  0.00    +0.000 C 
ATOM     24  O   UNL     1      -6.930  -0.165 122.942  0.00  0.00    +0.000 OA
ENDBRANCH   4  22
BRANCH   8  25
ATOM     25  O   UNL     1      -6.424   0.429 125.560  0.00  0.00    +0.000 OA
ATOM     26  H   UNL     1      -6.317   1.142 124.894  0.00  0.00    +0.000 HD
ENDBRANCH   8  25
TORSDOF 2
ENDMDL
MODEL 3
REMARK VINA RESULT:      -8.3      4.029      7.039
REMARK  Name = Medrysone
REMARK  6 active torsions:
REMARK  status: ('A' for Active; 'I' for Inactive)
REMARK    1  A    between atoms: C_5  and  C_6
REMARK    2  A    between atoms: C_6  and  C_7
REMARK    3  A    between atoms: C_9  and  C_10
REMARK    4  A    between atoms: C_12  and  O_13
REMARK    5  A    between atoms: C_19  and  C_20
REMARK    6  A    between atoms: C_27  and  C_28
REMARK                            x       y       z     vdW  Elec       q    Type
REMARK                         _______ _______ _______ _____ _____    ______ ____
ROOT
ATOM      1  C   UNL     1      -5.940  -4.059 131.301  0.00  0.00    +0.000 C 
ATOM      2  C   UNL     1      -5.611  -5.362 130.830  0.00  0.00    +0.000 C 
ATOM      3  C   UNL     1      -4.717  -4.339 130.213  0.00  0.00    +0.000 C 
ATOM      4  C   UNL     1      -4.765  -2.516 131.191  0.00  0.00    +0.000 C 
ATOM      5  C   UNL     1      -4.130  -3.661 131.586  0.00  0.00    +0.000 C 
ATOM      6  C   UNL     1      -3.706  -4.172 132.900  0.00  0.00    +0.000 C 
ATOM      7  C   UNL     1      -3.148  -2.915 130.117  0.00  0.00    +0.000 C 
ATOM      8  C   UNL     1      -4.178  -2.048 128.990  0.00  0.00    +0.000 C 
ATOM      9  C   UNL     1      -5.621  -2.684 128.564  0.00  0.00    +0.000 C 
ATOM     10  C   UNL     1      -6.652  -3.083 129.906  0.00  0.00    +0.000 C 
ATOM     11  C   UNL     1      -7.855  -3.851 129.438  0.00  0.00    +0.000 C 
ATOM     12  C   UNL     1      -8.548  -3.144 128.297  0.00  0.00    +0.000 C 
ATOM     13  C   UNL     1      -9.691  -4.039 127.867  0.00  0.00    +0.000 C 
ATOM     14  C   UNL     1      -7.684  -2.746 127.120  0.00  0.00    +0.000 C 
ATOM     15  C   UNL     1      -8.087  -2.914 125.852  0.00  0.00    +0.000 C 
ATOM     16  C   UNL     1      -7.338  -2.156 124.859  0.00  0.00    +0.000 C 
ATOM     17  O   UNL     1      -7.390  -0.941 124.682  0.00  0.00    +0.000 OA
ATOM     18  C   UNL     1      -6.169  -2.878 124.438  0.00  0.00    +0.000 C 
ATOM     19  C   UNL     1      -5.420  -2.273 125.870  0.00  0.00    +0.000 C 
ATOM     20  C   UNL     1      -6.367  -2.027 127.362  0.00  0.00    +0.000 C 
ATOM     21  C   UNL     1      -6.734  -0.618 127.888  0.00  0.00    +0.000 C 
ENDROOT
BRANCH   4  22
ATOM     22  C   UNL     1      -3.764  -1.437 132.138  0.00  0.00    +0.000 C 
ATOM     23  C   UNL     1      -4.262  -0.515 133.282  0.00  0.00    +0.000 C 
ATOM     24  O   UNL     1      -2.537  -1.446 131.932  0.00  0.00    +0.000 OA
ENDBRANCH   4  22
BRANCH   8  25
ATOM     25  O   UNL     1      -4.352  -0.723 129.542  0.00  0.00    +0.000 OA
ATOM     26  H   UNL     1      -4.631  -0.075 128.860  0.00  0.00    +0.000 HD
ENDBRANCH   8  25
TORSDOF 2
ENDMDL
MODEL 4
REMARK VINA RESULT:      -8.2      1.964      3.124
REMARK  Name = Medrysone
REMARK  6 active torsions:
REMARK  status: ('A' for Active; 'I' for Inactive)
REMARK    1  A    between atoms: C_5  and  C_6
REMARK    2  A    between atoms: C_6  and  C_7
REMARK    3  A    between atoms: C_9  and  C_10
REMARK    4  A    between atoms: C_12  and  O_13
REMARK    5  A    between atoms: C_19  and  C_20
REMARK    6  A    between atoms: C_27  and  C_28
REMARK                            x       y       z     vdW  Elec       q    Type
REMARK                         _______ _______ _______ _____ _____    ______ ____
ROOT
ATOM      1  C   UNL     1      -5.934  -1.508 125.021  0.00  0.00    +0.000 C 
ATOM      2  C   UNL     1      -5.474  -2.127 126.218  0.00  0.00    +0.000 C 
ATOM      3  C   UNL     1      -6.928  -1.803 126.319  0.00  0.00    +0.000 C 
ATOM      4  C   UNL     1      -7.799  -1.380 124.490  0.00  0.00    +0.000 C 
ATOM      5  C   UNL     1      -7.453  -2.606 124.989  0.00  0.00    +0.000 C 
ATOM      6  C   UNL     1      -7.128  -3.894 124.354  0.00  0.00    +0.000 C 
ATOM      7  C   UNL     1      -9.005  -1.994 125.936  0.00  0.00    +0.000 C 
ATOM      8  C   UNL     1      -9.060  -0.245 126.079  0.00  0.00    +0.000 C 
ATOM      9  C   UNL     1      -7.697   0.577 126.444  0.00  0.00    +0.000 C 
ATOM     10  C   UNL     1      -6.358   0.251 125.384  0.00  0.00    +0.000 C 
ATOM     11  C   UNL     1      -5.100   0.877 125.913  0.00  0.00    +0.000 C 
ATOM     12  C   UNL     1      -5.308   2.338 126.237  0.00  0.00    +0.000 C 
ATOM     13  C   UNL     1      -4.005   2.838 126.824  0.00  0.00    +0.000 C 
ATOM     14  C   UNL     1      -6.482   2.675 127.129  0.00  0.00    +0.000 C 
ATOM     15  C   UNL     1      -6.386   3.569 128.125  0.00  0.00    +0.000 C 
ATOM     16  C   UNL     1      -7.657   4.061 128.640  0.00  0.00    +0.000 C 
ATOM     17  O   UNL     1      -8.424   4.830 128.065  0.00  0.00    +0.000 OA
ATOM     18  C   UNL     1      -8.171   3.187 129.658  0.00  0.00    +0.000 C 
ATOM     19  C   UNL     1      -8.758   2.209 128.362  0.00  0.00    +0.000 C 
ATOM     20  C   UNL     1      -7.849   2.081 126.832  0.00  0.00    +0.000 C 
ATOM     21  C   UNL     1      -8.334   2.748 125.522  0.00  0.00    +0.000 C 
ENDROOT
BRANCH   4  22
ATOM     22  C   UNL     1      -8.986  -1.990 123.358  0.00  0.00    +0.000 C 
ATOM     23  C   UNL     1      -9.679  -3.375 123.437  0.00  0.00    +0.000 C 
ATOM     24  O   UNL     1      -9.364  -1.235 122.443  0.00  0.00    +0.000 OA
ENDBRANCH   4  22
BRANCH   8  25
ATOM     25  O   UNL     1      -9.629   0.242 124.841  0.00  0.00    +0.000 OA
ATOM     26  H   UNL     1     -10.563   0.521 124.951  0.00  0.00    +0.000 HD
ENDBRANCH   8  25
TORSDOF 2
ENDMDL
MODEL 5
REMARK VINA RESULT:      -8.0      6.756     10.013
REMARK  Name = Medrysone
REMARK  6 active torsions:
REMARK  status: ('A' for Active; 'I' for Inactive)
REMARK    1  A    between atoms: C_5  and  C_6
REMARK    2  A    between atoms: C_6  and  C_7
REMARK    3  A    between atoms: C_9  and  C_10
REMARK    4  A    between atoms: C_12  and  O_13
REMARK    5  A    between atoms: C_19  and  C_20
REMARK    6  A    between atoms: C_27  and  C_28
REMARK                            x       y       z     vdW  Elec       q    Type
REMARK                         _______ _______ _______ _____ _____    ______ ____
ROOT
ATOM      1  C   UNL     1      -3.677   6.284 132.679  0.00  0.00    +0.000 C 
ATOM      2  C   UNL     1      -3.012   5.283 133.443  0.00  0.00    +0.000 C 
ATOM      3  C   UNL     1      -3.424   4.742 132.115  0.00  0.00    +0.000 C 
ATOM      4  C   UNL     1      -3.930   6.216 130.753  0.00  0.00    +0.000 C 
ATOM      5  C   UNL     1      -2.677   5.842 131.155  0.00  0.00    +0.000 C 
ATOM      6  C   UNL     1      -1.381   6.540 131.186  0.00  0.00    +0.000 C 
ATOM      7  C   UNL     1      -3.370   4.466 130.013  0.00  0.00    +0.000 C 
ATOM      8  C   UNL     1      -5.117   4.321 130.117  0.00  0.00    +0.000 C 
ATOM      9  C   UNL     1      -5.846   4.397 131.577  0.00  0.00    +0.000 C 
ATOM     10  C   UNL     1      -5.453   5.816 132.500  0.00  0.00    +0.000 C 
ATOM     11  C   UNL     1      -5.991   5.703 133.898  0.00  0.00    +0.000 C 
ATOM     12  C   UNL     1      -7.456   5.337 133.895  0.00  0.00    +0.000 C 
ATOM     13  C   UNL     1      -7.864   5.182 135.344  0.00  0.00    +0.000 C 
ATOM     14  C   UNL     1      -7.853   4.129 133.076  0.00  0.00    +0.000 C 
ATOM     15  C   UNL     1      -8.723   3.214 133.531  0.00  0.00    +0.000 C 
ATOM     16  C   UNL     1      -9.286   2.336 132.514  0.00  0.00    +0.000 C 
ATOM     17  O   UNL     1     -10.110   2.650 131.659  0.00  0.00    +0.000 OA
ATOM     18  C   UNL     1      -8.430   1.206 132.282  0.00  0.00    +0.000 C 
ATOM     19  C   UNL     1      -7.512   2.254 131.264  0.00  0.00    +0.000 C 
ATOM     20  C   UNL     1      -7.350   3.989 131.648  0.00  0.00    +0.000 C 
ATOM     21  C   UNL     1      -8.066   5.088 130.828  0.00  0.00    +0.000 C 
ENDROOT
BRANCH   4  22
ATOM     22  C   UNL     1      -3.413   6.925 129.239  0.00  0.00    +0.000 C 
ATOM     23  C   UNL     1      -2.393   6.300 128.251  0.00  0.00    +0.000 C 
ATOM     24  O   UNL     1      -3.948   7.990 128.879  0.00  0.00    +0.000 OA
ENDBRANCH   4  22
BRANCH   8  25
ATOM     25  O   UNL     1      -5.658   5.326 129.228  0.00  0.00    +0.000 OA
ATOM     26  H   UNL     1      -5.078   5.480 128.451  0.00  0.00    +0.000 HD
ENDBRANCH   8  25
TORSDOF 2
ENDMDL
MODEL 6
REMARK VINA RESULT:      -8.0      2.789      5.809
REMARK  Name = Medrysone
REMARK  6 active torsions:
REMARK  status: ('A' for Active; 'I' for Inactive)
REMARK    1  A    between atoms: C_5  and  C_6
REMARK    2  A    between atoms: C_6  and  C_7
REMARK    3  A    between atoms: C_9  and  C_10
REMARK    4  A    between atoms: C_12  and  O_13
REMARK    5  A    between atoms: C_19  and  C_20
REMARK    6  A    between atoms: C_27  and  C_28
REMARK                            x       y       z     vdW  Elec       q    Type
REMARK                         _______ _______ _______ _____ _____    ______ ____
ROOT
ATOM      1  C   UNL     1      -7.698   1.050 126.140  0.00  0.00    +0.000 C 
ATOM      2  C   UNL     1      -6.527   1.841 126.311  0.00  0.00    +0.000 C 
ATOM      3  C   UNL     1      -6.165   0.438 125.952  0.00  0.00    +0.000 C 
ATOM      4  C   UNL     1      -7.756  -0.647 125.194  0.00  0.00    +0.000 C 
ATOM      5  C   UNL     1      -7.017   0.311 124.557  0.00  0.00    +0.000 C 
ATOM      6  C   UNL     1      -7.298   1.209 123.424  0.00  0.00    +0.000 C 
ATOM      7  C   UNL     1      -5.937  -1.266 124.712  0.00  0.00    +0.000 C 
ATOM      8  C   UNL     1      -6.315  -2.202 126.148  0.00  0.00    +0.000 C 
ATOM      9  C   UNL     1      -6.569  -1.434 127.567  0.00  0.00    +0.000 C 
ATOM     10  C   UNL     1      -7.783  -0.192 127.502  0.00  0.00    +0.000 C 
ATOM     11  C   UNL     1      -7.801   0.598 128.779  0.00  0.00    +0.000 C 
ATOM     12  C   UNL     1      -7.887  -0.308 129.984  0.00  0.00    +0.000 C 
ATOM     13  C   UNL     1      -7.824   0.589 131.202  0.00  0.00    +0.000 C 
ATOM     14  C   UNL     1      -6.871  -1.426 130.068  0.00  0.00    +0.000 C 
ATOM     15  C   UNL     1      -6.246  -1.736 131.213  0.00  0.00    +0.000 C 
ATOM     16  C   UNL     1      -5.600  -3.041 131.232  0.00  0.00    +0.000 C 
ATOM     17  O   UNL     1      -6.165  -4.131 131.283  0.00  0.00    +0.000 OA
ATOM     18  C   UNL     1      -4.272  -2.964 130.689  0.00  0.00    +0.000 C 
ATOM     19  C   UNL     1      -5.025  -3.051 129.138  0.00  0.00    +0.000 C 
ATOM     20  C   UNL     1      -6.623  -2.310 128.857  0.00  0.00    +0.000 C 
ATOM     21  C   UNL     1      -7.906  -3.155 128.669  0.00  0.00    +0.000 C 
ENDROOT
BRANCH   4  22
ATOM     22  C   UNL     1      -8.316  -1.425 123.730  0.00  0.00    +0.000 C 
ATOM     23  C   UNL     1      -7.415  -1.912 122.565  0.00  0.00    +0.000 C 
ATOM     24  O   UNL     1      -9.532  -1.673 123.629  0.00  0.00    +0.000 OA
ENDBRANCH   4  22
BRANCH   8  25
ATOM     25  O   UNL     1      -7.457  -3.022 125.805  0.00  0.00    +0.000 OA
ATOM     26  H   UNL     1      -7.669  -3.670 126.511  0.00  0.00    +0.000 HD
ENDBRANCH   8  25
TORSDOF 2
ENDMDL
MODEL 7
REMARK VINA RESULT:      -7.9      4.465      7.215
REMARK  Name = Medrysone
REMARK  6 active torsions:
REMARK  status: ('A' for Active; 'I' for Inactive)
REMARK    1  A    between atoms: C_5  and  C_6
REMARK    2  A    between atoms: C_6  and  C_7
REMARK    3  A    between atoms: C_9  and  C_10
REMARK    4  A    between atoms: C_12  and  O_13
REMARK    5  A    between atoms: C_19  and  C_20
REMARK    6  A    between atoms: C_27  and  C_28
REMARK                            x       y       z     vdW  Elec       q    Type
REMARK                         _______ _______ _______ _____ _____    ______ ____
ROOT
ATOM      1  C   UNL     1      -7.556  -3.643 128.502  0.00  0.00    +0.000 C 
ATOM      2  C   UNL     1      -8.652  -3.382 129.373  0.00  0.00    +0.000 C 
ATOM      3  C   UNL     1      -7.868  -2.136 129.127  0.00  0.00    +0.000 C 
ATOM      4  C   UNL     1      -6.588  -2.283 127.508  0.00  0.00    +0.000 C 
ATOM      5  C   UNL     1      -7.945  -2.114 127.489  0.00  0.00    +0.000 C 
ATOM      6  C   UNL     1      -8.982  -2.423 126.491  0.00  0.00    +0.000 C 
ATOM      7  C   UNL     1      -7.147  -0.460 128.046  0.00  0.00    +0.000 C 
ATOM      8  C   UNL     1      -5.648  -0.699 128.927  0.00  0.00    +0.000 C 
ATOM      9  C   UNL     1      -5.550  -1.888 130.043  0.00  0.00    +0.000 C 
ATOM     10  C   UNL     1      -5.984  -3.464 129.451  0.00  0.00    +0.000 C 
ATOM     11  C   UNL     1      -6.071  -4.448 130.582  0.00  0.00    +0.000 C 
ATOM     12  C   UNL     1      -4.826  -4.415 131.436  0.00  0.00    +0.000 C 
ATOM     13  C   UNL     1      -5.059  -5.387 132.573  0.00  0.00    +0.000 C 
ATOM     14  C   UNL     1      -4.389  -3.060 131.947  0.00  0.00    +0.000 C 
ATOM     15  C   UNL     1      -3.967  -2.876 133.207  0.00  0.00    +0.000 C 
ATOM     16  C   UNL     1      -3.237  -1.637 133.440  0.00  0.00    +0.000 C 
ATOM     17  O   UNL     1      -2.099  -1.382 133.055  0.00  0.00    +0.000 OA
ATOM     18  C   UNL     1      -4.139  -0.558 133.731  0.00  0.00    +0.000 C 
ATOM     19  C   UNL     1      -4.357  -0.432 132.023  0.00  0.00    +0.000 C 
ATOM     20  C   UNL     1      -4.308  -1.884 130.988  0.00  0.00    +0.000 C 
ATOM     21  C   UNL     1      -3.125  -2.182 130.036  0.00  0.00    +0.000 C 
ENDROOT
BRANCH   4  22
ATOM     22  C   UNL     1      -6.318  -1.634 125.905  0.00  0.00    +0.000 C 
ATOM     23  C   UNL     1      -5.991  -2.466 124.638  0.00  0.00    +0.000 C 
ATOM     24  O   UNL     1      -6.460  -0.408 125.739  0.00  0.00    +0.000 OA
ENDBRANCH   4  22
BRANCH   8  25
ATOM     25  O   UNL     1      -4.615  -0.857 127.928  0.00  0.00    +0.000 OA
ATOM     26  H   UNL     1      -3.856  -0.255 128.085  0.00  0.00    +0.000 HD
ENDBRANCH   8  25
TORSDOF 2
ENDMDL
MODEL 8
REMARK VINA RESULT:      -7.9      3.927      6.806
REMARK  Name = Medrysone
REMARK  6 active torsions:
REMARK  status: ('A' for Active; 'I' for Inactive)
REMARK    1  A    between atoms: C_5  and  C_6
REMARK    2  A    between atoms: C_6  and  C_7
REMARK    3  A    between atoms: C_9  and  C_10
REMARK    4  A    between atoms: C_12  and  O_13
REMARK    5  A    between atoms: C_19  and  C_20
REMARK    6  A    between atoms: C_27  and  C_28
REMARK                            x       y       z     vdW  Elec       q    Type
REMARK                         _______ _______ _______ _____ _____    ______ ____
ROOT
ATOM      1  C   UNL     1      -6.683  -0.480 131.570  0.00  0.00    +0.000 C 
ATOM      2  C   UNL     1      -8.024  -0.608 132.032  0.00  0.00    +0.000 C 
ATOM      3  C   UNL     1      -7.544  -1.896 131.451  0.00  0.00    +0.000 C 
ATOM      4  C   UNL     1      -5.488  -1.972 131.222  0.00  0.00    +0.000 C 
ATOM      5  C   UNL     1      -6.207  -2.103 132.378  0.00  0.00    +0.000 C 
ATOM      6  C   UNL     1      -5.878  -1.879 133.796  0.00  0.00    +0.000 C 
ATOM      7  C   UNL     1      -6.441  -3.704 131.349  0.00  0.00    +0.000 C 
ATOM      8  C   UNL     1      -6.366  -3.410 129.620  0.00  0.00    +0.000 C 
ATOM      9  C   UNL     1      -7.121  -2.104 128.991  0.00  0.00    +0.000 C 
ATOM     10  C   UNL     1      -6.674  -0.595 129.728  0.00  0.00    +0.000 C 
ATOM     11  C   UNL     1      -7.562   0.515 129.242  0.00  0.00    +0.000 C 
ATOM     12  C   UNL     1      -7.628   0.543 127.733  0.00  0.00    +0.000 C 
ATOM     13  C   UNL     1      -8.600   1.645 127.366  0.00  0.00    +0.000 C 
ATOM     14  C   UNL     1      -7.980  -0.757 127.044  0.00  0.00    +0.000 C 
ATOM     15  C   UNL     1      -8.840  -0.808 126.015  0.00  0.00    +0.000 C 
ATOM     16  C   UNL     1      -8.791  -2.032 125.228  0.00  0.00    +0.000 C 
ATOM     17  O   UNL     1      -7.895  -2.363 124.455  0.00  0.00    +0.000 OA
ATOM     18  C   UNL     1      -9.633  -3.045 125.802  0.00  0.00    +0.000 C 
ATOM     19  C   UNL     1      -8.323  -3.359 126.882  0.00  0.00    +0.000 C 
ATOM     20  C   UNL     1      -7.262  -2.037 127.439  0.00  0.00    +0.000 C 
ATOM     21  C   UNL     1      -5.803  -1.883 126.946  0.00  0.00    +0.000 C 
ENDROOT
BRANCH   4  22
ATOM     22  C   UNL     1      -4.069  -2.808 131.814  0.00  0.00    +0.000 C 
ATOM     23  C   UNL     1      -4.056  -4.215 132.465  0.00  0.00    +0.000 C 
ATOM     24  O   UNL     1      -2.960  -2.267 131.646  0.00  0.00    +0.000 OA
ENDBRANCH   4  22
BRANCH   8  25
ATOM     25  O   UNL     1      -4.962  -3.397 129.274  0.00  0.00    +0.000 OA
ATOM     26  H   UNL     1      -4.595  -4.304 129.193  0.00  0.00    +0.000 HD
ENDBRANCH   8  25
TORSDOF 2
ENDMDL
MODEL 9
REMARK VINA RESULT:      -7.8      2.984      5.969
REMARK  Name = Medrysone
REMARK  6 active torsions:
REMARK  status: ('A' for Active; 'I' for Inactive)
REMARK    1  A    between atoms: C_5  and  C_6
REMARK    2  A    between atoms: C_6  and  C_7
REMARK    3  A    between atoms: C_9  and  C_10
REMARK    4  A    between atoms: C_12  and  O_13
REMARK    5  A    between atoms: C_19  and  C_20
REMARK    6  A    between atoms: C_27  and  C_28
REMARK                            x       y       z     vdW  Elec       q    Type
REMARK                         _______ _______ _______ _____ _____    ______ ____
ROOT
ATOM      1  C   UNL     1      -7.343  -2.678 130.020  0.00  0.00    +0.000 C 
ATOM      2  C   UNL     1      -6.916  -4.034 129.937  0.00  0.00    +0.000 C 
ATOM      3  C   UNL     1      -5.842  -3.115 129.458  0.00  0.00    +0.000 C 
ATOM      4  C   UNL     1      -6.152  -1.143 130.003  0.00  0.00    +0.000 C 
ATOM      5  C   UNL     1      -5.711  -2.169 130.792  0.00  0.00    +0.000 C 
ATOM      6  C   UNL     1      -5.748  -2.408 132.245  0.00  0.00    +0.000 C 
ATOM      7  C   UNL     1      -4.288  -1.680 129.604  0.00  0.00    +0.000 C 
ATOM      8  C   UNL     1      -4.874  -1.079 128.062  0.00  0.00    +0.000 C 
ATOM      9  C   UNL     1      -6.120  -1.834 127.324  0.00  0.00    +0.000 C 
ATOM     10  C   UNL     1      -7.539  -2.009 128.312  0.00  0.00    +0.000 C 
ATOM     11  C   UNL     1      -8.548  -2.893 127.637  0.00  0.00    +0.000 C 
ATOM     12  C   UNL     1      -8.815  -2.439 126.221  0.00  0.00    +0.000 C 
ATOM     13  C   UNL     1      -9.783  -3.439 125.625  0.00  0.00    +0.000 C 
ATOM     14  C   UNL     1      -7.608  -2.240 125.332  0.00  0.00    +0.000 C 
ATOM     15  C   UNL     1      -7.585  -2.659 124.058  0.00  0.00    +0.000 C 
ATOM     16  C   UNL     1      -6.534  -2.076 123.234  0.00  0.00    +0.000 C 
ATOM     17  O   UNL     1      -6.492  -0.920 122.822  0.00  0.00    +0.000 OA
ATOM     18  C   UNL     1      -5.313  -2.823 123.357  0.00  0.00    +0.000 C 
ATOM     19  C   UNL     1      -5.049  -1.932 124.812  0.00  0.00    +0.000 C 
ATOM     20  C   UNL     1      -6.419  -1.442 125.843  0.00  0.00    +0.000 C 
ATOM     21  C   UNL     1      -6.896   0.026 125.945  0.00  0.00    +0.000 C 
ENDROOT
BRANCH   4  22
ATOM     22  C   UNL     1      -5.481   0.130 130.999  0.00  0.00    +0.000 C 
ATOM     23  C   UNL     1      -4.028   0.182 131.540  0.00  0.00    +0.000 C 
ATOM     24  O   UNL     1      -6.198   1.117 131.249  0.00  0.00    +0.000 OA
ENDBRANCH   4  22
BRANCH   8  25
ATOM     25  O   UNL     1      -5.180   0.320 128.266  0.00  0.00    +0.000 OA
ATOM     26  H   UNL     1      -6.069   0.555 127.925  0.00  0.00    +0.000 HD
ENDBRANCH   8  25
TORSDOF 2
ENDMDL
