MODEL 1
REMARK VINA RESULT:      -9.2      0.000      0.000
REMARK  Name = Medrogestone
REMARK  6 active torsions:
REMARK  status: ('A' for Active; 'I' for Inactive)
REMARK    1  A    between atoms: C_5  and  C_6
REMARK    2  A    between atoms: C_5  and  C_7
REMARK    3  A    between atoms: C_7  and  C_8
REMARK    4  A    between atoms: C_10  and  C_11
REMARK    5  A    between atoms: C_19  and  C_20
REMARK    6  A    between atoms: C_27  and  C_28
REMARK                            x       y       z     vdW  Elec       q    Type
REMARK                         _______ _______ _______ _____ _____    ______ ____
ROOT
ATOM      1  C   UNL     1      -6.002  -3.875 131.240  0.00  0.00    +0.000 C 
ATOM      2  C   UNL     1      -5.719  -5.191 130.789  0.00  0.00    +0.000 C 
ATOM      3  C   UNL     1      -4.870  -4.099 130.262  0.00  0.00    +0.000 C 
ATOM      4  C   UNL     1      -4.961  -2.290 131.333  0.00  0.00    +0.000 C 
ATOM      5  C   UNL     1      -5.844  -2.039 132.802  0.00  0.00    +0.000 C 
ATOM      6  C   UNL     1      -4.162  -3.411 131.453  0.00  0.00    +0.000 C 
ATOM      7  C   UNL     1      -3.598  -4.032 132.673  0.00  0.00    +0.000 C 
ATOM      8  C   UNL     1      -3.341  -2.659 129.909  0.00  0.00    +0.000 C 
ATOM      9  C   UNL     1      -4.421  -1.871 128.889  0.00  0.00    +0.000 C 
ATOM     10  C   UNL     1      -5.820  -2.545 128.516  0.00  0.00    +0.000 C 
ATOM     11  C   UNL     1      -6.771  -2.878 129.919  0.00  0.00    +0.000 C 
ATOM     12  C   UNL     1      -8.035  -3.544 129.566  0.00  0.00    +0.000 C 
ATOM     13  C   UNL     1      -8.511  -3.599 128.319  0.00  0.00    +0.000 C 
ATOM     14  C   UNL     1      -9.822  -4.281 128.120  0.00  0.00    +0.000 C 
ATOM     15  C   UNL     1      -7.916  -2.890 127.187  0.00  0.00    +0.000 C 
ATOM     16  C   UNL     1      -8.416  -3.008 125.948  0.00  0.00    +0.000 C 
ATOM     17  C   UNL     1      -7.871  -2.047 124.989  0.00  0.00    +0.000 C 
ATOM     18  O   UNL     1      -8.083  -0.838 124.979  0.00  0.00    +0.000 OA
ATOM     19  C   UNL     1      -6.665  -2.534 124.370  0.00  0.00    +0.000 C 
ATOM     20  C   UNL     1      -5.834  -2.041 125.797  0.00  0.00    +0.000 C 
ATOM     21  C   UNL     1      -6.691  -1.977 127.358  0.00  0.00    +0.000 C 
ATOM     22  C   UNL     1      -7.175  -0.625 127.935  0.00  0.00    +0.000 C 
ENDROOT
BRANCH   4  23
ATOM     23  C   UNL     1      -3.783  -1.135 131.921  0.00  0.00    +0.000 C 
ATOM     24  C   UNL     1      -2.719  -1.381 133.015  0.00  0.00    +0.000 C 
ATOM     25  O   UNL     1      -3.825   0.045 131.520  0.00  0.00    +0.000 OA
ENDBRANCH   4  23
TORSDOF 1
ENDMDL
MODEL 2
REMARK VINA RESULT:      -9.0      3.817      6.828
REMARK  Name = Medrogestone
REMARK  6 active torsions:
REMARK  status: ('A' for Active; 'I' for Inactive)
REMARK    1  A    between atoms: C_5  and  C_6
REMARK    2  A    between atoms: C_5  and  C_7
REMARK    3  A    between atoms: C_7  and  C_8
REMARK    4  A    between atoms: C_10  and  C_11
REMARK    5  A    between atoms: C_19  and  C_20
REMARK    6  A    between atoms: C_27  and  C_28
REMARK                            x       y       z     vdW  Elec       q    Type
REMARK                         _______ _______ _______ _____ _____    ______ ____
ROOT
ATOM      1  C   UNL     1      -7.495  -1.206 124.112  0.00  0.00    +0.000 C 
ATOM      2  C   UNL     1      -6.439  -1.462 123.198  0.00  0.00    +0.000 C 
ATOM      3  C   UNL     1      -6.110  -1.511 124.641  0.00  0.00    +0.000 C 
ATOM      4  C   UNL     1      -7.761  -1.660 125.937  0.00  0.00    +0.000 C 
ATOM      5  C   UNL     1      -9.411  -1.837 125.441  0.00  0.00    +0.000 C 
ATOM      6  C   UNL     1      -6.978  -2.606 125.304  0.00  0.00    +0.000 C 
ATOM      7  C   UNL     1      -7.363  -3.930 124.763  0.00  0.00    +0.000 C 
ATOM      8  C   UNL     1      -5.740  -2.092 126.655  0.00  0.00    +0.000 C 
ATOM      9  C   UNL     1      -5.827  -0.463 127.065  0.00  0.00    +0.000 C 
ATOM     10  C   UNL     1      -5.919   0.652 125.924  0.00  0.00    +0.000 C 
ATOM     11  C   UNL     1      -7.296   0.425 124.907  0.00  0.00    +0.000 C 
ATOM     12  C   UNL     1      -7.341   1.429 123.831  0.00  0.00    +0.000 C 
ATOM     13  C   UNL     1      -6.597   2.538 123.833  0.00  0.00    +0.000 C 
ATOM     14  C   UNL     1      -6.775   3.479 122.690  0.00  0.00    +0.000 C 
ATOM     15  C   UNL     1      -5.762   2.958 124.957  0.00  0.00    +0.000 C 
ATOM     16  C   UNL     1      -5.007   4.066 124.892  0.00  0.00    +0.000 C 
ATOM     17  C   UNL     1      -4.438   4.479 126.174  0.00  0.00    +0.000 C 
ATOM     18  O   UNL     1      -5.063   4.938 127.126  0.00  0.00    +0.000 OA
ATOM     19  C   UNL     1      -3.176   3.835 126.432  0.00  0.00    +0.000 C 
ATOM     20  C   UNL     1      -4.079   2.454 126.933  0.00  0.00    +0.000 C 
ATOM     21  C   UNL     1      -5.705   2.155 126.267  0.00  0.00    +0.000 C 
ATOM     22  C   UNL     1      -6.968   2.494 127.095  0.00  0.00    +0.000 C 
ENDROOT
BRANCH   4  23
ATOM     23  C   UNL     1      -8.149  -2.624 127.346  0.00  0.00    +0.000 C 
ATOM     24  C   UNL     1      -8.820  -4.017 127.352  0.00  0.00    +0.000 C 
ATOM     25  O   UNL     1      -7.977  -2.146 128.485  0.00  0.00    +0.000 OA
ENDBRANCH   4  23
TORSDOF 1
ENDMDL
MODEL 3
REMARK VINA RESULT:      -8.6      2.652      6.560
REMARK  Name = Medrogestone
REMARK  6 active torsions:
REMARK  status: ('A' for Active; 'I' for Inactive)
REMARK    1  A    between atoms: C_5  and  C_6
REMARK    2  A    between atoms: C_5  and  C_7
REMARK    3  A    between atoms: C_7  and  C_8
REMARK    4  A    between atoms: C_10  and  C_11
REMARK    5  A    between atoms: C_19  and  C_20
REMARK    6  A    between atoms: C_27  and  C_28
REMARK                            x       y       z     vdW  Elec       q    Type
REMARK                         _______ _______ _______ _____ _____    ______ ____
ROOT
ATOM      1  C   UNL     1      -8.102  -3.124 126.184  0.00  0.00    +0.000 C 
ATOM      2  C   UNL     1      -9.442  -3.438 126.537  0.00  0.00    +0.000 C 
ATOM      3  C   UNL     1      -9.185  -2.083 125.998  0.00  0.00    +0.000 C 
ATOM      4  C   UNL     1      -7.345  -1.841 125.007  0.00  0.00    +0.000 C 
ATOM      5  C   UNL     1      -6.202  -3.105 124.693  0.00  0.00    +0.000 C 
ATOM      6  C   UNL     1      -8.599  -2.225 124.573  0.00  0.00    +0.000 C 
ATOM      7  C   UNL     1      -8.968  -3.197 123.519  0.00  0.00    +0.000 C 
ATOM      8  C   UNL     1      -8.939  -0.363 124.768  0.00  0.00    +0.000 C 
ATOM      9  C   UNL     1      -8.109   0.344 126.047  0.00  0.00    +0.000 C 
ATOM     10  C   UNL     1      -8.058  -0.375 127.473  0.00  0.00    +0.000 C 
ATOM     11  C   UNL     1      -7.366  -1.954 127.376  0.00  0.00    +0.000 C 
ATOM     12  C   UNL     1      -7.370  -2.624 128.687  0.00  0.00    +0.000 C 
ATOM     13  C   UNL     1      -7.591  -1.983 129.837  0.00  0.00    +0.000 C 
ATOM     14  C   UNL     1      -7.532  -2.790 131.089  0.00  0.00    +0.000 C 
ATOM     15  C   UNL     1      -7.713  -0.530 129.950  0.00  0.00    +0.000 C 
ATOM     16  C   UNL     1      -7.969   0.060 131.127  0.00  0.00    +0.000 C 
ATOM     17  C   UNL     1      -7.807   1.514 131.116  0.00  0.00    +0.000 C 
ATOM     18  O   UNL     1      -6.743   2.121 131.022  0.00  0.00    +0.000 OA
ATOM     19  C   UNL     1      -9.014   2.183 130.705  0.00  0.00    +0.000 C 
ATOM     20  C   UNL     1      -8.566   1.817 129.082  0.00  0.00    +0.000 C 
ATOM     21  C   UNL     1      -7.554   0.393 128.730  0.00  0.00    +0.000 C 
ATOM     22  C   UNL     1      -6.042   0.553 128.442  0.00  0.00    +0.000 C 
ENDROOT
BRANCH   4  23
ATOM     23  C   UNL     1      -6.830  -1.094 123.510  0.00  0.00    +0.000 C 
ATOM     24  C   UNL     1      -6.384  -1.823 122.222  0.00  0.00    +0.000 C 
ATOM     25  O   UNL     1      -6.701   0.146 123.454  0.00  0.00    +0.000 OA
ENDBRANCH   4  23
TORSDOF 1
ENDMDL
MODEL 4
REMARK VINA RESULT:      -8.1      2.048      4.128
REMARK  Name = Medrogestone
REMARK  6 active torsions:
REMARK  status: ('A' for Active; 'I' for Inactive)
REMARK    1  A    between atoms: C_5  and  C_6
REMARK    2  A    between atoms: C_5  and  C_7
REMARK    3  A    between atoms: C_7  and  C_8
REMARK    4  A    between atoms: C_10  and  C_11
REMARK    5  A    between atoms: C_19  and  C_20
REMARK    6  A    between atoms: C_27  and  C_28
REMARK                            x       y       z     vdW  Elec       q    Type
REMARK                         _______ _______ _______ _____ _____    ______ ____
ROOT
ATOM      1  C   UNL     1      -6.704  -0.039 129.589  0.00  0.00    +0.000 C 
ATOM      2  C   UNL     1      -7.921   0.693 129.611  0.00  0.00    +0.000 C 
ATOM      3  C   UNL     1      -8.010  -0.762 129.346  0.00  0.00    +0.000 C 
ATOM      4  C   UNL     1      -6.297  -1.876 129.845  0.00  0.00    +0.000 C 
ATOM      5  C   UNL     1      -4.882  -1.244 130.621  0.00  0.00    +0.000 C 
ATOM      6  C   UNL     1      -7.422  -1.518 130.561  0.00  0.00    +0.000 C 
ATOM      7  C   UNL     1      -7.552  -1.192 132.000  0.00  0.00    +0.000 C 
ATOM      8  C   UNL     1      -8.208  -2.877 129.486  0.00  0.00    +0.000 C 
ATOM      9  C   UNL     1      -7.564  -2.967 127.935  0.00  0.00    +0.000 C 
ATOM     10  C   UNL     1      -7.322  -1.637 127.083  0.00  0.00    +0.000 C 
ATOM     11  C   UNL     1      -6.265  -0.536 127.889  0.00  0.00    +0.000 C 
ATOM     12  C   UNL     1      -6.091   0.705 127.116  0.00  0.00    +0.000 C 
ATOM     13  C   UNL     1      -6.450   0.827 125.836  0.00  0.00    +0.000 C 
ATOM     14  C   UNL     1      -6.181   2.137 125.175  0.00  0.00    +0.000 C 
ATOM     15  C   UNL     1      -6.924  -0.284 125.012  0.00  0.00    +0.000 C 
ATOM     16  C   UNL     1      -7.305  -0.098 123.740  0.00  0.00    +0.000 C 
ATOM     17  C   UNL     1      -7.505  -1.336 122.987  0.00  0.00    +0.000 C 
ATOM     18  O   UNL     1      -6.624  -2.114 122.629  0.00  0.00    +0.000 OA
ATOM     19  C   UNL     1      -8.844  -1.844 123.140  0.00  0.00    +0.000 C 
ATOM     20  C   UNL     1      -8.337  -2.490 124.655  0.00  0.00    +0.000 C 
ATOM     21  C   UNL     1      -7.010  -1.718 125.560  0.00  0.00    +0.000 C 
ATOM     22  C   UNL     1      -5.586  -2.326 125.542  0.00  0.00    +0.000 C 
ENDROOT
BRANCH   4  23
ATOM     23  C   UNL     1      -5.997  -3.388 130.676  0.00  0.00    +0.000 C 
ATOM     24  C   UNL     1      -6.272  -3.689 132.167  0.00  0.00    +0.000 C 
ATOM     25  O   UNL     1      -5.417  -4.315 130.077  0.00  0.00    +0.000 OA
ENDBRANCH   4  23
TORSDOF 1
ENDMDL
MODEL 5
REMARK VINA RESULT:      -7.9      3.178      5.114
REMARK  Name = Medrogestone
REMARK  6 active torsions:
REMARK  status: ('A' for Active; 'I' for Inactive)
REMARK    1  A    between atoms: C_5  and  C_6
REMARK    2  A    between atoms: C_5  and  C_7
REMARK    3  A    between atoms: C_7  and  C_8
REMARK    4  A    between atoms: C_10  and  C_11
REMARK    5  A    between atoms: C_19  and  C_20
REMARK    6  A    between atoms: C_27  and  C_28
REMARK                            x       y       z     vdW  Elec       q    Type
REMARK                         _______ _______ _______ _____ _____    ______ ____
ROOT
ATOM      1  C   UNL     1      -6.018   1.265 129.063  0.00  0.00    +0.000 C 
ATOM      2  C   UNL     1      -4.860   0.465 129.251  0.00  0.00    +0.000 C 
ATOM      3  C   UNL     1      -5.099   0.999 127.891  0.00  0.00    +0.000 C 
ATOM      4  C   UNL     1      -6.484   2.578 127.774  0.00  0.00    +0.000 C 
ATOM      5  C   UNL     1      -7.251   3.341 129.127  0.00  0.00    +0.000 C 
ATOM      6  C   UNL     1      -5.117   2.545 127.968  0.00  0.00    +0.000 C 
ATOM      7  C   UNL     1      -4.266   3.436 128.788  0.00  0.00    +0.000 C 
ATOM      8  C   UNL     1      -5.134   2.157 126.105  0.00  0.00    +0.000 C 
ATOM      9  C   UNL     1      -6.454   1.236 125.620  0.00  0.00    +0.000 C 
ATOM     10  C   UNL     1      -6.904  -0.041 126.469  0.00  0.00    +0.000 C 
ATOM     11  C   UNL     1      -7.286   0.370 128.102  0.00  0.00    +0.000 C 
ATOM     12  C   UNL     1      -7.650  -0.822 128.886  0.00  0.00    +0.000 C 
ATOM     13  C   UNL     1      -7.943  -2.001 128.332  0.00  0.00    +0.000 C 
ATOM     14  C   UNL     1      -8.325  -3.109 129.253  0.00  0.00    +0.000 C 
ATOM     15  C   UNL     1      -8.076  -2.215 126.891  0.00  0.00    +0.000 C 
ATOM     16  C   UNL     1      -8.338  -3.430 126.387  0.00  0.00    +0.000 C 
ATOM     17  C   UNL     1      -8.689  -3.425 124.967  0.00  0.00    +0.000 C 
ATOM     18  O   UNL     1      -9.726  -2.980 124.482  0.00  0.00    +0.000 OA
ATOM     19  C   UNL     1      -7.523  -3.511 124.127  0.00  0.00    +0.000 C 
ATOM     20  C   UNL     1      -7.312  -1.820 124.391  0.00  0.00    +0.000 C 
ATOM     21  C   UNL     1      -7.922  -1.063 125.885  0.00  0.00    +0.000 C 
ATOM     22  C   UNL     1      -9.241  -0.254 125.874  0.00  0.00    +0.000 C 
ENDROOT
BRANCH   4  23
ATOM     23  C   UNL     1      -6.537   4.126 126.956  0.00  0.00    +0.000 C 
ATOM     24  C   UNL     1      -7.532   4.550 125.851  0.00  0.00    +0.000 C 
ATOM     25  O   UNL     1      -5.647   4.970 127.180  0.00  0.00    +0.000 OA
ENDBRANCH   4  23
TORSDOF 1
ENDMDL
MODEL 6
REMARK VINA RESULT:      -7.8      4.952      6.579
REMARK  Name = Medrogestone
REMARK  6 active torsions:
REMARK  status: ('A' for Active; 'I' for Inactive)
REMARK    1  A    between atoms: C_5  and  C_6
REMARK    2  A    between atoms: C_5  and  C_7
REMARK    3  A    between atoms: C_7  and  C_8
REMARK    4  A    between atoms: C_10  and  C_11
REMARK    5  A    between atoms: C_19  and  C_20
REMARK    6  A    between atoms: C_27  and  C_28
REMARK                            x       y       z     vdW  Elec       q    Type
REMARK                         _______ _______ _______ _____ _____    ______ ____
ROOT
ATOM      1  C   UNL     1      -3.657   2.600 127.340  0.00  0.00    +0.000 C 
ATOM      2  C   UNL     1      -2.901   2.699 126.142  0.00  0.00    +0.000 C 
ATOM      3  C   UNL     1      -4.017   3.656 126.317  0.00  0.00    +0.000 C 
ATOM      4  C   UNL     1      -4.751   3.834 128.281  0.00  0.00    +0.000 C 
ATOM      5  C   UNL     1      -4.086   3.048 129.674  0.00  0.00    +0.000 C 
ATOM      6  C   UNL     1      -3.751   4.491 127.592  0.00  0.00    +0.000 C 
ATOM      7  C   UNL     1      -2.462   5.022 128.093  0.00  0.00    +0.000 C 
ATOM      8  C   UNL     1      -5.244   5.336 126.769  0.00  0.00    +0.000 C 
ATOM      9  C   UNL     1      -6.574   4.324 126.584  0.00  0.00    +0.000 C 
ATOM     10  C   UNL     1      -6.386   2.838 126.028  0.00  0.00    +0.000 C 
ATOM     11  C   UNL     1      -5.315   1.909 127.016  0.00  0.00    +0.000 C 
ATOM     12  C   UNL     1      -5.112   0.559 126.465  0.00  0.00    +0.000 C 
ATOM     13  C   UNL     1      -5.887   0.031 125.516  0.00  0.00    +0.000 C 
ATOM     14  C   UNL     1      -5.578  -1.362 125.081  0.00  0.00    +0.000 C 
ATOM     15  C   UNL     1      -7.105   0.664 125.011  0.00  0.00    +0.000 C 
ATOM     16  C   UNL     1      -7.828   0.104 124.030  0.00  0.00    +0.000 C 
ATOM     17  C   UNL     1      -9.136   0.725 123.821  0.00  0.00    +0.000 C 
ATOM     18  O   UNL     1     -10.094   0.665 124.587  0.00  0.00    +0.000 OA
ATOM     19  C   UNL     1      -9.061   1.835 122.906  0.00  0.00    +0.000 C 
ATOM     20  C   UNL     1      -8.486   2.778 124.230  0.00  0.00    +0.000 C 
ATOM     21  C   UNL     1      -7.616   1.999 125.576  0.00  0.00    +0.000 C 
ATOM     22  C   UNL     1      -8.336   1.710 126.916  0.00  0.00    +0.000 C 
ENDROOT
BRANCH   4  23
ATOM     23  C   UNL     1      -5.192   5.169 129.325  0.00  0.00    +0.000 C 
ATOM     24  C   UNL     1      -4.222   6.134 130.044  0.00  0.00    +0.000 C 
ATOM     25  O   UNL     1      -6.389   5.343 129.629  0.00  0.00    +0.000 OA
ENDBRANCH   4  23
TORSDOF 1
ENDMDL
MODEL 7
REMARK VINA RESULT:      -7.8      2.004      6.443
REMARK  Name = Medrogestone
REMARK  6 active torsions:
REMARK  status: ('A' for Active; 'I' for Inactive)
REMARK    1  A    between atoms: C_5  and  C_6
REMARK    2  A    between atoms: C_5  and  C_7
REMARK    3  A    between atoms: C_7  and  C_8
REMARK    4  A    between atoms: C_10  and  C_11
REMARK    5  A    between atoms: C_19  and  C_20
REMARK    6  A    between atoms: C_27  and  C_28
REMARK                            x       y       z     vdW  Elec       q    Type
REMARK                         _______ _______ _______ _____ _____    ______ ____
ROOT
ATOM      1  C   UNL     1      -8.480  -2.335 125.856  0.00  0.00    +0.000 C 
ATOM      2  C   UNL     1      -9.373  -1.264 126.126  0.00  0.00    +0.000 C 
ATOM      3  C   UNL     1      -7.993  -0.909 125.722  0.00  0.00    +0.000 C 
ATOM      4  C   UNL     1      -6.887  -2.460 124.832  0.00  0.00    +0.000 C 
ATOM      5  C   UNL     1      -7.498  -4.036 124.450  0.00  0.00    +0.000 C 
ATOM      6  C   UNL     1      -7.728  -1.494 124.315  0.00  0.00    +0.000 C 
ATOM      7  C   UNL     1      -8.654  -1.577 123.163  0.00  0.00    +0.000 C 
ATOM      8  C   UNL     1      -6.223  -0.383 124.663  0.00  0.00    +0.000 C 
ATOM      9  C   UNL     1      -5.357  -0.830 126.034  0.00  0.00    +0.000 C 
ATOM     10  C   UNL     1      -6.121  -1.191 127.389  0.00  0.00    +0.000 C 
ATOM     11  C   UNL     1      -7.231  -2.497 127.177  0.00  0.00    +0.000 C 
ATOM     12  C   UNL     1      -7.964  -2.787 128.421  0.00  0.00    +0.000 C 
ATOM     13  C   UNL     1      -7.597  -2.315 129.614  0.00  0.00    +0.000 C 
ATOM     14  C   UNL     1      -8.420  -2.721 130.790  0.00  0.00    +0.000 C 
ATOM     15  C   UNL     1      -6.357  -1.577 129.854  0.00  0.00    +0.000 C 
ATOM     16  C   UNL     1      -6.054  -1.095 131.068  0.00  0.00    +0.000 C 
ATOM     17  C   UNL     1      -4.679  -0.613 131.195  0.00  0.00    +0.000 C 
ATOM     18  O   UNL     1      -3.667  -1.310 131.199  0.00  0.00    +0.000 OA
ATOM     19  C   UNL     1      -4.557   0.766 130.799  0.00  0.00    +0.000 C 
ATOM     20  C   UNL     1      -4.533   0.209 129.168  0.00  0.00    +0.000 C 
ATOM     21  C   UNL     1      -5.340  -1.318 128.730  0.00  0.00    +0.000 C 
ATOM     22  C   UNL     1      -4.517  -2.612 128.518  0.00  0.00    +0.000 C 
ENDROOT
BRANCH   4  23
ATOM     23  C   UNL     1      -5.846  -2.596 123.429  0.00  0.00    +0.000 C 
ATOM     24  C   UNL     1      -4.468  -3.294 123.369  0.00  0.00    +0.000 C 
ATOM     25  O   UNL     1      -6.156  -2.008 122.375  0.00  0.00    +0.000 OA
ENDBRANCH   4  23
TORSDOF 1
ENDMDL
MODEL 8
REMARK VINA RESULT:      -7.8      2.028      6.785
REMARK  Name = Medrogestone
REMARK  6 active torsions:
REMARK  status: ('A' for Active; 'I' for Inactive)
REMARK    1  A    between atoms: C_5  and  C_6
REMARK    2  A    between atoms: C_5  and  C_7
REMARK    3  A    between atoms: C_7  and  C_8
REMARK    4  A    between atoms: C_10  and  C_11
REMARK    5  A    between atoms: C_19  and  C_20
REMARK    6  A    between atoms: C_27  and  C_28
REMARK                            x       y       z     vdW  Elec       q    Type
REMARK                         _______ _______ _______ _____ _____    ______ ____
ROOT
ATOM      1  C   UNL     1      -7.412   0.733 126.011  0.00  0.00    +0.000 C 
ATOM      2  C   UNL     1      -6.251   1.551 126.050  0.00  0.00    +0.000 C 
ATOM      3  C   UNL     1      -6.068   0.137 125.653  0.00  0.00    +0.000 C 
ATOM      4  C   UNL     1      -7.825  -0.878 125.095  0.00  0.00    +0.000 C 
ATOM      5  C   UNL     1      -9.397  -0.162 124.966  0.00  0.00    +0.000 C 
ATOM      6  C   UNL     1      -6.910  -0.128 124.382  0.00  0.00    +0.000 C 
ATOM      7  C   UNL     1      -7.132   0.764 123.222  0.00  0.00    +0.000 C 
ATOM      8  C   UNL     1      -5.860  -1.701 124.598  0.00  0.00    +0.000 C 
ATOM      9  C   UNL     1      -6.117  -2.487 126.062  0.00  0.00    +0.000 C 
ATOM     10  C   UNL     1      -6.180  -1.655 127.425  0.00  0.00    +0.000 C 
ATOM     11  C   UNL     1      -7.424  -0.458 127.394  0.00  0.00    +0.000 C 
ATOM     12  C   UNL     1      -7.438   0.334 128.635  0.00  0.00    +0.000 C 
ATOM     13  C   UNL     1      -6.789  -0.030 129.744  0.00  0.00    +0.000 C 
ATOM     14  C   UNL     1      -6.924   0.858 130.934  0.00  0.00    +0.000 C 
ATOM     15  C   UNL     1      -6.108  -1.313 129.906  0.00  0.00    +0.000 C 
ATOM     16  C   UNL     1      -5.440  -1.613 131.030  0.00  0.00    +0.000 C 
ATOM     17  C   UNL     1      -5.039  -3.016 131.132  0.00  0.00    +0.000 C 
ATOM     18  O   UNL     1      -5.791  -3.972 131.302  0.00  0.00    +0.000 OA
ATOM     19  C   UNL     1      -3.762  -3.254 130.509  0.00  0.00    +0.000 C 
ATOM     20  C   UNL     1      -4.600  -3.288 129.002  0.00  0.00    +0.000 C 
ATOM     21  C   UNL     1      -6.121  -2.382 128.800  0.00  0.00    +0.000 C 
ATOM     22  C   UNL     1      -7.485  -3.112 128.853  0.00  0.00    +0.000 C 
ENDROOT
BRANCH   4  23
ATOM     23  C   UNL     1      -8.277  -1.949 123.785  0.00  0.00    +0.000 C 
ATOM     24  C   UNL     1      -9.040  -3.287 123.912  0.00  0.00    +0.000 C 
ATOM     25  O   UNL     1      -7.886  -1.703 122.627  0.00  0.00    +0.000 OA
ENDBRANCH   4  23
TORSDOF 1
ENDMDL
MODEL 9
REMARK VINA RESULT:      -7.7      6.330      8.300
REMARK  Name = Medrogestone
REMARK  6 active torsions:
REMARK  status: ('A' for Active; 'I' for Inactive)
REMARK    1  A    between atoms: C_5  and  C_6
REMARK    2  A    between atoms: C_5  and  C_7
REMARK    3  A    between atoms: C_7  and  C_8
REMARK    4  A    between atoms: C_10  and  C_11
REMARK    5  A    between atoms: C_19  and  C_20
REMARK    6  A    between atoms: C_27  and  C_28
REMARK                            x       y       z     vdW  Elec       q    Type
REMARK                         _______ _______ _______ _____ _____    ______ ____
ROOT
ATOM      1  C   UNL     1      -2.480   6.293 129.724  0.00  0.00    +0.000 C 
ATOM      2  C   UNL     1      -2.904   7.174 128.694  0.00  0.00    +0.000 C 
ATOM      3  C   UNL     1      -3.954   6.597 129.564  0.00  0.00    +0.000 C 
ATOM      4  C   UNL     1      -3.268   5.752 131.364  0.00  0.00    +0.000 C 
ATOM      5  C   UNL     1      -1.630   5.786 131.927  0.00  0.00    +0.000 C 
ATOM      6  C   UNL     1      -3.672   7.028 131.023  0.00  0.00    +0.000 C 
ATOM      7  C   UNL     1      -3.176   8.332 131.519  0.00  0.00    +0.000 C 
ATOM      8  C   UNL     1      -5.389   6.209 131.088  0.00  0.00    +0.000 C 
ATOM      9  C   UNL     1      -5.392   4.607 130.576  0.00  0.00    +0.000 C 
ATOM     10  C   UNL     1      -4.610   4.182 129.250  0.00  0.00    +0.000 C 
ATOM     11  C   UNL     1      -2.929   4.567 129.339  0.00  0.00    +0.000 C 
ATOM     12  C   UNL     1      -2.230   4.215 128.091  0.00  0.00    +0.000 C 
ATOM     13  C   UNL     1      -2.760   3.428 127.152  0.00  0.00    +0.000 C 
ATOM     14  C   UNL     1      -1.919   3.134 125.956  0.00  0.00    +0.000 C 
ATOM     15  C   UNL     1      -4.026   2.712 127.306  0.00  0.00    +0.000 C 
ATOM     16  C   UNL     1      -4.530   1.961 126.316  0.00  0.00    +0.000 C 
ATOM     17  C   UNL     1      -5.656   1.118 126.716  0.00  0.00    +0.000 C 
ATOM     18  O   UNL     1      -5.598   0.138 127.454  0.00  0.00    +0.000 OA
ATOM     19  C   UNL     1      -6.912   1.815 126.603  0.00  0.00    +0.000 C 
ATOM     20  C   UNL     1      -6.539   2.559 128.113  0.00  0.00    +0.000 C 
ATOM     21  C   UNL     1      -4.842   2.783 128.608  0.00  0.00    +0.000 C 
ATOM     22  C   UNL     1      -4.190   1.828 129.637  0.00  0.00    +0.000 C 
ENDROOT
BRANCH   4  23
ATOM     23  C   UNL     1      -3.776   5.818 133.039  0.00  0.00    +0.000 C 
ATOM     24  C   UNL     1      -3.540   6.982 134.028  0.00  0.00    +0.000 C 
ATOM     25  O   UNL     1      -4.298   4.814 133.563  0.00  0.00    +0.000 OA
ENDBRANCH   4  23
TORSDOF 1
ENDMDL
