MODEL 1
REMARK VINA RESULT:      -9.5      0.000      0.000
REMARK  Name = Medroxyprogesterone acetate
REMARK  8 active torsions:
REMARK  status: ('A' for Active; 'I' for Inactive)
REMARK    1  A    between atoms: C_5  and  O_6
REMARK    2  A    between atoms: C_5  and  C_10
REMARK    3  A    between atoms: O_6  and  C_7
REMARK    4  A    between atoms: C_7  and  C_8
REMARK    5  A    between atoms: C_10  and  C_11
REMARK    6  A    between atoms: C_13  and  C_14
REMARK    7  A    between atoms: C_22  and  C_23
REMARK    8  A    between atoms: C_30  and  C_31
REMARK                            x       y       z     vdW  Elec       q    Type
REMARK                         _______ _______ _______ _____ _____    ______ ____
ROOT
ATOM      1  C   UNL     1      -5.802  -3.901 131.246  0.00  0.00    +0.000 C 
ATOM      2  C   UNL     1      -5.398  -5.213 130.885  0.00  0.00    +0.000 C 
ATOM      3  C   UNL     1      -4.679  -4.061 130.322  0.00  0.00    +0.000 C 
ATOM      4  C   UNL     1      -5.044  -2.244 131.298  0.00  0.00    +0.000 C 
ATOM      5  C   UNL     1      -4.083  -3.214 131.557  0.00  0.00    +0.000 C 
ATOM      6  C   UNL     1      -3.630  -3.675 132.905  0.00  0.00    +0.000 C 
ATOM      7  C   UNL     1      -3.260  -2.457 130.052  0.00  0.00    +0.000 C 
ATOM      8  C   UNL     1      -4.361  -1.817 128.928  0.00  0.00    +0.000 C 
ATOM      9  C   UNL     1      -5.696  -2.627 128.469  0.00  0.00    +0.000 C 
ATOM     10  C   UNL     1      -6.622  -3.055 129.762  0.00  0.00    +0.000 C 
ATOM     11  C   UNL     1      -7.823  -3.893 129.387  0.00  0.00    +0.000 C 
ATOM     12  C   UNL     1      -8.653  -3.232 128.324  0.00  0.00    +0.000 C 
ATOM     13  C   UNL     1      -9.766  -4.211 127.991  0.00  0.00    +0.000 C 
ATOM     14  C   UNL     1      -7.854  -2.800 127.128  0.00  0.00    +0.000 C 
ATOM     15  C   UNL     1      -8.293  -3.052 125.888  0.00  0.00    +0.000 C 
ATOM     16  C   UNL     1      -7.613  -2.288 124.861  0.00  0.00    +0.000 C 
ATOM     17  O   UNL     1      -7.781  -1.095 124.632  0.00  0.00    +0.000 OA
ATOM     18  C   UNL     1      -6.377  -2.928 124.487  0.00  0.00    +0.000 C 
ATOM     19  C   UNL     1      -5.650  -2.204 125.833  0.00  0.00    +0.000 C 
ATOM     20  C   UNL     1      -6.561  -2.001 127.318  0.00  0.00    +0.000 C 
ATOM     21  C   UNL     1      -6.995  -0.592 127.844  0.00  0.00    +0.000 C 
ENDROOT
BRANCH   4  22
ATOM     22  C   UNL     1      -4.096  -0.948 131.994  0.00  0.00    +0.000 C 
ATOM     23  C   UNL     1      -2.974  -1.110 133.089  0.00  0.00    +0.000 C 
ATOM     24  O   UNL     1      -4.317   0.230 131.650  0.00  0.00    +0.000 OA
ENDBRANCH   4  22
BRANCH   4  25
ATOM     25  O   UNL     1      -5.904  -2.144 132.764  0.00  0.00    +0.000 OA
BRANCH  25  26
ATOM     26  C   UNL     1      -7.118  -1.656 133.236  0.00  0.00    +0.000 C 
ATOM     27  C   UNL     1      -8.029  -2.685 133.780  0.00  0.00    +0.000 C 
ATOM     28  O   UNL     1      -7.379  -0.473 133.364  0.00  0.00    +0.000 OA
ENDBRANCH  25  26
ENDBRANCH   4  25
TORSDOF 3
ENDMDL
MODEL 2
REMARK VINA RESULT:      -8.6      3.006      4.365
REMARK  Name = Medroxyprogesterone acetate
REMARK  8 active torsions:
REMARK  status: ('A' for Active; 'I' for Inactive)
REMARK    1  A    between atoms: C_5  and  O_6
REMARK    2  A    between atoms: C_5  and  C_10
REMARK    3  A    between atoms: O_6  and  C_7
REMARK    4  A    between atoms: C_7  and  C_8
REMARK    5  A    between atoms: C_10  and  C_11
REMARK    6  A    between atoms: C_13  and  C_14
REMARK    7  A    between atoms: C_22  and  C_23
REMARK    8  A    between atoms: C_30  and  C_31
REMARK                            x       y       z     vdW  Elec       q    Type
REMARK                         _______ _______ _______ _____ _____    ______ ____
ROOT
ATOM      1  C   UNL     1      -6.313   0.182 129.394  0.00  0.00    +0.000 C 
ATOM      2  C   UNL     1      -5.064  -0.486 129.298  0.00  0.00    +0.000 C 
ATOM      3  C   UNL     1      -5.449   0.469 128.249  0.00  0.00    +0.000 C 
ATOM      4  C   UNL     1      -7.049   1.723 128.755  0.00  0.00    +0.000 C 
ATOM      5  C   UNL     1      -5.685   1.896 128.958  0.00  0.00    +0.000 C 
ATOM      6  C   UNL     1      -5.037   2.482 130.171  0.00  0.00    +0.000 C 
ATOM      7  C   UNL     1      -5.708   2.294 127.126  0.00  0.00    +0.000 C 
ATOM      8  C   UNL     1      -6.919   1.468 126.269  0.00  0.00    +0.000 C 
ATOM      9  C   UNL     1      -7.201  -0.121 126.485  0.00  0.00    +0.000 C 
ATOM     10  C   UNL     1      -7.493  -0.476 128.067  0.00  0.00    +0.000 C 
ATOM     11  C   UNL     1      -7.663  -1.956 128.325  0.00  0.00    +0.000 C 
ATOM     12  C   UNL     1      -8.712  -2.559 127.433  0.00  0.00    +0.000 C 
ATOM     13  C   UNL     1      -8.719  -4.047 127.742  0.00  0.00    +0.000 C 
ATOM     14  C   UNL     1      -8.507  -2.248 125.979  0.00  0.00    +0.000 C 
ATOM     15  C   UNL     1      -8.612  -3.210 125.054  0.00  0.00    +0.000 C 
ATOM     16  C   UNL     1      -8.733  -2.708 123.700  0.00  0.00    +0.000 C 
ATOM     17  O   UNL     1      -9.738  -2.195 123.218  0.00  0.00    +0.000 OA
ATOM     18  C   UNL     1      -7.435  -2.409 123.150  0.00  0.00    +0.000 C 
ATOM     19  C   UNL     1      -7.492  -0.921 123.954  0.00  0.00    +0.000 C 
ATOM     20  C   UNL     1      -8.245  -0.805 125.534  0.00  0.00    +0.000 C 
ATOM     21  C   UNL     1      -9.587  -0.030 125.764  0.00  0.00    +0.000 C 
ENDROOT
BRANCH   4  22
ATOM     22  C   UNL     1      -7.387   3.440 128.743  0.00  0.00    +0.000 C 
ATOM     23  C   UNL     1      -6.602   4.542 129.551  0.00  0.00    +0.000 C 
ATOM     24  O   UNL     1      -8.349   3.873 128.077  0.00  0.00    +0.000 OA
ENDBRANCH   4  22
BRANCH   4  25
ATOM     25  O   UNL     1      -7.692   1.802 130.330  0.00  0.00    +0.000 OA
BRANCH  25  26
ATOM     26  C   UNL     1      -8.913   1.638 130.973  0.00  0.00    +0.000 C 
ATOM     27  C   UNL     1      -9.070   0.352 131.686  0.00  0.00    +0.000 C 
ATOM     28  O   UNL     1      -9.745   2.520 131.104  0.00  0.00    +0.000 OA
ENDBRANCH  25  26
ENDBRANCH   4  25
TORSDOF 3
ENDMDL
MODEL 3
REMARK VINA RESULT:      -8.4      1.946      4.141
REMARK  Name = Medroxyprogesterone acetate
REMARK  8 active torsions:
REMARK  status: ('A' for Active; 'I' for Inactive)
REMARK    1  A    between atoms: C_5  and  O_6
REMARK    2  A    between atoms: C_5  and  C_10
REMARK    3  A    between atoms: O_6  and  C_7
REMARK    4  A    between atoms: C_7  and  C_8
REMARK    5  A    between atoms: C_10  and  C_11
REMARK    6  A    between atoms: C_13  and  C_14
REMARK    7  A    between atoms: C_22  and  C_23
REMARK    8  A    between atoms: C_30  and  C_31
REMARK                            x       y       z     vdW  Elec       q    Type
REMARK                         _______ _______ _______ _____ _____    ______ ____
ROOT
ATOM      1  C   UNL     1      -6.652  -0.299 130.234  0.00  0.00    +0.000 C 
ATOM      2  C   UNL     1      -7.797   0.535 130.329  0.00  0.00    +0.000 C 
ATOM      3  C   UNL     1      -7.956  -0.850 129.863  0.00  0.00    +0.000 C 
ATOM      4  C   UNL     1      -6.309  -2.090 130.235  0.00  0.00    +0.000 C 
ATOM      5  C   UNL     1      -7.414  -1.818 131.032  0.00  0.00    +0.000 C 
ATOM      6  C   UNL     1      -7.411  -1.620 132.514  0.00  0.00    +0.000 C 
ATOM      7  C   UNL     1      -8.262  -2.986 129.836  0.00  0.00    +0.000 C 
ATOM      8  C   UNL     1      -7.600  -2.954 128.273  0.00  0.00    +0.000 C 
ATOM      9  C   UNL     1      -7.248  -1.558 127.513  0.00  0.00    +0.000 C 
ATOM     10  C   UNL     1      -6.241  -0.614 128.412  0.00  0.00    +0.000 C 
ATOM     11  C   UNL     1      -5.966   0.734 127.784  0.00  0.00    +0.000 C 
ATOM     12  C   UNL     1      -5.464   0.599 126.374  0.00  0.00    +0.000 C 
ATOM     13  C   UNL     1      -5.309   2.016 125.847  0.00  0.00    +0.000 C 
ATOM     14  C   UNL     1      -6.334  -0.271 125.514  0.00  0.00    +0.000 C 
ATOM     15  C   UNL     1      -6.678   0.117 124.280  0.00  0.00    +0.000 C 
ATOM     16  C   UNL     1      -7.213  -0.951 123.459  0.00  0.00    +0.000 C 
ATOM     17  O   UNL     1      -6.557  -1.852 122.946  0.00  0.00    +0.000 OA
ATOM     18  C   UNL     1      -8.617  -1.141 123.723  0.00  0.00    +0.000 C 
ATOM     19  C   UNL     1      -8.189  -2.074 125.068  0.00  0.00    +0.000 C 
ATOM     20  C   UNL     1      -6.777  -1.649 126.018  0.00  0.00    +0.000 C 
ATOM     21  C   UNL     1      -5.488  -2.537 126.041  0.00  0.00    +0.000 C 
ENDROOT
BRANCH   4  22
ATOM     22  C   UNL     1      -6.019  -3.655 130.963  0.00  0.00    +0.000 C 
ATOM     23  C   UNL     1      -6.280  -4.035 132.470  0.00  0.00    +0.000 C 
ATOM     24  O   UNL     1      -5.529  -4.573 130.274  0.00  0.00    +0.000 OA
ENDBRANCH   4  22
BRANCH   4  25
ATOM     25  O   UNL     1      -4.997  -1.608 131.208  0.00  0.00    +0.000 OA
BRANCH  25  26
ATOM     26  C   UNL     1      -3.611  -1.719 131.229  0.00  0.00    +0.000 C 
ATOM     27  C   UNL     1      -2.988  -1.451 132.542  0.00  0.00    +0.000 C 
ATOM     28  O   UNL     1      -2.944  -2.163 130.310  0.00  0.00    +0.000 OA
ENDBRANCH  25  26
ENDBRANCH   4  25
TORSDOF 3
ENDMDL
MODEL 4
REMARK VINA RESULT:      -8.4      5.510      9.025
REMARK  Name = Medroxyprogesterone acetate
REMARK  8 active torsions:
REMARK  status: ('A' for Active; 'I' for Inactive)
REMARK    1  A    between atoms: C_5  and  O_6
REMARK    2  A    between atoms: C_5  and  C_10
REMARK    3  A    between atoms: O_6  and  C_7
REMARK    4  A    between atoms: C_7  and  C_8
REMARK    5  A    between atoms: C_10  and  C_11
REMARK    6  A    between atoms: C_13  and  C_14
REMARK    7  A    between atoms: C_22  and  C_23
REMARK    8  A    between atoms: C_30  and  C_31
REMARK                            x       y       z     vdW  Elec       q    Type
REMARK                         _______ _______ _______ _____ _____    ______ ____
ROOT
ATOM      1  C   UNL     1      -5.235   2.906 128.053  0.00  0.00    +0.000 C 
ATOM      2  C   UNL     1      -4.486   2.120 128.968  0.00  0.00    +0.000 C 
ATOM      3  C   UNL     1      -5.931   1.883 128.834  0.00  0.00    +0.000 C 
ATOM      4  C   UNL     1      -6.802   2.746 127.136  0.00  0.00    +0.000 C 
ATOM      5  C   UNL     1      -6.216   1.496 127.296  0.00  0.00    +0.000 C 
ATOM      6  C   UNL     1      -5.342   0.794 126.307  0.00  0.00    +0.000 C 
ATOM      7  C   UNL     1      -7.833   1.115 128.164  0.00  0.00    +0.000 C 
ATOM      8  C   UNL     1      -8.526   2.464 128.928  0.00  0.00    +0.000 C 
ATOM      9  C   UNL     1      -7.646   3.487 129.840  0.00  0.00    +0.000 C 
ATOM     10  C   UNL     1      -6.362   4.094 129.006  0.00  0.00    +0.000 C 
ATOM     11  C   UNL     1      -5.465   4.973 129.846  0.00  0.00    +0.000 C 
ATOM     12  C   UNL     1      -6.236   6.070 130.524  0.00  0.00    +0.000 C 
ATOM     13  C   UNL     1      -5.233   6.816 131.387  0.00  0.00    +0.000 C 
ATOM     14  C   UNL     1      -7.433   5.575 131.282  0.00  0.00    +0.000 C 
ATOM     15  C   UNL     1      -7.683   6.014 132.522  0.00  0.00    +0.000 C 
ATOM     16  C   UNL     1      -9.027   5.725 132.984  0.00  0.00    +0.000 C 
ATOM     17  O   UNL     1     -10.045   6.304 132.619  0.00  0.00    +0.000 OA
ATOM     18  C   UNL     1      -9.107   4.386 133.510  0.00  0.00    +0.000 C 
ATOM     19  C   UNL     1      -9.282   3.825 131.923  0.00  0.00    +0.000 C 
ATOM     20  C   UNL     1      -8.420   4.612 130.614  0.00  0.00    +0.000 C 
ATOM     21  C   UNL     1      -9.157   5.444 129.511  0.00  0.00    +0.000 C 
ENDROOT
BRANCH   4  22
ATOM     22  C   UNL     1      -7.829   2.228 125.816  0.00  0.00    +0.000 C 
ATOM     23  C   UNL     1      -7.488   1.101 124.768  0.00  0.00    +0.000 C 
ATOM     24  O   UNL     1      -8.923   2.797 125.627  0.00  0.00    +0.000 OA
ENDBRANCH   4  22
BRANCH   4  25
ATOM     25  O   UNL     1      -5.882   3.453 125.889  0.00  0.00    +0.000 OA
BRANCH  25  26
ATOM     26  C   UNL     1      -5.905   4.586 125.084  0.00  0.00    +0.000 C 
ATOM     27  C   UNL     1      -5.574   4.343 123.664  0.00  0.00    +0.000 C 
ATOM     28  O   UNL     1      -6.320   5.675 125.441  0.00  0.00    +0.000 OA
ENDBRANCH  25  26
ENDBRANCH   4  25
TORSDOF 3
ENDMDL
MODEL 5
REMARK VINA RESULT:      -8.3      6.472      9.648
REMARK  Name = Medroxyprogesterone acetate
REMARK  8 active torsions:
REMARK  status: ('A' for Active; 'I' for Inactive)
REMARK    1  A    between atoms: C_5  and  O_6
REMARK    2  A    between atoms: C_5  and  C_10
REMARK    3  A    between atoms: O_6  and  C_7
REMARK    4  A    between atoms: C_7  and  C_8
REMARK    5  A    between atoms: C_10  and  C_11
REMARK    6  A    between atoms: C_13  and  C_14
REMARK    7  A    between atoms: C_22  and  C_23
REMARK    8  A    between atoms: C_30  and  C_31
REMARK                            x       y       z     vdW  Elec       q    Type
REMARK                         _______ _______ _______ _____ _____    ______ ____
ROOT
ATOM      1  C   UNL     1      -7.292   4.609 129.913  0.00  0.00    +0.000 C 
ATOM      2  C   UNL     1      -6.632   4.108 128.760  0.00  0.00    +0.000 C 
ATOM      3  C   UNL     1      -6.423   3.440 130.053  0.00  0.00    +0.000 C 
ATOM      4  C   UNL     1      -7.807   3.960 131.537  0.00  0.00    +0.000 C 
ATOM      5  C   UNL     1      -7.864   2.952 130.582  0.00  0.00    +0.000 C 
ATOM      6  C   UNL     1      -9.074   2.527 129.813  0.00  0.00    +0.000 C 
ATOM      7  C   UNL     1      -6.651   2.116 131.742  0.00  0.00    +0.000 C 
ATOM      8  C   UNL     1      -5.667   3.207 132.593  0.00  0.00    +0.000 C 
ATOM      9  C   UNL     1      -4.942   4.468 131.862  0.00  0.00    +0.000 C 
ATOM     10  C   UNL     1      -6.029   5.418 131.069  0.00  0.00    +0.000 C 
ATOM     11  C   UNL     1      -5.385   6.547 130.297  0.00  0.00    +0.000 C 
ATOM     12  C   UNL     1      -4.480   7.372 131.167  0.00  0.00    +0.000 C 
ATOM     13  C   UNL     1      -3.846   8.406 130.251  0.00  0.00    +0.000 C 
ATOM     14  C   UNL     1      -3.481   6.553 131.932  0.00  0.00    +0.000 C 
ATOM     15  C   UNL     1      -2.195   6.923 131.986  0.00  0.00    +0.000 C 
ATOM     16  C   UNL     1      -1.437   6.250 133.022  0.00  0.00    +0.000 C 
ATOM     17  O   UNL     1      -1.510   6.484 134.224  0.00  0.00    +0.000 OA
ATOM     18  C   UNL     1      -0.983   4.961 132.564  0.00  0.00    +0.000 C 
ATOM     19  C   UNL     1      -2.508   4.339 132.952  0.00  0.00    +0.000 C 
ATOM     20  C   UNL     1      -3.942   5.322 132.719  0.00  0.00    +0.000 C 
ATOM     21  C   UNL     1      -4.784   5.867 133.922  0.00  0.00    +0.000 C 
ENDROOT
BRANCH   4  22
ATOM     22  C   UNL     1      -8.864   3.126 132.656  0.00  0.00    +0.000 C 
ATOM     23  C   UNL     1      -9.846   1.949 132.295  0.00  0.00    +0.000 C 
ATOM     24  O   UNL     1      -8.902   3.486 133.850  0.00  0.00    +0.000 OA
ENDBRANCH   4  22
BRANCH   4  25
ATOM     25  O   UNL     1      -9.199   4.886 131.211  0.00  0.00    +0.000 OA
BRANCH  25  26
ATOM     26  C   UNL     1      -9.725   6.134 131.527  0.00  0.00    +0.000 C 
ATOM     27  C   UNL     1      -9.881   7.049 130.376  0.00  0.00    +0.000 C 
ATOM     28  O   UNL     1     -10.189   6.429 132.615  0.00  0.00    +0.000 OA
ENDBRANCH  25  26
ENDBRANCH   4  25
TORSDOF 3
ENDMDL
MODEL 6
REMARK VINA RESULT:      -8.3      3.857      6.202
REMARK  Name = Medroxyprogesterone acetate
REMARK  8 active torsions:
REMARK  status: ('A' for Active; 'I' for Inactive)
REMARK    1  A    between atoms: C_5  and  O_6
REMARK    2  A    between atoms: C_5  and  C_10
REMARK    3  A    between atoms: O_6  and  C_7
REMARK    4  A    between atoms: C_7  and  C_8
REMARK    5  A    between atoms: C_10  and  C_11
REMARK    6  A    between atoms: C_13  and  C_14
REMARK    7  A    between atoms: C_22  and  C_23
REMARK    8  A    between atoms: C_30  and  C_31
REMARK                            x       y       z     vdW  Elec       q    Type
REMARK                         _______ _______ _______ _____ _____    ______ ____
ROOT
ATOM      1  C   UNL     1      -5.781   2.192 127.834  0.00  0.00    +0.000 C 
ATOM      2  C   UNL     1      -4.484   1.614 127.868  0.00  0.00    +0.000 C 
ATOM      3  C   UNL     1      -5.142   1.823 126.570  0.00  0.00    +0.000 C 
ATOM      4  C   UNL     1      -6.796   3.107 126.628  0.00  0.00    +0.000 C 
ATOM      5  C   UNL     1      -5.451   3.398 126.434  0.00  0.00    +0.000 C 
ATOM      6  C   UNL     1      -4.710   4.571 126.991  0.00  0.00    +0.000 C 
ATOM      7  C   UNL     1      -5.799   2.721 124.721  0.00  0.00    +0.000 C 
ATOM      8  C   UNL     1      -7.008   1.530 124.696  0.00  0.00    +0.000 C 
ATOM      9  C   UNL     1      -7.047   0.315 125.780  0.00  0.00    +0.000 C 
ATOM     10  C   UNL     1      -7.051   0.881 127.327  0.00  0.00    +0.000 C 
ATOM     11  C   UNL     1      -6.989  -0.216 128.365  0.00  0.00    +0.000 C 
ATOM     12  C   UNL     1      -8.072  -1.238 128.161  0.00  0.00    +0.000 C 
ATOM     13  C   UNL     1      -7.840  -2.309 129.212  0.00  0.00    +0.000 C 
ATOM     14  C   UNL     1      -8.129  -1.772 126.759  0.00  0.00    +0.000 C 
ATOM     15  C   UNL     1      -8.246  -3.087 126.535  0.00  0.00    +0.000 C 
ATOM     16  C   UNL     1      -8.632  -3.417 125.178  0.00  0.00    +0.000 C 
ATOM     17  O   UNL     1      -9.756  -3.279 124.704  0.00  0.00    +0.000 OA
ATOM     18  C   UNL     1      -7.481  -3.435 124.312  0.00  0.00    +0.000 C 
ATOM     19  C   UNL     1      -7.608  -1.752 124.186  0.00  0.00    +0.000 C 
ATOM     20  C   UNL     1      -8.125  -0.806 125.570  0.00  0.00    +0.000 C 
ATOM     21  C   UNL     1      -9.506  -0.068 125.607  0.00  0.00    +0.000 C 
ENDROOT
BRANCH   4  22
ATOM     22  C   UNL     1      -7.352   4.525 125.765  0.00  0.00    +0.000 C 
ATOM     23  C   UNL     1      -6.435   5.647 125.146  0.00  0.00    +0.000 C 
ATOM     24  O   UNL     1      -8.576   4.725 125.633  0.00  0.00    +0.000 OA
ENDBRANCH   4  22
BRANCH   4  25
ATOM     25  O   UNL     1      -7.201   4.023 128.006  0.00  0.00    +0.000 OA
BRANCH  25  26
ATOM     26  C   UNL     1      -8.055   3.948 129.100  0.00  0.00    +0.000 C 
ATOM     27  C   UNL     1      -7.472   4.422 130.373  0.00  0.00    +0.000 C 
ATOM     28  O   UNL     1      -9.242   3.681 129.029  0.00  0.00    +0.000 OA
ENDBRANCH  25  26
ENDBRANCH   4  25
TORSDOF 3
ENDMDL
MODEL 7
REMARK VINA RESULT:      -8.2      1.756      3.606
REMARK  Name = Medroxyprogesterone acetate
REMARK  8 active torsions:
REMARK  status: ('A' for Active; 'I' for Inactive)
REMARK    1  A    between atoms: C_5  and  O_6
REMARK    2  A    between atoms: C_5  and  C_10
REMARK    3  A    between atoms: O_6  and  C_7
REMARK    4  A    between atoms: C_7  and  C_8
REMARK    5  A    between atoms: C_10  and  C_11
REMARK    6  A    between atoms: C_13  and  C_14
REMARK    7  A    between atoms: C_22  and  C_23
REMARK    8  A    between atoms: C_30  and  C_31
REMARK                            x       y       z     vdW  Elec       q    Type
REMARK                         _______ _______ _______ _____ _____    ______ ____
ROOT
ATOM      1  C   UNL     1      -7.240  -0.076 131.312  0.00  0.00    +0.000 C 
ATOM      2  C   UNL     1      -8.595  -0.034 131.733  0.00  0.00    +0.000 C 
ATOM      3  C   UNL     1      -7.995  -1.328 131.380  0.00  0.00    +0.000 C 
ATOM      4  C   UNL     1      -5.904  -1.315 131.259  0.00  0.00    +0.000 C 
ATOM      5  C   UNL     1      -6.729  -1.553 132.351  0.00  0.00    +0.000 C 
ATOM      6  C   UNL     1      -6.502  -1.085 133.753  0.00  0.00    +0.000 C 
ATOM      7  C   UNL     1      -6.955  -3.215 131.512  0.00  0.00    +0.000 C 
ATOM      8  C   UNL     1      -6.829  -3.142 129.821  0.00  0.00    +0.000 C 
ATOM      9  C   UNL     1      -7.572  -1.985 128.948  0.00  0.00    +0.000 C 
ATOM     10  C   UNL     1      -7.159  -0.476 129.462  0.00  0.00    +0.000 C 
ATOM     11  C   UNL     1      -7.901   0.625 128.741  0.00  0.00    +0.000 C 
ATOM     12  C   UNL     1      -7.762   0.506 127.249  0.00  0.00    +0.000 C 
ATOM     13  C   UNL     1      -8.615   1.617 126.660  0.00  0.00    +0.000 C 
ATOM     14  C   UNL     1      -8.106  -0.859 126.728  0.00  0.00    +0.000 C 
ATOM     15  C   UNL     1      -8.888  -0.999 125.650  0.00  0.00    +0.000 C 
ATOM     16  C   UNL     1      -8.848  -2.326 125.068  0.00  0.00    +0.000 C 
ATOM     17  O   UNL     1      -7.924  -2.784 124.403  0.00  0.00    +0.000 OA
ATOM     18  C   UNL     1      -9.749  -3.212 125.760  0.00  0.00    +0.000 C 
ATOM     19  C   UNL     1      -8.549  -3.438 126.932  0.00  0.00    +0.000 C 
ATOM     20  C   UNL     1      -7.503  -2.105 127.385  0.00  0.00    +0.000 C 
ATOM     21  C   UNL     1      -5.978  -2.085 127.033  0.00  0.00    +0.000 C 
ENDROOT
BRANCH   4  22
ATOM     22  C   UNL     1      -4.574  -2.252 131.907  0.00  0.00    +0.000 C 
ATOM     23  C   UNL     1      -4.273  -2.494 133.435  0.00  0.00    +0.000 C 
ATOM     24  O   UNL     1      -3.745  -2.763 131.128  0.00  0.00    +0.000 OA
ENDBRANCH   4  22
BRANCH   4  25
ATOM     25  O   UNL     1      -4.962   0.012 131.763  0.00  0.00    +0.000 OA
BRANCH  25  26
ATOM     26  C   UNL     1      -4.292   1.094 131.203  0.00  0.00    +0.000 C 
ATOM     27  C   UNL     1      -3.814   2.097 132.178  0.00  0.00    +0.000 C 
ATOM     28  O   UNL     1      -3.958   1.165 130.033  0.00  0.00    +0.000 OA
ENDBRANCH  25  26
ENDBRANCH   4  25
TORSDOF 3
ENDMDL
MODEL 8
REMARK VINA RESULT:      -8.1      2.650      5.122
REMARK  Name = Medroxyprogesterone acetate
REMARK  8 active torsions:
REMARK  status: ('A' for Active; 'I' for Inactive)
REMARK    1  A    between atoms: C_5  and  O_6
REMARK    2  A    between atoms: C_5  and  C_10
REMARK    3  A    between atoms: O_6  and  C_7
REMARK    4  A    between atoms: C_7  and  C_8
REMARK    5  A    between atoms: C_10  and  C_11
REMARK    6  A    between atoms: C_13  and  C_14
REMARK    7  A    between atoms: C_22  and  C_23
REMARK    8  A    between atoms: C_30  and  C_31
REMARK                            x       y       z     vdW  Elec       q    Type
REMARK                         _______ _______ _______ _____ _____    ______ ____
ROOT
ATOM      1  C   UNL     1      -5.007   1.089 127.294  0.00  0.00    +0.000 C 
ATOM      2  C   UNL     1      -4.591   2.004 126.291  0.00  0.00    +0.000 C 
ATOM      3  C   UNL     1      -6.005   1.972 126.691  0.00  0.00    +0.000 C 
ATOM      4  C   UNL     1      -6.382   0.956 128.483  0.00  0.00    +0.000 C 
ATOM      5  C   UNL     1      -6.067   2.292 128.269  0.00  0.00    +0.000 C 
ATOM      6  C   UNL     1      -5.165   3.136 129.112  0.00  0.00    +0.000 C 
ATOM      7  C   UNL     1      -7.858   2.377 127.721  0.00  0.00    +0.000 C 
ATOM      8  C   UNL     1      -8.427   0.929 127.042  0.00  0.00    +0.000 C 
ATOM      9  C   UNL     1      -7.562   0.089 125.947  0.00  0.00    +0.000 C 
ATOM     10  C   UNL     1      -6.060  -0.279 126.513  0.00  0.00    +0.000 C 
ATOM     11  C   UNL     1      -5.190  -0.975 125.491  0.00  0.00    +0.000 C 
ATOM     12  C   UNL     1      -5.865  -2.190 124.921  0.00  0.00    +0.000 C 
ATOM     13  C   UNL     1      -4.921  -2.735 123.863  0.00  0.00    +0.000 C 
ATOM     14  C   UNL     1      -7.249  -1.917 124.410  0.00  0.00    +0.000 C 
ATOM     15  C   UNL     1      -7.641  -2.387 123.219  0.00  0.00    +0.000 C 
ATOM     16  C   UNL     1      -9.076  -2.346 123.018  0.00  0.00    +0.000 C 
ATOM     17  O   UNL     1      -9.890  -3.103 123.537  0.00  0.00    +0.000 OA
ATOM     18  C   UNL     1      -9.489  -1.041 122.567  0.00  0.00    +0.000 C 
ATOM     19  C   UNL     1      -9.466  -0.530 124.181  0.00  0.00    +0.000 C 
ATOM     20  C   UNL     1      -8.252  -1.154 125.282  0.00  0.00    +0.000 C 
ATOM     21  C   UNL     1      -8.614  -2.113 126.466  0.00  0.00    +0.000 C 
ENDROOT
BRANCH   4  22
ATOM     22  C   UNL     1      -7.224   1.270 129.985  0.00  0.00    +0.000 C 
ATOM     23  C   UNL     1      -6.930   2.458 130.977  0.00  0.00    +0.000 C 
ATOM     24  O   UNL     1      -8.121   0.490 130.362  0.00  0.00    +0.000 OA
ENDBRANCH   4  22
BRANCH   4  25
ATOM     25  O   UNL     1      -5.137   0.421 129.516  0.00  0.00    +0.000 OA
BRANCH  25  26
ATOM     26  C   UNL     1      -4.641  -0.773 130.028  0.00  0.00    +0.000 C 
ATOM     27  C   UNL     1      -4.596  -0.841 131.504  0.00  0.00    +0.000 C 
ATOM     28  O   UNL     1      -4.411  -1.765 129.359  0.00  0.00    +0.000 OA
ENDBRANCH  25  26
ENDBRANCH   4  25
TORSDOF 3
ENDMDL
MODEL 9
REMARK VINA RESULT:      -7.8      5.313      7.599
REMARK  Name = Medroxyprogesterone acetate
REMARK  8 active torsions:
REMARK  status: ('A' for Active; 'I' for Inactive)
REMARK    1  A    between atoms: C_5  and  O_6
REMARK    2  A    between atoms: C_5  and  C_10
REMARK    3  A    between atoms: O_6  and  C_7
REMARK    4  A    between atoms: C_7  and  C_8
REMARK    5  A    between atoms: C_10  and  C_11
REMARK    6  A    between atoms: C_13  and  C_14
REMARK    7  A    between atoms: C_22  and  C_23
REMARK    8  A    between atoms: C_30  and  C_31
REMARK                            x       y       z     vdW  Elec       q    Type
REMARK                         _______ _______ _______ _____ _____    ______ ____
ROOT
ATOM      1  C   UNL     1      -6.390   1.739 132.680  0.00  0.00    +0.000 C 
ATOM      2  C   UNL     1      -6.756   2.071 134.011  0.00  0.00    +0.000 C 
ATOM      3  C   UNL     1      -7.809   1.746 133.037  0.00  0.00    +0.000 C 
ATOM      4  C   UNL     1      -7.124   0.814 131.291  0.00  0.00    +0.000 C 
ATOM      5  C   UNL     1      -7.524   0.254 132.499  0.00  0.00    +0.000 C 
ATOM      6  C   UNL     1      -6.889  -0.909 133.191  0.00  0.00    +0.000 C 
ATOM      7  C   UNL     1      -9.234   0.653 131.841  0.00  0.00    +0.000 C 
ATOM      8  C   UNL     1      -9.269   2.016 130.830  0.00  0.00    +0.000 C 
ATOM      9  C   UNL     1      -8.498   3.398 131.215  0.00  0.00    +0.000 C 
ATOM     10  C   UNL     1      -6.899   3.139 131.510  0.00  0.00    +0.000 C 
ATOM     11  C   UNL     1      -6.166   4.381 131.965  0.00  0.00    +0.000 C 
ATOM     12  C   UNL     1      -6.361   5.524 131.009  0.00  0.00    +0.000 C 
ATOM     13  C   UNL     1      -5.646   6.713 131.627  0.00  0.00    +0.000 C 
ATOM     14  C   UNL     1      -7.803   5.790 130.687  0.00  0.00    +0.000 C 
ATOM     15  C   UNL     1      -8.284   7.040 130.694  0.00  0.00    +0.000 C 
ATOM     16  C   UNL     1      -9.569   7.176 130.039  0.00  0.00    +0.000 C 
ATOM     17  O   UNL     1      -9.756   7.157 128.826  0.00  0.00    +0.000 OA
ATOM     18  C   UNL     1     -10.638   6.826 130.939  0.00  0.00    +0.000 C 
ATOM     19  C   UNL     1     -10.358   5.200 130.564  0.00  0.00    +0.000 C 
ATOM     20  C   UNL     1      -8.723   4.635 130.276  0.00  0.00    +0.000 C 
ATOM     21  C   UNL     1      -8.236   4.177 128.860  0.00  0.00    +0.000 C 
ENDROOT
BRANCH   4  22
ATOM     22  C   UNL     1      -7.516  -0.617 130.361  0.00  0.00    +0.000 C 
ATOM     23  C   UNL     1      -7.525  -2.096 130.903  0.00  0.00    +0.000 C 
ATOM     24  O   UNL     1      -7.784  -0.508 129.148  0.00  0.00    +0.000 OA
ENDBRANCH   4  22
BRANCH   4  25
ATOM     25  O   UNL     1      -5.524   0.257 131.113  0.00  0.00    +0.000 OA
BRANCH  25  26
ATOM     26  C   UNL     1      -4.509   0.273 130.164  0.00  0.00    +0.000 C 
ATOM     27  C   UNL     1      -3.809  -1.017 129.984  0.00  0.00    +0.000 C 
ATOM     28  O   UNL     1      -4.294   1.201 129.403  0.00  0.00    +0.000 OA
ENDBRANCH  25  26
ENDBRANCH   4  25
TORSDOF 3
ENDMDL
