MODEL 1
REMARK VINA RESULT:      -7.4      0.000      0.000
REMARK  Name = Mefenamic acid
REMARK  6 active torsions:
REMARK  status: ('A' for Active; 'I' for Inactive)
REMARK    1  A    between atoms: C_1  and  C_2
REMARK    2  A    between atoms: C_3  and  C_4
REMARK    3  A    between atoms: C_5  and  N_6
REMARK    4  A    between atoms: N_6  and  C_7
REMARK    5  A    between atoms: C_12  and  C_13
REMARK    6  A    between atoms: C_13  and  O_14
REMARK                            x       y       z     vdW  Elec       q    Type
REMARK                         _______ _______ _______ _____ _____    ______ ____
ROOT
ATOM      1  N   UNL     1      -9.856   5.966 129.287  0.00  0.00    +0.000 N 
ATOM      2  H   UNL     1      -9.263   5.898 128.467  0.00  0.00    +0.000 HD
ENDROOT
BRANCH   1   7
ATOM      3  C   UNL     1      -9.184   2.909 133.240  0.00  0.00    +0.000 C 
ATOM      4  C   UNL     1      -8.915   4.128 132.406  0.00  0.00    +0.000 A 
ATOM      5  C   UNL     1      -9.577   4.416 131.190  0.00  0.00    +0.000 A 
ATOM      6  C   UNL     1     -10.603   3.491 130.584  0.00  0.00    +0.000 C 
ATOM      7  C   UNL     1      -9.234   5.605 130.504  0.00  0.00    +0.000 A 
ATOM      8  C   UNL     1      -8.283   6.482 131.063  0.00  0.00    +0.000 A 
ATOM      9  C   UNL     1      -7.614   6.183 132.233  0.00  0.00    +0.000 A 
ATOM     10  C   UNL     1      -7.941   5.019 132.906  0.00  0.00    +0.000 A 
ENDBRANCH   1   7
BRANCH   1  11
ATOM     11  C   UNL     1     -10.884   6.924 129.139  0.00  0.00    +0.000 A 
ATOM     12  C   UNL     1     -11.584   7.215 130.327  0.00  0.00    +0.000 A 
ATOM     13  C   UNL     1     -12.599   8.160 130.351  0.00  0.00    +0.000 A 
ATOM     14  C   UNL     1     -12.889   8.872 129.197  0.00  0.00    +0.000 A 
ATOM     15  C   UNL     1     -12.222   8.586 128.000  0.00  0.00    +0.000 A 
ATOM     16  C   UNL     1     -11.233   7.587 127.928  0.00  0.00    +0.000 A 
BRANCH  16  17
ATOM     17  C   UNL     1     -10.563   7.261 126.603  0.00  0.00    +0.000 C 
ATOM     18  O   UNL     1      -9.770   6.345 126.425  0.00  0.00    +0.000 OA
BRANCH  17  19
ATOM     19  O   UNL     1     -10.882   8.044 125.549  0.00  0.00    +0.000 OA
ATOM     20  H   UNL     1     -11.014   7.640 124.681  0.00  0.00    +0.000 HD
ENDBRANCH  17  19
ENDBRANCH  16  17
ENDBRANCH   1  11
TORSDOF 4
ENDMDL
MODEL 2
REMARK VINA RESULT:      -7.1      0.932      2.067
REMARK  Name = Mefenamic acid
REMARK  6 active torsions:
REMARK  status: ('A' for Active; 'I' for Inactive)
REMARK    1  A    between atoms: C_1  and  C_2
REMARK    2  A    between atoms: C_3  and  C_4
REMARK    3  A    between atoms: C_5  and  N_6
REMARK    4  A    between atoms: N_6  and  C_7
REMARK    5  A    between atoms: C_12  and  C_13
REMARK    6  A    between atoms: C_13  and  O_14
REMARK                            x       y       z     vdW  Elec       q    Type
REMARK                         _______ _______ _______ _____ _____    ______ ____
ROOT
ATOM      1  N   UNL     1      -9.792   5.663 129.999  0.00  0.00    +0.000 N 
ATOM      2  H   UNL     1      -8.930   6.071 129.654  0.00  0.00    +0.000 HD
ENDROOT
BRANCH   1   7
ATOM      3  C   UNL     1      -7.834   3.648 134.186  0.00  0.00    +0.000 C 
ATOM      4  C   UNL     1      -8.677   3.643 132.943  0.00  0.00    +0.000 A 
ATOM      5  C   UNL     1      -8.800   4.746 132.067  0.00  0.00    +0.000 A 
ATOM      6  C   UNL     1      -8.120   6.068 132.323  0.00  0.00    +0.000 C 
ATOM      7  C   UNL     1      -9.624   4.607 130.925  0.00  0.00    +0.000 A 
ATOM      8  C   UNL     1     -10.259   3.376 130.669  0.00  0.00    +0.000 A 
ATOM      9  C   UNL     1     -10.164   2.311 131.543  0.00  0.00    +0.000 A 
ATOM     10  C   UNL     1      -9.365   2.442 132.665  0.00  0.00    +0.000 A 
ENDBRANCH   1   7
BRANCH   1  11
ATOM     11  C   UNL     1     -10.875   6.571 129.972  0.00  0.00    +0.000 A 
ATOM     12  C   UNL     1     -11.604   6.643 131.176  0.00  0.00    +0.000 A 
ATOM     13  C   UNL     1     -12.675   7.513 131.318  0.00  0.00    +0.000 A 
ATOM     14  C   UNL     1     -12.994   8.369 130.274  0.00  0.00    +0.000 A 
ATOM     15  C   UNL     1     -12.298   8.302 129.062  0.00  0.00    +0.000 A 
ATOM     16  C   UNL     1     -11.249   7.383 128.864  0.00  0.00    +0.000 A 
BRANCH  16  17
ATOM     17  C   UNL     1     -10.546   7.295 127.519  0.00  0.00    +0.000 C 
ATOM     18  O   UNL     1      -9.746   6.424 127.202  0.00  0.00    +0.000 OA
BRANCH  17  19
ATOM     19  O   UNL     1     -10.841   8.252 126.612  0.00  0.00    +0.000 OA
ATOM     20  H   UNL     1     -11.050   9.145 126.916  0.00  0.00    +0.000 HD
ENDBRANCH  17  19
ENDBRANCH  16  17
ENDBRANCH   1  11
TORSDOF 4
ENDMDL
MODEL 3
REMARK VINA RESULT:      -7.0      2.145      5.726
REMARK  Name = Mefenamic acid
REMARK  6 active torsions:
REMARK  status: ('A' for Active; 'I' for Inactive)
REMARK    1  A    between atoms: C_1  and  C_2
REMARK    2  A    between atoms: C_3  and  C_4
REMARK    3  A    between atoms: C_5  and  N_6
REMARK    4  A    between atoms: N_6  and  C_7
REMARK    5  A    between atoms: C_12  and  C_13
REMARK    6  A    between atoms: C_13  and  O_14
REMARK                            x       y       z     vdW  Elec       q    Type
REMARK                         _______ _______ _______ _____ _____    ______ ____
ROOT
ATOM      1  N   UNL     1      -9.606   6.335 129.719  0.00  0.00    +0.000 N 
ATOM      2  H   UNL     1      -9.647   5.798 128.860  0.00  0.00    +0.000 HD
ENDROOT
BRANCH   1   7
ATOM      3  C   UNL     1     -13.174   9.812 128.941  0.00  0.00    +0.000 C 
ATOM      4  C   UNL     1     -12.518   8.682 129.681  0.00  0.00    +0.000 A 
ATOM      5  C   UNL     1     -11.319   8.056 129.269  0.00  0.00    +0.000 A 
ATOM      6  C   UNL     1     -10.596   8.441 128.002  0.00  0.00    +0.000 C 
ATOM      7  C   UNL     1     -10.803   7.005 130.063  0.00  0.00    +0.000 A 
ATOM      8  C   UNL     1     -11.464   6.641 131.252  0.00  0.00    +0.000 A 
ATOM      9  C   UNL     1     -12.652   7.230 131.636  0.00  0.00    +0.000 A 
ATOM     10  C   UNL     1     -13.166   8.255 130.861  0.00  0.00    +0.000 A 
ENDBRANCH   1   7
BRANCH   1  11
ATOM     11  C   UNL     1      -8.653   5.829 130.633  0.00  0.00    +0.000 A 
ATOM     12  C   UNL     1      -7.653   6.752 131.000  0.00  0.00    +0.000 A 
ATOM     13  C   UNL     1      -6.665   6.416 131.914  0.00  0.00    +0.000 A 
ATOM     14  C   UNL     1      -6.699   5.170 132.521  0.00  0.00    +0.000 A 
ATOM     15  C   UNL     1      -7.670   4.230 132.157  0.00  0.00    +0.000 A 
ATOM     16  C   UNL     1      -8.646   4.517 131.184  0.00  0.00    +0.000 A 
BRANCH  16  17
ATOM     17  C   UNL     1      -9.656   3.458 130.770  0.00  0.00    +0.000 C 
ATOM     18  O   UNL     1      -9.974   3.207 129.615  0.00  0.00    +0.000 OA
BRANCH  17  19
ATOM     19  O   UNL     1     -10.231   2.742 131.762  0.00  0.00    +0.000 OA
ATOM     20  H   UNL     1     -11.169   2.521 131.704  0.00  0.00    +0.000 HD
ENDBRANCH  17  19
ENDBRANCH  16  17
ENDBRANCH   1  11
TORSDOF 4
ENDMDL
MODEL 4
REMARK VINA RESULT:      -6.7      8.372      9.530
REMARK  Name = Mefenamic acid
REMARK  6 active torsions:
REMARK  status: ('A' for Active; 'I' for Inactive)
REMARK    1  A    between atoms: C_1  and  C_2
REMARK    2  A    between atoms: C_3  and  C_4
REMARK    3  A    between atoms: C_5  and  N_6
REMARK    4  A    between atoms: N_6  and  C_7
REMARK    5  A    between atoms: C_12  and  C_13
REMARK    6  A    between atoms: C_13  and  O_14
REMARK                            x       y       z     vdW  Elec       q    Type
REMARK                         _______ _______ _______ _____ _____    ______ ____
ROOT
ATOM      1  N   UNL     1      -7.995   0.382 125.000  0.00  0.00    +0.000 N 
ATOM      2  H   UNL     1      -8.632   0.581 125.764  0.00  0.00    +0.000 HD
ENDROOT
BRANCH   1   7
ATOM      3  C   UNL     1      -5.083  -3.708 124.541  0.00  0.00    +0.000 C 
ATOM      4  C   UNL     1      -6.383  -2.958 124.516  0.00  0.00    +0.000 A 
ATOM      5  C   UNL     1      -6.507  -1.579 124.801  0.00  0.00    +0.000 A 
ATOM      6  C   UNL     1      -5.331  -0.724 125.203  0.00  0.00    +0.000 C 
ATOM      7  C   UNL     1      -7.792  -0.993 124.736  0.00  0.00    +0.000 A 
ATOM      8  C   UNL     1      -8.898  -1.777 124.353  0.00  0.00    +0.000 A 
ATOM      9  C   UNL     1      -8.781  -3.131 124.109  0.00  0.00    +0.000 A 
ATOM     10  C   UNL     1      -7.527  -3.713 124.176  0.00  0.00    +0.000 A 
ENDBRANCH   1   7
BRANCH   1  11
ATOM     11  C   UNL     1      -7.950   1.421 124.043  0.00  0.00    +0.000 A 
ATOM     12  C   UNL     1      -6.724   2.114 123.995  0.00  0.00    +0.000 A 
ATOM     13  C   UNL     1      -6.512   3.140 123.084  0.00  0.00    +0.000 A 
ATOM     14  C   UNL     1      -7.506   3.445 122.166  0.00  0.00    +0.000 A 
ATOM     15  C   UNL     1      -8.739   2.784 122.208  0.00  0.00    +0.000 A 
ATOM     16  C   UNL     1      -9.008   1.786 123.163  0.00  0.00    +0.000 A 
BRANCH  16  17
ATOM     17  C   UNL     1     -10.375   1.122 123.218  0.00  0.00    +0.000 C 
ATOM     18  O   UNL     1     -10.823   0.369 122.364  0.00  0.00    +0.000 OA
BRANCH  17  19
ATOM     19  O   UNL     1     -11.138   1.385 124.302  0.00  0.00    +0.000 OA
ATOM     20  H   UNL     1     -11.725   0.699 124.646  0.00  0.00    +0.000 HD
ENDBRANCH  17  19
ENDBRANCH  16  17
ENDBRANCH   1  11
TORSDOF 4
ENDMDL
MODEL 5
REMARK VINA RESULT:      -6.7      8.219     10.024
REMARK  Name = Mefenamic acid
REMARK  6 active torsions:
REMARK  status: ('A' for Active; 'I' for Inactive)
REMARK    1  A    between atoms: C_1  and  C_2
REMARK    2  A    between atoms: C_3  and  C_4
REMARK    3  A    between atoms: C_5  and  N_6
REMARK    4  A    between atoms: N_6  and  C_7
REMARK    5  A    between atoms: C_12  and  C_13
REMARK    6  A    between atoms: C_13  and  O_14
REMARK                            x       y       z     vdW  Elec       q    Type
REMARK                         _______ _______ _______ _____ _____    ______ ____
ROOT
ATOM      1  N   UNL     1      -7.560  -1.069 126.086  0.00  0.00    +0.000 N 
ATOM      2  H   UNL     1      -8.127  -0.231 126.007  0.00  0.00    +0.000 HD
ENDROOT
BRANCH   1   7
ATOM      3  C   UNL     1      -7.521  -2.473 130.928  0.00  0.00    +0.000 C 
ATOM      4  C   UNL     1      -7.895  -2.604 129.480  0.00  0.00    +0.000 A 
ATOM      5  C   UNL     1      -7.502  -1.690 128.476  0.00  0.00    +0.000 A 
ATOM      6  C   UNL     1      -6.693  -0.452 128.775  0.00  0.00    +0.000 C 
ATOM      7  C   UNL     1      -7.918  -1.934 127.146  0.00  0.00    +0.000 A 
ATOM      8  C   UNL     1      -8.667  -3.090 126.851  0.00  0.00    +0.000 A 
ATOM      9  C   UNL     1      -9.078  -3.964 127.838  0.00  0.00    +0.000 A 
ATOM     10  C   UNL     1      -8.680  -3.728 129.142  0.00  0.00    +0.000 A 
ENDBRANCH   1   7
BRANCH   1  11
ATOM     11  C   UNL     1      -7.000  -1.466 124.850  0.00  0.00    +0.000 A 
ATOM     12  C   UNL     1      -5.733  -2.075 124.955  0.00  0.00    +0.000 A 
ATOM     13  C   UNL     1      -5.068  -2.549 123.834  0.00  0.00    +0.000 A 
ATOM     14  C   UNL     1      -5.691  -2.476 122.596  0.00  0.00    +0.000 A 
ATOM     15  C   UNL     1      -6.940  -1.858 122.465  0.00  0.00    +0.000 A 
ATOM     16  C   UNL     1      -7.610  -1.307 123.574  0.00  0.00    +0.000 A 
BRANCH  16  17
ATOM     17  C   UNL     1      -8.940  -0.595 123.393  0.00  0.00    +0.000 C 
ATOM     18  O   UNL     1      -9.882  -1.025 122.739  0.00  0.00    +0.000 OA
BRANCH  17  19
ATOM     19  O   UNL     1      -9.084   0.598 124.012  0.00  0.00    +0.000 OA
ATOM     20  H   UNL     1      -9.957   0.868 124.324  0.00  0.00    +0.000 HD
ENDBRANCH  17  19
ENDBRANCH  16  17
ENDBRANCH   1  11
TORSDOF 4
ENDMDL
MODEL 6
REMARK VINA RESULT:      -6.7      2.585      3.627
REMARK  Name = Mefenamic acid
REMARK  6 active torsions:
REMARK  status: ('A' for Active; 'I' for Inactive)
REMARK    1  A    between atoms: C_1  and  C_2
REMARK    2  A    between atoms: C_3  and  C_4
REMARK    3  A    between atoms: C_5  and  N_6
REMARK    4  A    between atoms: N_6  and  C_7
REMARK    5  A    between atoms: C_12  and  C_13
REMARK    6  A    between atoms: C_13  and  O_14
REMARK                            x       y       z     vdW  Elec       q    Type
REMARK                         _______ _______ _______ _____ _____    ______ ____
ROOT
ATOM      1  N   UNL     1      -9.689   6.940 130.093  0.00  0.00    +0.000 N 
ATOM      2  H   UNL     1      -9.668   7.575 130.883  0.00  0.00    +0.000 HD
ENDROOT
BRANCH   1   7
ATOM      3  C   UNL     1      -5.570   4.323 131.361  0.00  0.00    +0.000 C 
ATOM      4  C   UNL     1      -6.987   4.479 130.889  0.00  0.00    +0.000 A 
ATOM      5  C   UNL     1      -7.637   5.726 130.737  0.00  0.00    +0.000 A 
ATOM      6  C   UNL     1      -6.972   7.036 131.079  0.00  0.00    +0.000 C 
ATOM      7  C   UNL     1      -8.974   5.734 130.277  0.00  0.00    +0.000 A 
ATOM      8  C   UNL     1      -9.605   4.518 129.946  0.00  0.00    +0.000 A 
ATOM      9  C   UNL     1      -8.981   3.300 130.127  0.00  0.00    +0.000 A 
ATOM     10  C   UNL     1      -7.674   3.284 130.582  0.00  0.00    +0.000 A 
ENDBRANCH   1   7
BRANCH   1  11
ATOM     11  C   UNL     1     -10.845   7.101 129.295  0.00  0.00    +0.000 A 
ATOM     12  C   UNL     1     -10.585   7.262 127.920  0.00  0.00    +0.000 A 
ATOM     13  C   UNL     1     -11.617   7.398 127.003  0.00  0.00    +0.000 A 
ATOM     14  C   UNL     1     -12.930   7.313 127.445  0.00  0.00    +0.000 A 
ATOM     15  C   UNL     1     -13.212   7.173 128.808  0.00  0.00    +0.000 A 
ATOM     16  C   UNL     1     -12.187   7.100 129.770  0.00  0.00    +0.000 A 
BRANCH  16  17
ATOM     17  C   UNL     1     -12.524   7.002 131.249  0.00  0.00    +0.000 C 
ATOM     18  O   UNL     1     -13.232   7.793 131.860  0.00  0.00    +0.000 OA
BRANCH  17  19
ATOM     19  O   UNL     1     -12.006   5.953 131.926  0.00  0.00    +0.000 OA
ATOM     20  H   UNL     1     -12.535   5.153 132.038  0.00  0.00    +0.000 HD
ENDBRANCH  17  19
ENDBRANCH  16  17
ENDBRANCH   1  11
TORSDOF 4
ENDMDL
MODEL 7
REMARK VINA RESULT:      -6.6      8.342     10.666
REMARK  Name = Mefenamic acid
REMARK  6 active torsions:
REMARK  status: ('A' for Active; 'I' for Inactive)
REMARK    1  A    between atoms: C_1  and  C_2
REMARK    2  A    between atoms: C_3  and  C_4
REMARK    3  A    between atoms: C_5  and  N_6
REMARK    4  A    between atoms: N_6  and  C_7
REMARK    5  A    between atoms: C_12  and  C_13
REMARK    6  A    between atoms: C_13  and  O_14
REMARK                            x       y       z     vdW  Elec       q    Type
REMARK                         _______ _______ _______ _____ _____    ______ ____
ROOT
ATOM      1  N   UNL     1      -7.502  -0.391 125.342  0.00  0.00    +0.000 N 
ATOM      2  H   UNL     1      -7.314  -0.258 126.330  0.00  0.00    +0.000 HD
ENDROOT
BRANCH   1   7
ATOM      3  C   UNL     1      -6.156   4.310 124.111  0.00  0.00    +0.000 C 
ATOM      4  C   UNL     1      -6.992   3.067 124.009  0.00  0.00    +0.000 A 
ATOM      5  C   UNL     1      -6.780   1.906 124.788  0.00  0.00    +0.000 A 
ATOM      6  C   UNL     1      -5.650   1.787 125.780  0.00  0.00    +0.000 C 
ATOM      7  C   UNL     1      -7.645   0.803 124.597  0.00  0.00    +0.000 A 
ATOM      8  C   UNL     1      -8.710   0.902 123.679  0.00  0.00    +0.000 A 
ATOM      9  C   UNL     1      -8.895   2.024 122.896  0.00  0.00    +0.000 A 
ATOM     10  C   UNL     1      -8.048   3.105 123.073  0.00  0.00    +0.000 A 
ENDBRANCH   1   7
BRANCH   1  11
ATOM     11  C   UNL     1      -6.993  -1.614 124.849  0.00  0.00    +0.000 A 
ATOM     12  C   UNL     1      -5.604  -1.611 124.609  0.00  0.00    +0.000 A 
ATOM     13  C   UNL     1      -4.950  -2.748 124.156  0.00  0.00    +0.000 A 
ATOM     14  C   UNL     1      -5.669  -3.923 123.994  0.00  0.00    +0.000 A 
ATOM     15  C   UNL     1      -7.053  -3.944 124.206  0.00  0.00    +0.000 A 
ATOM     16  C   UNL     1      -7.755  -2.791 124.603  0.00  0.00    +0.000 A 
BRANCH  16  17
ATOM     17  C   UNL     1      -9.265  -2.830 124.775  0.00  0.00    +0.000 C 
ATOM     18  O   UNL     1      -9.865  -2.474 125.781  0.00  0.00    +0.000 OA
BRANCH  17  19
ATOM     19  O   UNL     1      -9.987  -3.286 123.727  0.00  0.00    +0.000 OA
ATOM     20  H   UNL     1      -9.570  -3.873 123.084  0.00  0.00    +0.000 HD
ENDBRANCH  17  19
ENDBRANCH  16  17
ENDBRANCH   1  11
TORSDOF 4
ENDMDL
MODEL 8
REMARK VINA RESULT:      -6.5      7.920      9.903
REMARK  Name = Mefenamic acid
REMARK  6 active torsions:
REMARK  status: ('A' for Active; 'I' for Inactive)
REMARK    1  A    between atoms: C_1  and  C_2
REMARK    2  A    between atoms: C_3  and  C_4
REMARK    3  A    between atoms: C_5  and  N_6
REMARK    4  A    between atoms: N_6  and  C_7
REMARK    5  A    between atoms: C_12  and  C_13
REMARK    6  A    between atoms: C_13  and  O_14
REMARK                            x       y       z     vdW  Elec       q    Type
REMARK                         _______ _______ _______ _____ _____    ______ ____
ROOT
ATOM      1  N   UNL     1      -7.908  -1.189 126.796  0.00  0.00    +0.000 N 
ATOM      2  H   UNL     1      -8.802  -0.779 126.550  0.00  0.00    +0.000 HD
ENDROOT
BRANCH   1   7
ATOM      3  C   UNL     1      -7.459  -0.211 131.722  0.00  0.00    +0.000 C 
ATOM      4  C   UNL     1      -7.567  -1.104 130.520  0.00  0.00    +0.000 A 
ATOM      5  C   UNL     1      -7.697  -0.632 129.193  0.00  0.00    +0.000 A 
ATOM      6  C   UNL     1      -7.782   0.836 128.858  0.00  0.00    +0.000 C 
ATOM      7  C   UNL     1      -7.784  -1.582 128.149  0.00  0.00    +0.000 A 
ATOM      8  C   UNL     1      -7.698  -2.957 128.447  0.00  0.00    +0.000 A 
ATOM      9  C   UNL     1      -7.605  -3.416 129.746  0.00  0.00    +0.000 A 
ATOM     10  C   UNL     1      -7.525  -2.492 130.773  0.00  0.00    +0.000 A 
ENDBRANCH   1   7
BRANCH   1  11
ATOM     11  C   UNL     1      -7.270  -1.805 125.696  0.00  0.00    +0.000 A 
ATOM     12  C   UNL     1      -5.901  -1.495 125.569  0.00  0.00    +0.000 A 
ATOM     13  C   UNL     1      -5.129  -2.049 124.558  0.00  0.00    +0.000 A 
ATOM     14  C   UNL     1      -5.703  -2.971 123.695  0.00  0.00    +0.000 A 
ATOM     15  C   UNL     1      -7.066  -3.279 123.789  0.00  0.00    +0.000 A 
ATOM     16  C   UNL     1      -7.890  -2.683 124.762  0.00  0.00    +0.000 A 
BRANCH  16  17
ATOM     17  C   UNL     1      -9.377  -2.996 124.807  0.00  0.00    +0.000 C 
ATOM     18  O   UNL     1     -10.072  -2.956 125.815  0.00  0.00    +0.000 OA
BRANCH  17  19
ATOM     19  O   UNL     1      -9.966  -3.332 123.638  0.00  0.00    +0.000 OA
ATOM     20  H   UNL     1     -10.501  -2.677 123.171  0.00  0.00    +0.000 HD
ENDBRANCH  17  19
ENDBRANCH  16  17
ENDBRANCH   1  11
TORSDOF 4
ENDMDL
MODEL 9
REMARK VINA RESULT:      -6.5      7.426      8.993
REMARK  Name = Mefenamic acid
REMARK  6 active torsions:
REMARK  status: ('A' for Active; 'I' for Inactive)
REMARK    1  A    between atoms: C_1  and  C_2
REMARK    2  A    between atoms: C_3  and  C_4
REMARK    3  A    between atoms: C_5  and  N_6
REMARK    4  A    between atoms: N_6  and  C_7
REMARK    5  A    between atoms: C_12  and  C_13
REMARK    6  A    between atoms: C_13  and  O_14
REMARK                            x       y       z     vdW  Elec       q    Type
REMARK                         _______ _______ _______ _____ _____    ______ ____
ROOT
ATOM      1  N   UNL     1      -7.265   3.131 123.509  0.00  0.00    +0.000 N 
ATOM      2  H   UNL     1      -8.230   3.411 123.649  0.00  0.00    +0.000 HD
ENDROOT
BRANCH   1   7
ATOM      3  C   UNL     1      -5.304   0.281 127.178  0.00  0.00    +0.000 C 
ATOM      4  C   UNL     1      -5.971   0.519 125.854  0.00  0.00    +0.000 A 
ATOM      5  C   UNL     1      -6.295   1.800 125.350  0.00  0.00    +0.000 A 
ATOM      6  C   UNL     1      -6.035   3.067 126.126  0.00  0.00    +0.000 C 
ATOM      7  C   UNL     1      -6.917   1.885 124.083  0.00  0.00    +0.000 A 
ATOM      8  C   UNL     1      -7.159   0.710 123.344  0.00  0.00    +0.000 A 
ATOM      9  C   UNL     1      -6.873  -0.541 123.852  0.00  0.00    +0.000 A 
ATOM     10  C   UNL     1      -6.269  -0.633 125.093  0.00  0.00    +0.000 A 
ENDBRANCH   1   7
BRANCH   1  11
ATOM     11  C   UNL     1      -6.699   3.686 122.339  0.00  0.00    +0.000 A 
ATOM     12  C   UNL     1      -5.372   4.134 122.492  0.00  0.00    +0.000 A 
ATOM     13  C   UNL     1      -4.668   4.674 121.425  0.00  0.00    +0.000 A 
ATOM     14  C   UNL     1      -5.263   4.717 120.173  0.00  0.00    +0.000 A 
ATOM     15  C   UNL     1      -6.588   4.297 120.002  0.00  0.00    +0.000 A 
ATOM     16  C   UNL     1      -7.350   3.807 121.079  0.00  0.00    +0.000 A 
BRANCH  16  17
ATOM     17  C   UNL     1      -8.803   3.408 120.875  0.00  0.00    +0.000 C 
ATOM     18  O   UNL     1      -9.436   2.666 121.615  0.00  0.00    +0.000 OA
BRANCH  17  19
ATOM     19  O   UNL     1      -9.433   3.926 119.797  0.00  0.00    +0.000 OA
ATOM     20  H   UNL     1      -9.591   4.878 119.753  0.00  0.00    +0.000 HD
ENDBRANCH  17  19
ENDBRANCH  16  17
ENDBRANCH   1  11
TORSDOF 4
ENDMDL
