MODEL 1
REMARK VINA RESULT:      -8.2      0.000      0.000
REMARK  Name = Mefloquine
REMARK  5 active torsions:
REMARK  status: ('A' for Active; 'I' for Inactive)
REMARK    1  A    between atoms: O_1  and  C_2
REMARK    2  A    between atoms: C_2  and  C_3
REMARK    3  A    between atoms: C_2  and  C_9
REMARK    4  A    between atoms: C_11  and  C_23
REMARK    5  A    between atoms: C_18  and  C_19
REMARK                            x       y       z     vdW  Elec       q    Type
REMARK                         _______ _______ _______ _____ _____    ______ ____
ROOT
ATOM      1  C   UNL     1      -7.977   1.525 123.996  0.00  0.00    +0.000 A 
ATOM      2  C   UNL     1      -7.112   1.732 125.082  0.00  0.00    +0.000 A 
ATOM      3  C   UNL     1      -6.518   0.673 125.739  0.00  0.00    +0.000 A 
ATOM      4  N   UNL     1      -6.873  -0.599 125.456  0.00  0.00    +0.000 NA
ATOM      5  C   UNL     1      -7.801  -0.834 124.517  0.00  0.00    +0.000 A 
ATOM      6  C   UNL     1      -8.367   0.199 123.713  0.00  0.00    +0.000 A 
ATOM      7  C   UNL     1      -9.303  -0.153 122.718  0.00  0.00    +0.000 A 
ATOM      8  C   UNL     1      -9.722  -1.468 122.555  0.00  0.00    +0.000 A 
ATOM      9  C   UNL     1      -9.192  -2.459 123.371  0.00  0.00    +0.000 A 
ATOM     10  C   UNL     1      -8.227  -2.141 124.340  0.00  0.00    +0.000 A 
ENDROOT
BRANCH  10  11
ATOM     11  C   UNL     1      -7.654  -3.214 125.226  0.00  0.00    +0.000 C 
ATOM     12  F   UNL     1      -6.298  -3.327 125.144  0.00  0.00    +0.000 F 
ATOM     13  F   UNL     1      -7.955  -3.053 126.546  0.00  0.00    +0.000 F 
ATOM     14  F   UNL     1      -8.129  -4.458 124.910  0.00  0.00    +0.000 F 
ENDBRANCH  10  11
BRANCH   3  15
ATOM     15  C   UNL     1      -5.443   0.987 126.765  0.00  0.00    +0.000 C 
ATOM     16  F   UNL     1      -5.118  -0.098 127.532  0.00  0.00    +0.000 F 
ATOM     17  F   UNL     1      -4.269   1.369 126.177  0.00  0.00    +0.000 F 
ATOM     18  F   UNL     1      -5.761   1.980 127.640  0.00  0.00    +0.000 F 
ENDBRANCH   3  15
BRANCH   1  19
ATOM     19  C   UNL     1      -8.435   2.752 123.219  0.00  0.00    +0.000 C 
BRANCH  19  20
ATOM     20  C   UNL     1      -7.707   2.997 121.837  0.00  0.00    +0.000 C 
ATOM     21  C   UNL     1      -6.246   3.423 122.057  0.00  0.00    +0.000 C 
ATOM     22  C   UNL     1      -5.540   3.665 120.721  0.00  0.00    +0.000 C 
ATOM     23  C   UNL     1      -6.325   4.644 119.856  0.00  0.00    +0.000 C 
ATOM     24  C   UNL     1      -7.756   4.177 119.681  0.00  0.00    +0.000 C 
ATOM     25  N   UNL     1      -8.387   3.976 120.968  0.00  0.00    +0.000 NA
ATOM     26  H   UNL     1      -9.328   3.647 120.777  0.00  0.00    +0.000 HD
ENDBRANCH  19  20
BRANCH  19  27
ATOM     27  O   UNL     1      -8.191   3.876 124.080  0.00  0.00    +0.000 OA
ATOM     28  H   UNL     1      -7.454   3.632 124.663  0.00  0.00    +0.000 HD
ENDBRANCH  19  27
ENDBRANCH   1  19
TORSDOF 5
ENDMDL
MODEL 2
REMARK VINA RESULT:      -8.0      2.095      3.649
REMARK  Name = Mefloquine
REMARK  5 active torsions:
REMARK  status: ('A' for Active; 'I' for Inactive)
REMARK    1  A    between atoms: O_1  and  C_2
REMARK    2  A    between atoms: C_2  and  C_3
REMARK    3  A    between atoms: C_2  and  C_9
REMARK    4  A    between atoms: C_11  and  C_23
REMARK    5  A    between atoms: C_18  and  C_19
REMARK                            x       y       z     vdW  Elec       q    Type
REMARK                         _______ _______ _______ _____ _____    ______ ____
ROOT
ATOM      1  C   UNL     1      -7.277   1.462 124.494  0.00  0.00    +0.000 A 
ATOM      2  C   UNL     1      -7.003   0.384 123.637  0.00  0.00    +0.000 A 
ATOM      3  C   UNL     1      -7.193  -0.921 124.043  0.00  0.00    +0.000 A 
ATOM      4  N   UNL     1      -7.500  -1.206 125.328  0.00  0.00    +0.000 NA
ATOM      5  C   UNL     1      -7.635  -0.207 126.212  0.00  0.00    +0.000 A 
ATOM      6  C   UNL     1      -7.574   1.168 125.842  0.00  0.00    +0.000 A 
ATOM      7  C   UNL     1      -7.775   2.148 126.838  0.00  0.00    +0.000 A 
ATOM      8  C   UNL     1      -7.965   1.794 128.168  0.00  0.00    +0.000 A 
ATOM      9  C   UNL     1      -7.981   0.452 128.522  0.00  0.00    +0.000 A 
ATOM     10  C   UNL     1      -7.828  -0.543 127.544  0.00  0.00    +0.000 A 
ENDROOT
BRANCH  10  11
ATOM     11  C   UNL     1      -7.843  -1.999 127.926  0.00  0.00    +0.000 C 
ATOM     12  F   UNL     1      -8.773  -2.733 127.252  0.00  0.00    +0.000 F 
ATOM     13  F   UNL     1      -6.645  -2.624 127.750  0.00  0.00    +0.000 F 
ATOM     14  F   UNL     1      -8.142  -2.185 129.249  0.00  0.00    +0.000 F 
ENDBRANCH  10  11
BRANCH   3  15
ATOM     15  C   UNL     1      -7.070  -2.016 122.996  0.00  0.00    +0.000 C 
ATOM     16  F   UNL     1      -5.996  -1.831 122.170  0.00  0.00    +0.000 F 
ATOM     17  F   UNL     1      -6.876  -3.246 123.560  0.00  0.00    +0.000 F 
ATOM     18  F   UNL     1      -8.151  -2.147 122.179  0.00  0.00    +0.000 F 
ENDBRANCH   3  15
BRANCH   1  19
ATOM     19  C   UNL     1      -7.217   2.864 123.901  0.00  0.00    +0.000 C 
BRANCH  19  20
ATOM     20  C   UNL     1      -7.390   2.949 122.332  0.00  0.00    +0.000 C 
ATOM     21  C   UNL     1      -6.133   3.543 121.675  0.00  0.00    +0.000 C 
ATOM     22  C   UNL     1      -6.299   3.631 120.157  0.00  0.00    +0.000 C 
ATOM     23  C   UNL     1      -7.576   4.378 119.788  0.00  0.00    +0.000 C 
ATOM     24  C   UNL     1      -8.778   3.754 120.469  0.00  0.00    +0.000 C 
ATOM     25  N   UNL     1      -8.581   3.705 121.903  0.00  0.00    +0.000 NA
ATOM     26  H   UNL     1      -9.409   3.262 122.289  0.00  0.00    +0.000 HD
ENDBRANCH  19  20
BRANCH  19  27
ATOM     27  O   UNL     1      -5.928   3.386 124.258  0.00  0.00    +0.000 OA
ATOM     28  H   UNL     1      -5.988   4.354 124.204  0.00  0.00    +0.000 HD
ENDBRANCH  19  27
ENDBRANCH   1  19
TORSDOF 5
ENDMDL
MODEL 3
REMARK VINA RESULT:      -7.7      3.495      6.503
REMARK  Name = Mefloquine
REMARK  5 active torsions:
REMARK  status: ('A' for Active; 'I' for Inactive)
REMARK    1  A    between atoms: O_1  and  C_2
REMARK    2  A    between atoms: C_2  and  C_3
REMARK    3  A    between atoms: C_2  and  C_9
REMARK    4  A    between atoms: C_11  and  C_23
REMARK    5  A    between atoms: C_18  and  C_19
REMARK                            x       y       z     vdW  Elec       q    Type
REMARK                         _______ _______ _______ _____ _____    ______ ____
ROOT
ATOM      1  C   UNL     1      -8.206   1.932 124.106  0.00  0.00    +0.000 A 
ATOM      2  C   UNL     1      -7.670   2.507 122.943  0.00  0.00    +0.000 A 
ATOM      3  C   UNL     1      -6.546   3.308 122.992  0.00  0.00    +0.000 A 
ATOM      4  N   UNL     1      -6.023   3.689 124.177  0.00  0.00    +0.000 NA
ATOM      5  C   UNL     1      -6.593   3.270 125.317  0.00  0.00    +0.000 A 
ATOM      6  C   UNL     1      -7.676   2.346 125.346  0.00  0.00    +0.000 A 
ATOM      7  C   UNL     1      -8.179   1.928 126.598  0.00  0.00    +0.000 A 
ATOM      8  C   UNL     1      -7.678   2.450 127.784  0.00  0.00    +0.000 A 
ATOM      9  C   UNL     1      -6.650   3.381 127.741  0.00  0.00    +0.000 A 
ATOM     10  C   UNL     1      -6.103   3.779 126.510  0.00  0.00    +0.000 A 
ENDROOT
BRANCH  10  11
ATOM     11  C   UNL     1      -4.989   4.789 126.462  0.00  0.00    +0.000 C 
ATOM     12  F   UNL     1      -3.836   4.310 125.914  0.00  0.00    +0.000 F 
ATOM     13  F   UNL     1      -5.307   5.923 125.775  0.00  0.00    +0.000 F 
ATOM     14  F   UNL     1      -4.628   5.227 127.708  0.00  0.00    +0.000 F 
ENDBRANCH  10  11
BRANCH   3  15
ATOM     15  C   UNL     1      -5.912   3.723 121.675  0.00  0.00    +0.000 C 
ATOM     16  F   UNL     1      -5.366   2.665 121.002  0.00  0.00    +0.000 F 
ATOM     17  F   UNL     1      -6.827   4.257 120.811  0.00  0.00    +0.000 F 
ATOM     18  F   UNL     1      -4.920   4.648 121.786  0.00  0.00    +0.000 F 
ENDBRANCH   3  15
BRANCH   1  19
ATOM     19  C   UNL     1      -9.329   0.916 123.933  0.00  0.00    +0.000 C 
BRANCH  19  20
ATOM     20  C   UNL     1      -8.914  -0.598 124.116  0.00  0.00    +0.000 C 
ATOM     21  C   UNL     1      -9.156  -1.392 122.822  0.00  0.00    +0.000 C 
ATOM     22  C   UNL     1      -8.760  -2.859 122.998  0.00  0.00    +0.000 C 
ATOM     23  C   UNL     1      -9.449  -3.470 124.212  0.00  0.00    +0.000 C 
ATOM     24  C   UNL     1      -9.182  -2.643 125.454  0.00  0.00    +0.000 C 
ATOM     25  N   UNL     1      -9.585  -1.268 125.245  0.00  0.00    +0.000 NA
ATOM     26  H   UNL     1      -9.361  -0.772 126.102  0.00  0.00    +0.000 HD
ENDBRANCH  19  20
BRANCH  19  27
ATOM     27  O   UNL     1      -9.827   1.106 122.599  0.00  0.00    +0.000 OA
ATOM     28  H   UNL     1     -10.014   0.223 122.237  0.00  0.00    +0.000 HD
ENDBRANCH  19  27
ENDBRANCH   1  19
TORSDOF 5
ENDMDL
MODEL 4
REMARK VINA RESULT:      -7.5      2.642      4.453
REMARK  Name = Mefloquine
REMARK  5 active torsions:
REMARK  status: ('A' for Active; 'I' for Inactive)
REMARK    1  A    between atoms: O_1  and  C_2
REMARK    2  A    between atoms: C_2  and  C_3
REMARK    3  A    between atoms: C_2  and  C_9
REMARK    4  A    between atoms: C_11  and  C_23
REMARK    5  A    between atoms: C_18  and  C_19
REMARK                            x       y       z     vdW  Elec       q    Type
REMARK                         _______ _______ _______ _____ _____    ______ ____
ROOT
ATOM      1  C   UNL     1      -7.104   0.266 126.048  0.00  0.00    +0.000 A 
ATOM      2  C   UNL     1      -6.966  -0.811 125.158  0.00  0.00    +0.000 A 
ATOM      3  C   UNL     1      -7.285  -2.099 125.538  0.00  0.00    +0.000 A 
ATOM      4  N   UNL     1      -7.590  -2.384 126.822  0.00  0.00    +0.000 NA
ATOM      5  C   UNL     1      -7.598  -1.400 127.733  0.00  0.00    +0.000 A 
ATOM      6  C   UNL     1      -7.400  -0.030 127.395  0.00  0.00    +0.000 A 
ATOM      7  C   UNL     1      -7.473   0.939 128.419  0.00  0.00    +0.000 A 
ATOM      8  C   UNL     1      -7.669   0.572 129.745  0.00  0.00    +0.000 A 
ATOM      9  C   UNL     1      -7.820  -0.770 130.066  0.00  0.00    +0.000 A 
ATOM     10  C   UNL     1      -7.796  -1.749 129.061  0.00  0.00    +0.000 A 
ENDROOT
BRANCH  10  11
ATOM     11  C   UNL     1      -7.958  -3.204 129.409  0.00  0.00    +0.000 C 
ATOM     12  F   UNL     1      -9.025  -3.798 128.804  0.00  0.00    +0.000 F 
ATOM     13  F   UNL     1      -6.866  -3.963 129.110  0.00  0.00    +0.000 F 
ATOM     14  F   UNL     1      -8.161  -3.399 130.748  0.00  0.00    +0.000 F 
ENDBRANCH  10  11
BRANCH   3  15
ATOM     15  C   UNL     1      -7.303  -3.172 124.461  0.00  0.00    +0.000 C 
ATOM     16  F   UNL     1      -6.048  -3.608 124.136  0.00  0.00    +0.000 F 
ATOM     17  F   UNL     1      -7.972  -4.294 124.867  0.00  0.00    +0.000 F 
ATOM     18  F   UNL     1      -7.883  -2.795 123.289  0.00  0.00    +0.000 F 
ENDBRANCH   3  15
BRANCH   1  19
ATOM     19  C   UNL     1      -6.909   1.670 125.487  0.00  0.00    +0.000 C 
BRANCH  19  20
ATOM     20  C   UNL     1      -7.331   1.866 123.976  0.00  0.00    +0.000 C 
ATOM     21  C   UNL     1      -6.501   2.979 123.317  0.00  0.00    +0.000 C 
ATOM     22  C   UNL     1      -6.910   3.175 121.855  0.00  0.00    +0.000 C 
ATOM     23  C   UNL     1      -8.413   3.398 121.734  0.00  0.00    +0.000 C 
ATOM     24  C   UNL     1      -9.178   2.276 122.407  0.00  0.00    +0.000 C 
ATOM     25  N   UNL     1      -8.768   2.138 123.789  0.00  0.00    +0.000 NA
ATOM     26  H   UNL     1      -9.302   1.363 124.169  0.00  0.00    +0.000 HD
ENDBRANCH  19  20
BRANCH  19  27
ATOM     27  O   UNL     1      -5.507   1.954 125.620  0.00  0.00    +0.000 OA
ATOM     28  H   UNL     1      -5.036   1.354 125.018  0.00  0.00    +0.000 HD
ENDBRANCH  19  27
ENDBRANCH   1  19
TORSDOF 5
ENDMDL
MODEL 5
REMARK VINA RESULT:      -7.5      3.833      7.589
REMARK  Name = Mefloquine
REMARK  5 active torsions:
REMARK  status: ('A' for Active; 'I' for Inactive)
REMARK    1  A    between atoms: O_1  and  C_2
REMARK    2  A    between atoms: C_2  and  C_3
REMARK    3  A    between atoms: C_2  and  C_9
REMARK    4  A    between atoms: C_11  and  C_23
REMARK    5  A    between atoms: C_18  and  C_19
REMARK                            x       y       z     vdW  Elec       q    Type
REMARK                         _______ _______ _______ _____ _____    ______ ____
ROOT
ATOM      1  C   UNL     1      -8.103  -1.825 127.515  0.00  0.00    +0.000 A 
ATOM      2  C   UNL     1      -8.392  -2.663 126.426  0.00  0.00    +0.000 A 
ATOM      3  C   UNL     1      -8.457  -2.169 125.139  0.00  0.00    +0.000 A 
ATOM      4  N   UNL     1      -8.399  -0.840 124.907  0.00  0.00    +0.000 NA
ATOM      5  C   UNL     1      -8.261   0.006 125.939  0.00  0.00    +0.000 A 
ATOM      6  C   UNL     1      -8.065  -0.434 127.280  0.00  0.00    +0.000 A 
ATOM      7  C   UNL     1      -7.883   0.533 128.291  0.00  0.00    +0.000 A 
ATOM      8  C   UNL     1      -7.956   1.892 128.010  0.00  0.00    +0.000 A 
ATOM      9  C   UNL     1      -8.189   2.307 126.707  0.00  0.00    +0.000 A 
ATOM     10  C   UNL     1      -8.329   1.366 125.674  0.00  0.00    +0.000 A 
ENDROOT
BRANCH  10  11
ATOM     11  C   UNL     1      -8.582   1.815 124.261  0.00  0.00    +0.000 C 
ATOM     12  F   UNL     1      -7.585   1.485 123.393  0.00  0.00    +0.000 F 
ATOM     13  F   UNL     1      -9.741   1.329 123.731  0.00  0.00    +0.000 F 
ATOM     14  F   UNL     1      -8.698   3.176 124.160  0.00  0.00    +0.000 F 
ENDBRANCH  10  11
BRANCH   3  15
ATOM     15  C   UNL     1      -8.571  -3.168 124.000  0.00  0.00    +0.000 C 
ATOM     16  F   UNL     1      -7.830  -4.297 124.218  0.00  0.00    +0.000 F 
ATOM     17  F   UNL     1      -9.853  -3.613 123.834  0.00  0.00    +0.000 F 
ATOM     18  F   UNL     1      -8.181  -2.696 122.784  0.00  0.00    +0.000 F 
ENDBRANCH   3  15
BRANCH   1  19
ATOM     19  C   UNL     1      -7.867  -2.487 128.867  0.00  0.00    +0.000 C 
BRANCH  19  20
ATOM     20  C   UNL     1      -6.459  -3.181 129.051  0.00  0.00    +0.000 C 
ATOM     21  C   UNL     1      -6.375  -3.896 130.409  0.00  0.00    +0.000 C 
ATOM     22  C   UNL     1      -5.011  -4.565 130.593  0.00  0.00    +0.000 C 
ATOM     23  C   UNL     1      -3.879  -3.569 130.371  0.00  0.00    +0.000 C 
ATOM     24  C   UNL     1      -4.018  -2.890 129.023  0.00  0.00    +0.000 C 
ATOM     25  N   UNL     1      -5.316  -2.260 128.902  0.00  0.00    +0.000 NA
ATOM     26  H   UNL     1      -5.347  -1.846 127.975  0.00  0.00    +0.000 HD
ENDBRANCH  19  20
BRANCH  19  27
ATOM     27  O   UNL     1      -8.897  -3.478 129.003  0.00  0.00    +0.000 OA
ATOM     28  H   UNL     1      -8.529  -4.199 129.542  0.00  0.00    +0.000 HD
ENDBRANCH  19  27
ENDBRANCH   1  19
TORSDOF 5
ENDMDL
MODEL 6
REMARK VINA RESULT:      -7.4      7.819     10.631
REMARK  Name = Mefloquine
REMARK  5 active torsions:
REMARK  status: ('A' for Active; 'I' for Inactive)
REMARK    1  A    between atoms: O_1  and  C_2
REMARK    2  A    between atoms: C_2  and  C_3
REMARK    3  A    between atoms: C_2  and  C_9
REMARK    4  A    between atoms: C_11  and  C_23
REMARK    5  A    between atoms: C_18  and  C_19
REMARK                            x       y       z     vdW  Elec       q    Type
REMARK                         _______ _______ _______ _____ _____    ______ ____
ROOT
ATOM      1  C   UNL     1      -9.662   4.943 131.510  0.00  0.00    +0.000 A 
ATOM      2  C   UNL     1      -8.771   4.340 130.609  0.00  0.00    +0.000 A 
ATOM      3  C   UNL     1      -8.659   4.783 129.306  0.00  0.00    +0.000 A 
ATOM      4  N   UNL     1      -9.514   5.707 128.817  0.00  0.00    +0.000 NA
ATOM      5  C   UNL     1     -10.472   6.208 129.610  0.00  0.00    +0.000 A 
ATOM      6  C   UNL     1     -10.573   5.891 130.996  0.00  0.00    +0.000 A 
ATOM      7  C   UNL     1     -11.587   6.505 131.760  0.00  0.00    +0.000 A 
ATOM      8  C   UNL     1     -12.517   7.355 131.173  0.00  0.00    +0.000 A 
ATOM      9  C   UNL     1     -12.432   7.624 129.814  0.00  0.00    +0.000 A 
ATOM     10  C   UNL     1     -11.405   7.060 129.040  0.00  0.00    +0.000 A 
ENDROOT
BRANCH  10  11
ATOM     11  C   UNL     1     -11.313   7.350 127.566  0.00  0.00    +0.000 C 
ATOM     12  F   UNL     1     -10.139   6.951 127.001  0.00  0.00    +0.000 F 
ATOM     13  F   UNL     1     -12.313   6.784 126.834  0.00  0.00    +0.000 F 
ATOM     14  F   UNL     1     -11.396   8.689 127.293  0.00  0.00    +0.000 F 
ENDBRANCH  10  11
BRANCH   3  15
ATOM     15  C   UNL     1      -7.532   4.217 128.458  0.00  0.00    +0.000 C 
ATOM     16  F   UNL     1      -7.477   2.851 128.505  0.00  0.00    +0.000 F 
ATOM     17  F   UNL     1      -7.686   4.519 127.133  0.00  0.00    +0.000 F 
ATOM     18  F   UNL     1      -6.288   4.652 128.797  0.00  0.00    +0.000 F 
ENDBRANCH   3  15
BRANCH   1  19
ATOM     19  C   UNL     1      -9.583   4.513 132.969  0.00  0.00    +0.000 C 
BRANCH  19  20
ATOM     20  C   UNL     1      -8.195   4.765 133.681  0.00  0.00    +0.000 C 
ATOM     21  C   UNL     1      -7.519   3.435 134.050  0.00  0.00    +0.000 C 
ATOM     22  C   UNL     1      -6.177   3.676 134.744  0.00  0.00    +0.000 C 
ATOM     23  C   UNL     1      -6.337   4.615 135.934  0.00  0.00    +0.000 C 
ATOM     24  C   UNL     1      -7.014   5.904 135.512  0.00  0.00    +0.000 C 
ATOM     25  N   UNL     1      -8.284   5.627 134.875  0.00  0.00    +0.000 NA
ATOM     26  H   UNL     1      -8.669   6.526 134.603  0.00  0.00    +0.000 HD
ENDBRANCH  19  20
BRANCH  19  27
ATOM     27  O   UNL     1      -9.863   3.104 132.979  0.00  0.00    +0.000 OA
ATOM     28  H   UNL     1      -9.564   2.749 132.126  0.00  0.00    +0.000 HD
ENDBRANCH  19  27
ENDBRANCH   1  19
TORSDOF 5
ENDMDL
MODEL 7
REMARK VINA RESULT:      -7.3      3.703      6.186
REMARK  Name = Mefloquine
REMARK  5 active torsions:
REMARK  status: ('A' for Active; 'I' for Inactive)
REMARK    1  A    between atoms: O_1  and  C_2
REMARK    2  A    between atoms: C_2  and  C_3
REMARK    3  A    between atoms: C_2  and  C_9
REMARK    4  A    between atoms: C_11  and  C_23
REMARK    5  A    between atoms: C_18  and  C_19
REMARK                            x       y       z     vdW  Elec       q    Type
REMARK                         _______ _______ _______ _____ _____    ______ ____
ROOT
ATOM      1  C   UNL     1      -7.679   0.429 127.005  0.00  0.00    +0.000 A 
ATOM      2  C   UNL     1      -7.684   1.455 126.047  0.00  0.00    +0.000 A 
ATOM      3  C   UNL     1      -8.229   1.262 124.793  0.00  0.00    +0.000 A 
ATOM      4  N   UNL     1      -8.633   0.035 124.399  0.00  0.00    +0.000 NA
ATOM      5  C   UNL     1      -8.515  -1.002 125.240  0.00  0.00    +0.000 A 
ATOM      6  C   UNL     1      -8.078  -0.859 126.589  0.00  0.00    +0.000 A 
ATOM      7  C   UNL     1      -8.031  -2.004 127.412  0.00  0.00    +0.000 A 
ATOM      8  C   UNL     1      -8.342  -3.263 126.913  0.00  0.00    +0.000 A 
ATOM      9  C   UNL     1      -8.728  -3.395 125.586  0.00  0.00    +0.000 A 
ATOM     10  C   UNL     1      -8.825  -2.265 124.758  0.00  0.00    +0.000 A 
ENDROOT
BRANCH  10  11
ATOM     11  C   UNL     1      -9.241  -2.407 123.319  0.00  0.00    +0.000 C 
ATOM     12  F   UNL     1     -10.074  -1.418 122.889  0.00  0.00    +0.000 F 
ATOM     13  F   UNL     1      -8.194  -2.445 122.447  0.00  0.00    +0.000 F 
ATOM     14  F   UNL     1      -9.929  -3.569 123.089  0.00  0.00    +0.000 F 
ENDBRANCH  10  11
BRANCH   3  15
ATOM     15  C   UNL     1      -8.380   2.475 123.891  0.00  0.00    +0.000 C 
ATOM     16  F   UNL     1      -9.365   2.313 122.956  0.00  0.00    +0.000 F 
ATOM     17  F   UNL     1      -8.738   3.594 124.591  0.00  0.00    +0.000 F 
ATOM     18  F   UNL     1      -7.259   2.813 123.196  0.00  0.00    +0.000 F 
ENDBRANCH   3  15
BRANCH   1  19
ATOM     19  C   UNL     1      -7.229   0.788 128.416  0.00  0.00    +0.000 C 
BRANCH  19  20
ATOM     20  C   UNL     1      -8.388   1.007 129.468  0.00  0.00    +0.000 C 
ATOM     21  C   UNL     1      -8.634   2.505 129.707  0.00  0.00    +0.000 C 
ATOM     22  C   UNL     1      -9.753   2.720 130.728  0.00  0.00    +0.000 C 
ATOM     23  C   UNL     1      -9.478   1.947 132.013  0.00  0.00    +0.000 C 
ATOM     24  C   UNL     1      -9.236   0.481 131.715  0.00  0.00    +0.000 C 
ATOM     25  N   UNL     1      -8.161   0.326 130.757  0.00  0.00    +0.000 NA
ATOM     26  H   UNL     1      -8.068  -0.670 130.590  0.00  0.00    +0.000 HD
ENDBRANCH  19  20
BRANCH  19  27
ATOM     27  O   UNL     1      -6.477   2.006 128.290  0.00  0.00    +0.000 OA
ATOM     28  H   UNL     1      -7.017   2.620 127.765  0.00  0.00    +0.000 HD
ENDBRANCH  19  27
ENDBRANCH   1  19
TORSDOF 5
ENDMDL
MODEL 8
REMARK VINA RESULT:      -7.3      3.351      5.072
REMARK  Name = Mefloquine
REMARK  5 active torsions:
REMARK  status: ('A' for Active; 'I' for Inactive)
REMARK    1  A    between atoms: O_1  and  C_2
REMARK    2  A    between atoms: C_2  and  C_3
REMARK    3  A    between atoms: C_2  and  C_9
REMARK    4  A    between atoms: C_11  and  C_23
REMARK    5  A    between atoms: C_18  and  C_19
REMARK                            x       y       z     vdW  Elec       q    Type
REMARK                         _______ _______ _______ _____ _____    ______ ____
ROOT
ATOM      1  C   UNL     1      -6.401   1.234 125.946  0.00  0.00    +0.000 A 
ATOM      2  C   UNL     1      -6.228   2.004 124.785  0.00  0.00    +0.000 A 
ATOM      3  C   UNL     1      -6.942   1.737 123.634  0.00  0.00    +0.000 A 
ATOM      4  N   UNL     1      -7.714   0.633 123.543  0.00  0.00    +0.000 NA
ATOM      5  C   UNL     1      -7.797  -0.205 124.587  0.00  0.00    +0.000 A 
ATOM      6  C   UNL     1      -7.187   0.067 125.847  0.00  0.00    +0.000 A 
ATOM      7  C   UNL     1      -7.370  -0.854 126.901  0.00  0.00    +0.000 A 
ATOM      8  C   UNL     1      -8.074  -2.037 126.710  0.00  0.00    +0.000 A 
ATOM      9  C   UNL     1      -8.628  -2.308 125.467  0.00  0.00    +0.000 A 
ATOM     10  C   UNL     1      -8.498  -1.388 124.414  0.00  0.00    +0.000 A 
ENDROOT
BRANCH  10  11
ATOM     11  C   UNL     1      -9.097  -1.682 123.065  0.00  0.00    +0.000 C 
ATOM     12  F   UNL     1      -9.911  -0.694 122.599  0.00  0.00    +0.000 F 
ATOM     13  F   UNL     1      -8.170  -1.917 122.094  0.00  0.00    +0.000 F 
ATOM     14  F   UNL     1      -9.881  -2.804 123.078  0.00  0.00    +0.000 F 
ENDBRANCH  10  11
BRANCH   3  15
ATOM     15  C   UNL     1      -6.849   2.737 122.493  0.00  0.00    +0.000 C 
ATOM     16  F   UNL     1      -8.055   2.947 121.883  0.00  0.00    +0.000 F 
ATOM     17  F   UNL     1      -6.450   3.972 122.925  0.00  0.00    +0.000 F 
ATOM     18  F   UNL     1      -5.984   2.391 121.501  0.00  0.00    +0.000 F 
ENDBRANCH   3  15
BRANCH   1  19
ATOM     19  C   UNL     1      -5.713   1.716 127.217  0.00  0.00    +0.000 C 
BRANCH  19  20
ATOM     20  C   UNL     1      -4.821   3.012 127.062  0.00  0.00    +0.000 C 
ATOM     21  C   UNL     1      -3.330   2.646 127.002  0.00  0.00    +0.000 C 
ATOM     22  C   UNL     1      -2.464   3.899 126.856  0.00  0.00    +0.000 C 
ATOM     23  C   UNL     1      -2.786   4.916 127.944  0.00  0.00    +0.000 C 
ATOM     24  C   UNL     1      -4.268   5.232 127.961  0.00  0.00    +0.000 C 
ATOM     25  N   UNL     1      -5.045   4.020 128.115  0.00  0.00    +0.000 NA
ATOM     26  H   UNL     1      -6.020   4.302 128.098  0.00  0.00    +0.000 HD
ENDBRANCH  19  20
BRANCH  19  27
ATOM     27  O   UNL     1      -4.882   0.627 127.650  0.00  0.00    +0.000 OA
ATOM     28  H   UNL     1      -4.051   0.686 127.149  0.00  0.00    +0.000 HD
ENDBRANCH  19  27
ENDBRANCH   1  19
TORSDOF 5
ENDMDL
MODEL 9
REMARK VINA RESULT:      -7.1      3.379      4.857
REMARK  Name = Mefloquine
REMARK  5 active torsions:
REMARK  status: ('A' for Active; 'I' for Inactive)
REMARK    1  A    between atoms: O_1  and  C_2
REMARK    2  A    between atoms: C_2  and  C_3
REMARK    3  A    between atoms: C_2  and  C_9
REMARK    4  A    between atoms: C_11  and  C_23
REMARK    5  A    between atoms: C_18  and  C_19
REMARK                            x       y       z     vdW  Elec       q    Type
REMARK                         _______ _______ _______ _____ _____    ______ ____
ROOT
ATOM      1  C   UNL     1      -7.338   0.513 127.166  0.00  0.00    +0.000 A 
ATOM      2  C   UNL     1      -7.613  -0.416 128.181  0.00  0.00    +0.000 A 
ATOM      3  C   UNL     1      -7.887  -1.737 127.889  0.00  0.00    +0.000 A 
ATOM      4  N   UNL     1      -8.053  -2.140 126.610  0.00  0.00    +0.000 NA
ATOM      5  C   UNL     1      -7.934  -1.249 125.615  0.00  0.00    +0.000 A 
ATOM      6  C   UNL     1      -7.533   0.102 125.830  0.00  0.00    +0.000 A 
ATOM      7  C   UNL     1      -7.391   0.953 124.713  0.00  0.00    +0.000 A 
ATOM      8  C   UNL     1      -7.695   0.514 123.430  0.00  0.00    +0.000 A 
ATOM      9  C   UNL     1      -8.124  -0.792 123.240  0.00  0.00    +0.000 A 
ATOM     10  C   UNL     1      -8.231  -1.672 124.329  0.00  0.00    +0.000 A 
ENDROOT
BRANCH  10  11
ATOM     11  C   UNL     1      -8.697  -3.088 124.123  0.00  0.00    +0.000 C 
ATOM     12  F   UNL     1      -7.730  -4.022 124.346  0.00  0.00    +0.000 F 
ATOM     13  F   UNL     1      -9.762  -3.432 124.902  0.00  0.00    +0.000 F 
ATOM     14  F   UNL     1      -9.116  -3.317 122.840  0.00  0.00    +0.000 F 
ENDBRANCH  10  11
BRANCH   3  15
ATOM     15  C   UNL     1      -7.971  -2.718 129.047  0.00  0.00    +0.000 C 
ATOM     16  F   UNL     1      -8.945  -3.661 128.864  0.00  0.00    +0.000 F 
ATOM     17  F   UNL     1      -6.814  -3.429 129.201  0.00  0.00    +0.000 F 
ATOM     18  F   UNL     1      -8.224  -2.150 130.258  0.00  0.00    +0.000 F 
ENDBRANCH   3  15
BRANCH   1  19
ATOM     19  C   UNL     1      -6.865   1.898 127.590  0.00  0.00    +0.000 C 
BRANCH  19  20
ATOM     20  C   UNL     1      -5.298   2.081 127.695  0.00  0.00    +0.000 C 
ATOM     21  C   UNL     1      -4.932   2.996 128.874  0.00  0.00    +0.000 C 
ATOM     22  C   UNL     1      -3.417   3.180 128.976  0.00  0.00    +0.000 C 
ATOM     23  C   UNL     1      -2.833   3.652 127.649  0.00  0.00    +0.000 C 
ATOM     24  C   UNL     1      -3.232   2.717 126.524  0.00  0.00    +0.000 C 
ATOM     25  N   UNL     1      -4.673   2.587 126.459  0.00  0.00    +0.000 NA
ATOM     26  H   UNL     1      -4.866   1.937 125.703  0.00  0.00    +0.000 HD
ENDBRANCH  19  20
BRANCH  19  27
ATOM     27  O   UNL     1      -7.450   2.134 128.881  0.00  0.00    +0.000 OA
ATOM     28  H   UNL     1      -7.728   3.065 128.901  0.00  0.00    +0.000 HD
ENDBRANCH  19  27
ENDBRANCH   1  19
TORSDOF 5
ENDMDL
