MODEL 1
REMARK VINA RESULT:     -10.0      0.000      0.000
REMARK  Name = Megestrol acetate
REMARK  8 active torsions:
REMARK  status: ('A' for Active; 'I' for Inactive)
REMARK    1  A    between atoms: C_5  and  O_6
REMARK    2  A    between atoms: C_5  and  C_10
REMARK    3  A    between atoms: O_6  and  C_7
REMARK    4  A    between atoms: C_7  and  C_8
REMARK    5  A    between atoms: C_10  and  C_11
REMARK    6  A    between atoms: C_13  and  C_14
REMARK    7  A    between atoms: C_22  and  C_23
REMARK    8  A    between atoms: C_30  and  C_31
REMARK                            x       y       z     vdW  Elec       q    Type
REMARK                         _______ _______ _______ _____ _____    ______ ____
ROOT
ATOM      1  C   UNL     1      -5.920  -3.891 131.178  0.00  0.00    +0.000 C 
ATOM      2  C   UNL     1      -5.666  -5.228 130.774  0.00  0.00    +0.000 C 
ATOM      3  C   UNL     1      -4.867  -4.134 130.212  0.00  0.00    +0.000 C 
ATOM      4  C   UNL     1      -5.053  -2.303 131.235  0.00  0.00    +0.000 C 
ATOM      5  C   UNL     1      -4.149  -3.345 131.417  0.00  0.00    +0.000 C 
ATOM      6  C   UNL     1      -3.668  -3.874 132.724  0.00  0.00    +0.000 C 
ATOM      7  C   UNL     1      -3.363  -2.606 129.896  0.00  0.00    +0.000 C 
ATOM      8  C   UNL     1      -4.462  -1.865 128.831  0.00  0.00    +0.000 C 
ATOM      9  C   UNL     1      -5.828  -2.603 128.412  0.00  0.00    +0.000 C 
ATOM     10  C   UNL     1      -6.729  -2.954 129.747  0.00  0.00    +0.000 C 
ATOM     11  C   UNL     1      -8.020  -3.609 129.454  0.00  0.00    +0.000 C 
ATOM     12  C   UNL     1      -8.581  -3.625 128.253  0.00  0.00    +0.000 C 
ATOM     13  C   UNL     1      -9.922  -4.273 128.141  0.00  0.00    +0.000 C 
ATOM     14  C   UNL     1      -7.999  -2.917 127.134  0.00  0.00    +0.000 C 
ATOM     15  C   UNL     1      -8.528  -3.055 125.915  0.00  0.00    +0.000 C 
ATOM     16  C   UNL     1      -7.969  -2.120 124.951  0.00  0.00    +0.000 C 
ATOM     17  O   UNL     1      -8.188  -0.912 124.921  0.00  0.00    +0.000 OA
ATOM     18  C   UNL     1      -6.746  -2.622 124.377  0.00  0.00    +0.000 C 
ATOM     19  C   UNL     1      -5.917  -2.089 125.761  0.00  0.00    +0.000 C 
ATOM     20  C   UNL     1      -6.755  -2.010 127.297  0.00  0.00    +0.000 C 
ATOM     21  C   UNL     1      -7.253  -0.643 127.868  0.00  0.00    +0.000 C 
ENDROOT
BRANCH   4  22
ATOM     22  C   UNL     1      -3.981  -1.096 131.923  0.00  0.00    +0.000 C 
ATOM     23  C   UNL     1      -2.871  -1.363 133.010  0.00  0.00    +0.000 C 
ATOM     24  O   UNL     1      -4.087   0.097 131.576  0.00  0.00    +0.000 OA
ENDBRANCH   4  22
BRANCH   4  25
ATOM     25  O   UNL     1      -5.839  -2.179 132.743  0.00  0.00    +0.000 OA
BRANCH  25  26
ATOM     26  C   UNL     1      -7.046  -1.710 133.254  0.00  0.00    +0.000 C 
ATOM     27  C   UNL     1      -7.880  -2.740 133.908  0.00  0.00    +0.000 C 
ATOM     28  O   UNL     1      -7.348  -0.530 133.335  0.00  0.00    +0.000 OA
ENDBRANCH  25  26
ENDBRANCH   4  25
TORSDOF 3
ENDMDL
MODEL 2
REMARK VINA RESULT:      -8.7      2.247      7.063
REMARK  Name = Megestrol acetate
REMARK  8 active torsions:
REMARK  status: ('A' for Active; 'I' for Inactive)
REMARK    1  A    between atoms: C_5  and  O_6
REMARK    2  A    between atoms: C_5  and  C_10
REMARK    3  A    between atoms: O_6  and  C_7
REMARK    4  A    between atoms: C_7  and  C_8
REMARK    5  A    between atoms: C_10  and  C_11
REMARK    6  A    between atoms: C_13  and  C_14
REMARK    7  A    between atoms: C_22  and  C_23
REMARK    8  A    between atoms: C_30  and  C_31
REMARK                            x       y       z     vdW  Elec       q    Type
REMARK                         _______ _______ _______ _____ _____    ______ ____
ROOT
ATOM      1  C   UNL     1      -7.946  -3.276 126.151  0.00  0.00    +0.000 C 
ATOM      2  C   UNL     1      -9.052  -3.827 126.850  0.00  0.00    +0.000 C 
ATOM      3  C   UNL     1      -9.090  -2.426 126.416  0.00  0.00    +0.000 C 
ATOM      4  C   UNL     1      -7.602  -1.905 125.020  0.00  0.00    +0.000 C 
ATOM      5  C   UNL     1      -8.897  -2.374 124.819  0.00  0.00    +0.000 C 
ATOM      6  C   UNL     1      -9.323  -3.367 123.793  0.00  0.00    +0.000 C 
ATOM      7  C   UNL     1      -9.341  -0.615 125.252  0.00  0.00    +0.000 C 
ATOM      8  C   UNL     1      -8.267   0.131 126.339  0.00  0.00    +0.000 C 
ATOM      9  C   UNL     1      -7.779  -0.632 127.668  0.00  0.00    +0.000 C 
ATOM     10  C   UNL     1      -7.043  -2.056 127.281  0.00  0.00    +0.000 C 
ATOM     11  C   UNL     1      -6.535  -2.813 128.443  0.00  0.00    +0.000 C 
ATOM     12  C   UNL     1      -6.365  -2.285 129.648  0.00  0.00    +0.000 C 
ATOM     13  C   UNL     1      -5.778  -3.170 130.698  0.00  0.00    +0.000 C 
ATOM     14  C   UNL     1      -6.593  -0.879 129.898  0.00  0.00    +0.000 C 
ATOM     15  C   UNL     1      -6.527  -0.410 131.148  0.00  0.00    +0.000 C 
ATOM     16  C   UNL     1      -6.565   1.043 131.206  0.00  0.00    +0.000 C 
ATOM     17  O   UNL     1      -5.655   1.793 130.865  0.00  0.00    +0.000 OA
ATOM     18  C   UNL     1      -7.919   1.537 131.189  0.00  0.00    +0.000 C 
ATOM     19  C   UNL     1      -7.932   1.346 129.501  0.00  0.00    +0.000 C 
ATOM     20  C   UNL     1      -6.936   0.111 128.759  0.00  0.00    +0.000 C 
ATOM     21  C   UNL     1      -5.593   0.484 128.052  0.00  0.00    +0.000 C 
ENDROOT
BRANCH   4  22
ATOM     22  C   UNL     1      -7.522  -1.108 123.459  0.00  0.00    +0.000 C 
ATOM     23  C   UNL     1      -6.946   0.334 123.189  0.00  0.00    +0.000 C 
ATOM     24  O   UNL     1      -7.977  -1.679 122.447  0.00  0.00    +0.000 OA
ENDBRANCH   4  22
BRANCH   4  25
ATOM     25  O   UNL     1      -6.623  -3.072 124.255  0.00  0.00    +0.000 OA
BRANCH  25  26
ATOM     26  C   UNL     1      -5.270  -3.315 124.034  0.00  0.00    +0.000 C 
ATOM     27  C   UNL     1      -4.915  -4.743 123.902  0.00  0.00    +0.000 C 
ATOM     28  O   UNL     1      -4.446  -2.450 123.786  0.00  0.00    +0.000 OA
ENDBRANCH  25  26
ENDBRANCH   4  25
TORSDOF 3
ENDMDL
MODEL 3
REMARK VINA RESULT:      -8.7      3.701      5.696
REMARK  Name = Megestrol acetate
REMARK  8 active torsions:
REMARK  status: ('A' for Active; 'I' for Inactive)
REMARK    1  A    between atoms: C_5  and  O_6
REMARK    2  A    between atoms: C_5  and  C_10
REMARK    3  A    between atoms: O_6  and  C_7
REMARK    4  A    between atoms: C_7  and  C_8
REMARK    5  A    between atoms: C_10  and  C_11
REMARK    6  A    between atoms: C_13  and  C_14
REMARK    7  A    between atoms: C_22  and  C_23
REMARK    8  A    between atoms: C_30  and  C_31
REMARK                            x       y       z     vdW  Elec       q    Type
REMARK                         _______ _______ _______ _____ _____    ______ ____
ROOT
ATOM      1  C   UNL     1      -5.873   1.748 128.637  0.00  0.00    +0.000 C 
ATOM      2  C   UNL     1      -4.701   0.996 128.914  0.00  0.00    +0.000 C 
ATOM      3  C   UNL     1      -5.024   1.356 127.529  0.00  0.00    +0.000 C 
ATOM      4  C   UNL     1      -6.514   2.832 127.336  0.00  0.00    +0.000 C 
ATOM      5  C   UNL     1      -5.131   2.958 127.423  0.00  0.00    +0.000 C 
ATOM      6  C   UNL     1      -4.389   3.997 128.190  0.00  0.00    +0.000 C 
ATOM      7  C   UNL     1      -5.214   2.407 125.643  0.00  0.00    +0.000 C 
ATOM      8  C   UNL     1      -6.513   1.367 125.292  0.00  0.00    +0.000 C 
ATOM      9  C   UNL     1      -6.849   0.118 126.247  0.00  0.00    +0.000 C 
ATOM     10  C   UNL     1      -7.141   0.629 127.787  0.00  0.00    +0.000 C 
ATOM     11  C   UNL     1      -7.488  -0.453 128.731  0.00  0.00    +0.000 C 
ATOM     12  C   UNL     1      -7.867  -1.666 128.352  0.00  0.00    +0.000 C 
ATOM     13  C   UNL     1      -8.248  -2.624 129.433  0.00  0.00    +0.000 C 
ATOM     14  C   UNL     1      -8.049  -2.003 126.958  0.00  0.00    +0.000 C 
ATOM     15  C   UNL     1      -8.314  -3.266 126.611  0.00  0.00    +0.000 C 
ATOM     16  C   UNL     1      -8.681  -3.398 125.209  0.00  0.00    +0.000 C 
ATOM     17  O   UNL     1      -9.741  -3.028 124.713  0.00  0.00    +0.000 OA
ATOM     18  C   UNL     1      -7.516  -3.507 124.367  0.00  0.00    +0.000 C 
ATOM     19  C   UNL     1      -7.353  -1.817 124.431  0.00  0.00    +0.000 C 
ATOM     20  C   UNL     1      -7.926  -0.943 125.836  0.00  0.00    +0.000 C 
ATOM     21  C   UNL     1      -9.276  -0.157 125.795  0.00  0.00    +0.000 C 
ENDROOT
BRANCH   4  22
ATOM     22  C   UNL     1      -6.719   4.353 126.487  0.00  0.00    +0.000 C 
ATOM     23  C   UNL     1      -7.916   4.718 125.528  0.00  0.00    +0.000 C 
ATOM     24  O   UNL     1      -5.854   5.244 126.594  0.00  0.00    +0.000 OA
ENDBRANCH   4  22
BRANCH   4  25
ATOM     25  O   UNL     1      -7.089   3.725 128.670  0.00  0.00    +0.000 OA
BRANCH  25  26
ATOM     26  C   UNL     1      -8.303   4.177 129.177  0.00  0.00    +0.000 C 
ATOM     27  C   UNL     1      -9.084   3.157 129.909  0.00  0.00    +0.000 C 
ATOM     28  O   UNL     1      -8.650   5.347 129.194  0.00  0.00    +0.000 OA
ENDBRANCH  25  26
ENDBRANCH   4  25
TORSDOF 3
ENDMDL
MODEL 4
REMARK VINA RESULT:      -8.7      2.884      4.167
REMARK  Name = Megestrol acetate
REMARK  8 active torsions:
REMARK  status: ('A' for Active; 'I' for Inactive)
REMARK    1  A    between atoms: C_5  and  O_6
REMARK    2  A    between atoms: C_5  and  C_10
REMARK    3  A    between atoms: O_6  and  C_7
REMARK    4  A    between atoms: C_7  and  C_8
REMARK    5  A    between atoms: C_10  and  C_11
REMARK    6  A    between atoms: C_13  and  C_14
REMARK    7  A    between atoms: C_22  and  C_23
REMARK    8  A    between atoms: C_30  and  C_31
REMARK                            x       y       z     vdW  Elec       q    Type
REMARK                         _______ _______ _______ _____ _____    ______ ____
ROOT
ATOM      1  C   UNL     1      -6.336  -0.043 129.445  0.00  0.00    +0.000 C 
ATOM      2  C   UNL     1      -5.227  -0.929 129.431  0.00  0.00    +0.000 C 
ATOM      3  C   UNL     1      -5.365   0.081 128.376  0.00  0.00    +0.000 C 
ATOM      4  C   UNL     1      -6.782   1.584 128.788  0.00  0.00    +0.000 C 
ATOM      5  C   UNL     1      -5.418   1.537 129.059  0.00  0.00    +0.000 C 
ATOM      6  C   UNL     1      -4.752   2.010 130.305  0.00  0.00    +0.000 C 
ATOM      7  C   UNL     1      -5.290   1.924 127.239  0.00  0.00    +0.000 C 
ATOM      8  C   UNL     1      -6.560   1.296 126.299  0.00  0.00    +0.000 C 
ATOM      9  C   UNL     1      -7.045  -0.226 126.482  0.00  0.00    +0.000 C 
ATOM     10  C   UNL     1      -7.515  -0.501 128.038  0.00  0.00    +0.000 C 
ATOM     11  C   UNL     1      -8.005  -1.872 128.291  0.00  0.00    +0.000 C 
ATOM     12  C   UNL     1      -8.363  -2.714 127.332  0.00  0.00    +0.000 C 
ATOM     13  C   UNL     1      -8.901  -4.040 127.761  0.00  0.00    +0.000 C 
ATOM     14  C   UNL     1      -8.377  -2.318 125.941  0.00  0.00    +0.000 C 
ATOM     15  C   UNL     1      -8.628  -3.229 124.996  0.00  0.00    +0.000 C 
ATOM     16  C   UNL     1      -8.819  -2.636 123.682  0.00  0.00    +0.000 C 
ATOM     17  O   UNL     1      -9.799  -1.985 123.330  0.00  0.00    +0.000 OA
ATOM     18  C   UNL     1      -7.561  -2.420 123.012  0.00  0.00    +0.000 C 
ATOM     19  C   UNL     1      -7.365  -0.992 123.911  0.00  0.00    +0.000 C 
ATOM     20  C   UNL     1      -8.088  -0.862 125.501  0.00  0.00    +0.000 C 
ATOM     21  C   UNL     1      -9.402  -0.045 125.719  0.00  0.00    +0.000 C 
ENDROOT
BRANCH   4  22
ATOM     22  C   UNL     1      -6.840   3.337 128.777  0.00  0.00    +0.000 C 
ATOM     23  C   UNL     1      -5.916   4.294 129.622  0.00  0.00    +0.000 C 
ATOM     24  O   UNL     1      -7.691   3.925 128.080  0.00  0.00    +0.000 OA
ENDBRANCH   4  22
BRANCH   4  25
ATOM     25  O   UNL     1      -7.496   1.764 130.325  0.00  0.00    +0.000 OA
BRANCH  25  26
ATOM     26  C   UNL     1      -8.766   1.741 130.894  0.00  0.00    +0.000 C 
ATOM     27  C   UNL     1      -9.058   0.536 131.699  0.00  0.00    +0.000 C 
ATOM     28  O   UNL     1      -9.536   2.688 130.901  0.00  0.00    +0.000 OA
ENDBRANCH  25  26
ENDBRANCH   4  25
TORSDOF 3
ENDMDL
MODEL 5
REMARK VINA RESULT:      -8.5      1.921      4.118
REMARK  Name = Megestrol acetate
REMARK  8 active torsions:
REMARK  status: ('A' for Active; 'I' for Inactive)
REMARK    1  A    between atoms: C_5  and  O_6
REMARK    2  A    between atoms: C_5  and  C_10
REMARK    3  A    between atoms: O_6  and  C_7
REMARK    4  A    between atoms: C_7  and  C_8
REMARK    5  A    between atoms: C_10  and  C_11
REMARK    6  A    between atoms: C_13  and  C_14
REMARK    7  A    between atoms: C_22  and  C_23
REMARK    8  A    between atoms: C_30  and  C_31
REMARK                            x       y       z     vdW  Elec       q    Type
REMARK                         _______ _______ _______ _____ _____    ______ ____
ROOT
ATOM      1  C   UNL     1      -6.592  -0.408 130.099  0.00  0.00    +0.000 C 
ATOM      2  C   UNL     1      -7.688   0.492 130.150  0.00  0.00    +0.000 C 
ATOM      3  C   UNL     1      -7.909  -0.901 129.745  0.00  0.00    +0.000 C 
ATOM      4  C   UNL     1      -6.299  -2.194 130.157  0.00  0.00    +0.000 C 
ATOM      5  C   UNL     1      -7.410  -1.868 130.930  0.00  0.00    +0.000 C 
ATOM      6  C   UNL     1      -7.418  -1.627 132.400  0.00  0.00    +0.000 C 
ATOM      7  C   UNL     1      -8.265  -3.038 129.756  0.00  0.00    +0.000 C 
ATOM      8  C   UNL     1      -7.600  -3.071 128.192  0.00  0.00    +0.000 C 
ATOM      9  C   UNL     1      -7.252  -1.706 127.416  0.00  0.00    +0.000 C 
ATOM     10  C   UNL     1      -6.191  -0.797 128.291  0.00  0.00    +0.000 C 
ATOM     11  C   UNL     1      -5.792   0.467 127.638  0.00  0.00    +0.000 C 
ATOM     12  C   UNL     1      -5.976   0.720 126.350  0.00  0.00    +0.000 C 
ATOM     13  C   UNL     1      -5.453   2.020 125.834  0.00  0.00    +0.000 C 
ATOM     14  C   UNL     1      -6.519  -0.276 125.452  0.00  0.00    +0.000 C 
ATOM     15  C   UNL     1      -6.800   0.056 124.188  0.00  0.00    +0.000 C 
ATOM     16  C   UNL     1      -7.130  -1.097 123.365  0.00  0.00    +0.000 C 
ATOM     17  O   UNL     1      -6.332  -1.946 122.976  0.00  0.00    +0.000 OA
ATOM     18  C   UNL     1      -8.522  -1.451 123.486  0.00  0.00    +0.000 C 
ATOM     19  C   UNL     1      -8.155  -2.264 124.932  0.00  0.00    +0.000 C 
ATOM     20  C   UNL     1      -6.809  -1.724 125.914  0.00  0.00    +0.000 C 
ATOM     21  C   UNL     1      -5.449  -2.494 125.901  0.00  0.00    +0.000 C 
ENDROOT
BRANCH   4  22
ATOM     22  C   UNL     1      -6.060  -3.745 130.942  0.00  0.00    +0.000 C 
ATOM     23  C   UNL     1      -6.224  -4.032 132.482  0.00  0.00    +0.000 C 
ATOM     24  O   UNL     1      -5.699  -4.731 130.269  0.00  0.00    +0.000 OA
ENDBRANCH   4  22
BRANCH   4  25
ATOM     25  O   UNL     1      -4.977  -1.722 131.125  0.00  0.00    +0.000 OA
BRANCH  25  26
ATOM     26  C   UNL     1      -3.589  -1.817 131.113  0.00  0.00    +0.000 C 
ATOM     27  C   UNL     1      -2.939  -1.525 132.407  0.00  0.00    +0.000 C 
ATOM     28  O   UNL     1      -2.938  -2.272 130.186  0.00  0.00    +0.000 OA
ENDBRANCH  25  26
ENDBRANCH   4  25
TORSDOF 3
ENDMDL
MODEL 6
REMARK VINA RESULT:      -8.4      1.949      2.444
REMARK  Name = Megestrol acetate
REMARK  8 active torsions:
REMARK  status: ('A' for Active; 'I' for Inactive)
REMARK    1  A    between atoms: C_5  and  O_6
REMARK    2  A    between atoms: C_5  and  C_10
REMARK    3  A    between atoms: O_6  and  C_7
REMARK    4  A    between atoms: C_7  and  C_8
REMARK    5  A    between atoms: C_10  and  C_11
REMARK    6  A    between atoms: C_13  and  C_14
REMARK    7  A    between atoms: C_22  and  C_23
REMARK    8  A    between atoms: C_30  and  C_31
REMARK                            x       y       z     vdW  Elec       q    Type
REMARK                         _______ _______ _______ _____ _____    ______ ____
ROOT
ATOM      1  C   UNL     1      -6.655  -1.746 131.262  0.00  0.00    +0.000 C 
ATOM      2  C   UNL     1      -5.991  -2.990 131.425  0.00  0.00    +0.000 C 
ATOM      3  C   UNL     1      -5.377  -1.940 130.605  0.00  0.00    +0.000 C 
ATOM      4  C   UNL     1      -6.246  -0.036 130.834  0.00  0.00    +0.000 C 
ATOM      5  C   UNL     1      -5.182  -0.625 131.510  0.00  0.00    +0.000 C 
ATOM      6  C   UNL     1      -4.907  -0.528 132.971  0.00  0.00    +0.000 C 
ATOM      7  C   UNL     1      -4.267  -0.202 129.941  0.00  0.00    +0.000 C 
ATOM      8  C   UNL     1      -5.231  -0.226 128.541  0.00  0.00    +0.000 C 
ATOM      9  C   UNL     1      -6.234  -1.450 128.253  0.00  0.00    +0.000 C 
ATOM     10  C   UNL     1      -7.309  -1.620 129.491  0.00  0.00    +0.000 C 
ATOM     11  C   UNL     1      -8.292  -2.707 129.297  0.00  0.00    +0.000 C 
ATOM     12  C   UNL     1      -8.532  -3.281 128.127  0.00  0.00    +0.000 C 
ATOM     13  C   UNL     1      -9.606  -4.319 128.090  0.00  0.00    +0.000 C 
ATOM     14  C   UNL     1      -7.896  -2.822 126.912  0.00  0.00    +0.000 C 
ATOM     15  C   UNL     1      -8.072  -3.502 125.774  0.00  0.00    +0.000 C 
ATOM     16  C   UNL     1      -7.550  -2.798 124.613  0.00  0.00    +0.000 C 
ATOM     17  O   UNL     1      -8.046  -1.798 124.105  0.00  0.00    +0.000 OA
ATOM     18  C   UNL     1      -6.140  -3.045 124.436  0.00  0.00    +0.000 C 
ATOM     19  C   UNL     1      -5.820  -1.866 125.616  0.00  0.00    +0.000 C 
ATOM     20  C   UNL     1      -6.989  -1.568 126.885  0.00  0.00    +0.000 C 
ATOM     21  C   UNL     1      -7.929  -0.321 126.832  0.00  0.00    +0.000 C 
ENDROOT
BRANCH   4  22
ATOM     22  C   UNL     1      -5.698   1.600 131.154  0.00  0.00    +0.000 C 
ATOM     23  C   UNL     1      -5.857   2.831 130.183  0.00  0.00    +0.000 C 
ATOM     24  O   UNL     1      -5.096   1.856 132.216  0.00  0.00    +0.000 OA
ENDBRANCH   4  22
BRANCH   4  25
ATOM     25  O   UNL     1      -7.371   0.310 132.067  0.00  0.00    +0.000 OA
BRANCH  25  26
ATOM     26  C   UNL     1      -8.683   0.761 132.185  0.00  0.00    +0.000 C 
ATOM     27  C   UNL     1      -8.816   2.130 132.725  0.00  0.00    +0.000 C 
ATOM     28  O   UNL     1      -9.654   0.181 131.730  0.00  0.00    +0.000 OA
ENDBRANCH  25  26
ENDBRANCH   4  25
TORSDOF 3
ENDMDL
MODEL 7
REMARK VINA RESULT:      -8.4      2.662      7.117
REMARK  Name = Megestrol acetate
REMARK  8 active torsions:
REMARK  status: ('A' for Active; 'I' for Inactive)
REMARK    1  A    between atoms: C_5  and  O_6
REMARK    2  A    between atoms: C_5  and  C_10
REMARK    3  A    between atoms: O_6  and  C_7
REMARK    4  A    between atoms: C_7  and  C_8
REMARK    5  A    between atoms: C_10  and  C_11
REMARK    6  A    between atoms: C_13  and  C_14
REMARK    7  A    between atoms: C_22  and  C_23
REMARK    8  A    between atoms: C_30  and  C_31
REMARK                            x       y       z     vdW  Elec       q    Type
REMARK                         _______ _______ _______ _____ _____    ______ ____
ROOT
ATOM      1  C   UNL     1      -8.722   0.066 125.433  0.00  0.00    +0.000 C 
ATOM      2  C   UNL     1     -10.094   0.176 125.780  0.00  0.00    +0.000 C 
ATOM      3  C   UNL     1      -9.098   0.997 126.478  0.00  0.00    +0.000 C 
ATOM      4  C   UNL     1      -7.209   1.052 125.550  0.00  0.00    +0.000 C 
ATOM      5  C   UNL     1      -8.310   1.887 125.393  0.00  0.00    +0.000 C 
ATOM      6  C   UNL     1      -8.809   2.453 124.109  0.00  0.00    +0.000 C 
ATOM      7  C   UNL     1      -7.715   2.574 127.022  0.00  0.00    +0.000 C 
ATOM      8  C   UNL     1      -6.943   1.436 128.021  0.00  0.00    +0.000 C 
ATOM      9  C   UNL     1      -7.588  -0.017 128.266  0.00  0.00    +0.000 C 
ATOM     10  C   UNL     1      -7.796  -0.806 126.834  0.00  0.00    +0.000 C 
ATOM     11  C   UNL     1      -8.359  -2.166 126.966  0.00  0.00    +0.000 C 
ATOM     12  C   UNL     1      -8.390  -2.842 128.106  0.00  0.00    +0.000 C 
ATOM     13  C   UNL     1      -8.932  -4.232 128.054  0.00  0.00    +0.000 C 
ATOM     14  C   UNL     1      -7.789  -2.320 129.314  0.00  0.00    +0.000 C 
ATOM     15  C   UNL     1      -7.945  -2.975 130.468  0.00  0.00    +0.000 C 
ATOM     16  C   UNL     1      -7.110  -2.444 131.533  0.00  0.00    +0.000 C 
ATOM     17  O   UNL     1      -5.891  -2.572 131.613  0.00  0.00    +0.000 OA
ATOM     18  C   UNL     1      -7.738  -1.324 132.189  0.00  0.00    +0.000 C 
ATOM     19  C   UNL     1      -7.204  -0.326 130.922  0.00  0.00    +0.000 C 
ATOM     20  C   UNL     1      -6.979  -1.001 129.322  0.00  0.00    +0.000 C 
ATOM     21  C   UNL     1      -5.549  -1.335 128.788  0.00  0.00    +0.000 C 
ENDROOT
BRANCH   4  22
ATOM     22  C   UNL     1      -6.060   2.275 125.038  0.00  0.00    +0.000 C 
ATOM     23  C   UNL     1      -6.222   3.227 123.792  0.00  0.00    +0.000 C 
ATOM     24  O   UNL     1      -4.991   2.422 125.663  0.00  0.00    +0.000 OA
ENDBRANCH   4  22
BRANCH   4  25
ATOM     25  O   UNL     1      -6.944   0.429 123.986  0.00  0.00    +0.000 OA
BRANCH  25  26
ATOM     26  C   UNL     1      -6.727  -0.804 123.377  0.00  0.00    +0.000 C 
ATOM     27  C   UNL     1      -5.719  -1.652 124.046  0.00  0.00    +0.000 C 
ATOM     28  O   UNL     1      -7.414  -1.257 122.476  0.00  0.00    +0.000 OA
ENDBRANCH  25  26
ENDBRANCH   4  25
TORSDOF 3
ENDMDL
MODEL 8
REMARK VINA RESULT:      -8.3      1.810      3.599
REMARK  Name = Megestrol acetate
REMARK  8 active torsions:
REMARK  status: ('A' for Active; 'I' for Inactive)
REMARK    1  A    between atoms: C_5  and  O_6
REMARK    2  A    between atoms: C_5  and  C_10
REMARK    3  A    between atoms: O_6  and  C_7
REMARK    4  A    between atoms: C_7  and  C_8
REMARK    5  A    between atoms: C_10  and  C_11
REMARK    6  A    between atoms: C_13  and  C_14
REMARK    7  A    between atoms: C_22  and  C_23
REMARK    8  A    between atoms: C_30  and  C_31
REMARK                            x       y       z     vdW  Elec       q    Type
REMARK                         _______ _______ _______ _____ _____    ______ ____
ROOT
ATOM      1  C   UNL     1      -7.326  -0.130 130.835  0.00  0.00    +0.000 C 
ATOM      2  C   UNL     1      -8.710  -0.009 131.126  0.00  0.00    +0.000 C 
ATOM      3  C   UNL     1      -8.140  -1.330 130.839  0.00  0.00    +0.000 C 
ATOM      4  C   UNL     1      -6.036  -1.399 130.882  0.00  0.00    +0.000 C 
ATOM      5  C   UNL     1      -6.962  -1.625 131.895  0.00  0.00    +0.000 C 
ATOM      6  C   UNL     1      -6.843  -1.178 133.311  0.00  0.00    +0.000 C 
ATOM      7  C   UNL     1      -7.163  -3.256 131.014  0.00  0.00    +0.000 C 
ATOM      8  C   UNL     1      -6.904  -3.182 129.336  0.00  0.00    +0.000 C 
ATOM      9  C   UNL     1      -7.572  -2.019 128.449  0.00  0.00    +0.000 C 
ATOM     10  C   UNL     1      -7.110  -0.535 128.999  0.00  0.00    +0.000 C 
ATOM     11  C   UNL     1      -7.657   0.598 128.223  0.00  0.00    +0.000 C 
ATOM     12  C   UNL     1      -8.184   0.474 127.013  0.00  0.00    +0.000 C 
ATOM     13  C   UNL     1      -8.630   1.729 126.337  0.00  0.00    +0.000 C 
ATOM     14  C   UNL     1      -8.191  -0.793 126.315  0.00  0.00    +0.000 C 
ATOM     15  C   UNL     1      -8.837  -0.903 125.150  0.00  0.00    +0.000 C 
ATOM     16  C   UNL     1      -8.570  -2.165 124.477  0.00  0.00    +0.000 C 
ATOM     17  O   UNL     1      -7.514  -2.471 123.932  0.00  0.00    +0.000 OA
ATOM     18  C   UNL     1      -9.439  -3.212 124.954  0.00  0.00    +0.000 C 
ATOM     19  C   UNL     1      -8.409  -3.411 126.291  0.00  0.00    +0.000 C 
ATOM     20  C   UNL     1      -7.485  -2.047 126.886  0.00  0.00    +0.000 C 
ATOM     21  C   UNL     1      -5.963  -1.907 126.561  0.00  0.00    +0.000 C 
ENDROOT
BRANCH   4  22
ATOM     22  C   UNL     1      -4.794  -2.382 131.636  0.00  0.00    +0.000 C 
ATOM     23  C   UNL     1      -4.576  -2.561 133.187  0.00  0.00    +0.000 C 
ATOM     24  O   UNL     1      -3.966  -2.988 130.926  0.00  0.00    +0.000 OA
ENDBRANCH   4  22
BRANCH   4  25
ATOM     25  O   UNL     1      -5.094  -0.106 131.472  0.00  0.00    +0.000 OA
BRANCH  25  26
ATOM     26  C   UNL     1      -4.343   0.953 130.968  0.00  0.00    +0.000 C 
ATOM     27  C   UNL     1      -3.861   1.906 131.989  0.00  0.00    +0.000 C 
ATOM     28  O   UNL     1      -3.945   1.028 129.817  0.00  0.00    +0.000 OA
ENDBRANCH  25  26
ENDBRANCH   4  25
TORSDOF 3
ENDMDL
MODEL 9
REMARK VINA RESULT:      -8.3      5.516      8.978
REMARK  Name = Megestrol acetate
REMARK  8 active torsions:
REMARK  status: ('A' for Active; 'I' for Inactive)
REMARK    1  A    between atoms: C_5  and  O_6
REMARK    2  A    between atoms: C_5  and  C_10
REMARK    3  A    between atoms: O_6  and  C_7
REMARK    4  A    between atoms: C_7  and  C_8
REMARK    5  A    between atoms: C_10  and  C_11
REMARK    6  A    between atoms: C_13  and  C_14
REMARK    7  A    between atoms: C_22  and  C_23
REMARK    8  A    between atoms: C_30  and  C_31
REMARK                            x       y       z     vdW  Elec       q    Type
REMARK                         _______ _______ _______ _____ _____    ______ ____
ROOT
ATOM      1  C   UNL     1      -5.316   2.916 127.899  0.00  0.00    +0.000 C 
ATOM      2  C   UNL     1      -4.501   2.254 128.854  0.00  0.00    +0.000 C 
ATOM      3  C   UNL     1      -5.923   1.909 128.747  0.00  0.00    +0.000 C 
ATOM      4  C   UNL     1      -6.867   2.633 127.009  0.00  0.00    +0.000 C 
ATOM      5  C   UNL     1      -6.224   1.422 127.243  0.00  0.00    +0.000 C 
ATOM      6  C   UNL     1      -5.326   0.705 126.295  0.00  0.00    +0.000 C 
ATOM      7  C   UNL     1      -7.811   1.033 128.143  0.00  0.00    +0.000 C 
ATOM      8  C   UNL     1      -8.565   2.384 128.846  0.00  0.00    +0.000 C 
ATOM      9  C   UNL     1      -7.718   3.446 129.707  0.00  0.00    +0.000 C 
ATOM     10  C   UNL     1      -6.500   4.086 128.798  0.00  0.00    +0.000 C 
ATOM     11  C   UNL     1      -5.684   5.097 129.502  0.00  0.00    +0.000 C 
ATOM     12  C   UNL     1      -6.062   5.698 130.622  0.00  0.00    +0.000 C 
ATOM     13  C   UNL     1      -5.149   6.746 131.169  0.00  0.00    +0.000 C 
ATOM     14  C   UNL     1      -7.364   5.463 131.206  0.00  0.00    +0.000 C 
ATOM     15  C   UNL     1      -7.661   5.994 132.396  0.00  0.00    +0.000 C 
ATOM     16  C   UNL     1      -9.067   5.847 132.741  0.00  0.00    +0.000 C 
ATOM     17  O   UNL     1      -9.994   6.462 132.223  0.00  0.00    +0.000 OA
ATOM     18  C   UNL     1      -9.330   4.567 133.349  0.00  0.00    +0.000 C 
ATOM     19  C   UNL     1      -9.374   3.877 131.797  0.00  0.00    +0.000 C 
ATOM     20  C   UNL     1      -8.432   4.590 130.504  0.00  0.00    +0.000 C 
ATOM     21  C   UNL     1      -9.112   5.481 129.415  0.00  0.00    +0.000 C 
ENDROOT
BRANCH   4  22
ATOM     22  C   UNL     1      -7.872   1.988 125.724  0.00  0.00    +0.000 C 
ATOM     23  C   UNL     1      -7.458   0.852 124.714  0.00  0.00    +0.000 C 
ATOM     24  O   UNL     1      -9.012   2.458 125.533  0.00  0.00    +0.000 OA
ENDBRANCH   4  22
BRANCH   4  25
ATOM     25  O   UNL     1      -5.991   3.315 125.714  0.00  0.00    +0.000 OA
BRANCH  25  26
ATOM     26  C   UNL     1      -5.979   4.490 124.968  0.00  0.00    +0.000 C 
ATOM     27  C   UNL     1      -5.636   4.309 123.542  0.00  0.00    +0.000 C 
ATOM     28  O   UNL     1      -6.383   5.567 125.373  0.00  0.00    +0.000 OA
ENDBRANCH  25  26
ENDBRANCH   4  25
TORSDOF 3
ENDMDL
