MODEL 1
REMARK VINA RESULT:      -4.6      0.000      0.000
REMARK  Name = Meglumine
REMARK  12 active torsions:
REMARK  status: ('A' for Active; 'I' for Inactive)
REMARK    1  A    between atoms: C_1  and  N_2
REMARK    2  A    between atoms: N_2  and  C_3
REMARK    3  A    between atoms: C_3  and  C_4
REMARK    4  A    between atoms: C_4  and  O_5
REMARK    5  A    between atoms: C_4  and  C_6
REMARK    6  A    between atoms: C_6  and  O_7
REMARK    7  A    between atoms: C_6  and  C_8
REMARK    8  A    between atoms: C_8  and  O_9
REMARK    9  A    between atoms: C_8  and  C_10
REMARK   10  A    between atoms: C_10  and  O_11
REMARK   11  A    between atoms: C_10  and  C_12
REMARK   12  A    between atoms: C_12  and  O_13
REMARK                            x       y       z     vdW  Elec       q    Type
REMARK                         _______ _______ _______ _____ _____    ______ ____
ROOT
ATOM      1  C   UNL     1     -12.789   7.055 129.309  0.00  0.00    +0.000 C 
ENDROOT
BRANCH   1   2
ATOM      2  O   UNL     1     -12.306   5.756 128.939  0.00  0.00    +0.000 OA
ATOM      3  H   UNL     1     -11.348   5.744 129.114  0.00  0.00    +0.000 HD
ENDBRANCH   1   2
BRANCH   1   4
ATOM      4  C   UNL     1     -12.306   7.419 130.728  0.00  0.00    +0.000 C 
BRANCH   4   5
ATOM      5  O   UNL     1     -13.377   7.282 131.673  0.00  0.00    +0.000 OA
ATOM      6  H   UNL     1     -13.869   8.127 131.728  0.00  0.00    +0.000 HD
ENDBRANCH   4   5
BRANCH   4   7
ATOM      7  C   UNL     1     -10.989   6.664 131.070  0.00  0.00    +0.000 C 
BRANCH   7   9
ATOM      8  C   UNL     1      -8.580   6.798 130.973  0.00  0.00    +0.000 C 
ATOM      9  N   UNL     1      -9.834   7.118 130.304  0.00  0.00    +0.000 NA
ATOM     10  H   UNL     1      -9.860   6.680 129.382  0.00  0.00    +0.000 HD
ENDBRANCH   7   9
ENDBRANCH   4   7
ENDBRANCH   1   4
BRANCH   1  11
ATOM     11  C   UNL     1     -12.512   8.067 128.163  0.00  0.00    +0.000 C 
BRANCH  11  12
ATOM     12  O   UNL     1     -11.644   9.095 128.674  0.00  0.00    +0.000 OA
ATOM     13  H   UNL     1     -10.806   9.129 128.193  0.00  0.00    +0.000 HD
ENDBRANCH  11  12
BRANCH  11  14
ATOM     14  C   UNL     1     -12.116   7.564 126.727  0.00  0.00    +0.000 C 
BRANCH  14  15
ATOM     15  O   UNL     1     -12.693   6.338 126.280  0.00  0.00    +0.000 OA
ATOM     16  H   UNL     1     -12.056   5.786 125.784  0.00  0.00    +0.000 HD
ENDBRANCH  14  15
BRANCH  14  17
ATOM     17  C   UNL     1     -10.602   7.511 126.488  0.00  0.00    +0.000 C 
BRANCH  17  18
ATOM     18  O   UNL     1      -9.957   6.682 127.439  0.00  0.00    +0.000 OA
ATOM     19  H   UNL     1      -9.860   5.799 127.041  0.00  0.00    +0.000 HD
ENDBRANCH  17  18
ENDBRANCH  14  17
ENDBRANCH  11  14
ENDBRANCH   1  11
TORSDOF 11
ENDMDL
MODEL 2
REMARK VINA RESULT:      -4.5      1.905      2.673
REMARK  Name = Meglumine
REMARK  12 active torsions:
REMARK  status: ('A' for Active; 'I' for Inactive)
REMARK    1  A    between atoms: C_1  and  N_2
REMARK    2  A    between atoms: N_2  and  C_3
REMARK    3  A    between atoms: C_3  and  C_4
REMARK    4  A    between atoms: C_4  and  O_5
REMARK    5  A    between atoms: C_4  and  C_6
REMARK    6  A    between atoms: C_6  and  O_7
REMARK    7  A    between atoms: C_6  and  C_8
REMARK    8  A    between atoms: C_8  and  O_9
REMARK    9  A    between atoms: C_8  and  C_10
REMARK   10  A    between atoms: C_10  and  O_11
REMARK   11  A    between atoms: C_10  and  C_12
REMARK   12  A    between atoms: C_12  and  O_13
REMARK                            x       y       z     vdW  Elec       q    Type
REMARK                         _______ _______ _______ _____ _____    ______ ____
ROOT
ATOM      1  C   UNL     1     -11.538   6.402 129.744  0.00  0.00    +0.000 C 
ENDROOT
BRANCH   1   2
ATOM      2  O   UNL     1     -12.619   5.962 128.910  0.00  0.00    +0.000 OA
ATOM      3  H   UNL     1     -13.202   5.409 129.462  0.00  0.00    +0.000 HD
ENDBRANCH   1   2
BRANCH   1   4
ATOM      4  C   UNL     1     -11.118   5.276 130.711  0.00  0.00    +0.000 C 
BRANCH   4   5
ATOM      5  O   UNL     1     -10.774   4.090 129.981  0.00  0.00    +0.000 OA
ATOM      6  H   UNL     1     -10.378   3.437 130.594  0.00  0.00    +0.000 HD
ENDBRANCH   4   5
BRANCH   4   7
ATOM      7  C   UNL     1     -10.054   5.791 131.722  0.00  0.00    +0.000 C 
BRANCH   7   9
ATOM      8  C   UNL     1      -9.169   4.167 133.274  0.00  0.00    +0.000 C 
ATOM      9  N   UNL     1     -10.171   5.201 133.051  0.00  0.00    +0.000 NA
ATOM     10  H   UNL     1     -10.072   5.940 133.748  0.00  0.00    +0.000 HD
ENDBRANCH   7   9
ENDBRANCH   4   7
ENDBRANCH   1   4
BRANCH   1  11
ATOM     11  C   UNL     1     -10.435   7.062 128.871  0.00  0.00    +0.000 C 
BRANCH  11  12
ATOM     12  O   UNL     1      -9.648   6.015 128.275  0.00  0.00    +0.000 OA
ATOM     13  H   UNL     1     -10.200   5.371 127.810  0.00  0.00    +0.000 HD
ENDBRANCH  11  12
BRANCH  11  14
ATOM     14  C   UNL     1     -10.789   8.227 127.876  0.00  0.00    +0.000 C 
BRANCH  14  15
ATOM     15  O   UNL     1     -11.947   9.008 128.168  0.00  0.00    +0.000 OA
ATOM     16  H   UNL     1     -11.855   9.936 127.870  0.00  0.00    +0.000 HD
ENDBRANCH  14  15
BRANCH  14  17
ATOM     17  C   UNL     1     -10.849   7.788 126.408  0.00  0.00    +0.000 C 
BRANCH  17  18
ATOM     18  O   UNL     1     -11.681   6.655 126.241  0.00  0.00    +0.000 OA
ATOM     19  H   UNL     1     -12.573   6.976 126.018  0.00  0.00    +0.000 HD
ENDBRANCH  17  18
ENDBRANCH  14  17
ENDBRANCH  11  14
ENDBRANCH   1  11
TORSDOF 11
ENDMDL
MODEL 3
REMARK VINA RESULT:      -4.3      2.238      4.202
REMARK  Name = Meglumine
REMARK  12 active torsions:
REMARK  status: ('A' for Active; 'I' for Inactive)
REMARK    1  A    between atoms: C_1  and  N_2
REMARK    2  A    between atoms: N_2  and  C_3
REMARK    3  A    between atoms: C_3  and  C_4
REMARK    4  A    between atoms: C_4  and  O_5
REMARK    5  A    between atoms: C_4  and  C_6
REMARK    6  A    between atoms: C_6  and  O_7
REMARK    7  A    between atoms: C_6  and  C_8
REMARK    8  A    between atoms: C_8  and  O_9
REMARK    9  A    between atoms: C_8  and  C_10
REMARK   10  A    between atoms: C_10  and  O_11
REMARK   11  A    between atoms: C_10  and  C_12
REMARK   12  A    between atoms: C_12  and  O_13
REMARK                            x       y       z     vdW  Elec       q    Type
REMARK                         _______ _______ _______ _____ _____    ______ ____
ROOT
ATOM      1  C   UNL     1     -10.892   7.454 129.860  0.00  0.00    +0.000 C 
ENDROOT
BRANCH   1   2
ATOM      2  O   UNL     1      -9.746   7.995 129.190  0.00  0.00    +0.000 OA
ATOM      3  H   UNL     1      -9.340   7.270 128.681  0.00  0.00    +0.000 HD
ENDBRANCH   1   2
BRANCH   1   4
ATOM      4  C   UNL     1     -11.979   7.071 128.835  0.00  0.00    +0.000 C 
BRANCH   4   5
ATOM      5  O   UNL     1     -12.452   5.738 129.080  0.00  0.00    +0.000 OA
ATOM      6  H   UNL     1     -13.228   5.777 129.677  0.00  0.00    +0.000 HD
ENDBRANCH   4   5
BRANCH   4   7
ATOM      7  C   UNL     1     -13.066   8.179 128.747  0.00  0.00    +0.000 C 
BRANCH   7   9
ATOM      8  C   UNL     1     -13.297  10.379 129.715  0.00  0.00    +0.000 C 
ATOM      9  N   UNL     1     -12.531   9.535 128.807  0.00  0.00    +0.000 NA
ATOM     10  H   UNL     1     -11.558   9.490 129.109  0.00  0.00    +0.000 HD
ENDBRANCH   7   9
ENDBRANCH   4   7
ENDBRANCH   1   4
BRANCH   1  11
ATOM     11  C   UNL     1     -10.444   6.375 130.884  0.00  0.00    +0.000 C 
BRANCH  11  12
ATOM     12  O   UNL     1     -11.584   6.013 131.683  0.00  0.00    +0.000 OA
ATOM     13  H   UNL     1     -12.398   6.416 131.352  0.00  0.00    +0.000 HD
ENDBRANCH  11  12
BRANCH  11  14
ATOM     14  C   UNL     1      -9.580   5.143 130.425  0.00  0.00    +0.000 C 
BRANCH  14  15
ATOM     15  O   UNL     1      -9.371   4.976 129.023  0.00  0.00    +0.000 OA
ATOM     16  H   UNL     1      -8.498   5.311 128.735  0.00  0.00    +0.000 HD
ENDBRANCH  14  15
BRANCH  14  17
ATOM     17  C   UNL     1     -10.049   3.808 131.016  0.00  0.00    +0.000 C 
BRANCH  17  18
ATOM     18  O   UNL     1     -11.347   3.469 130.565  0.00  0.00    +0.000 OA
ATOM     19  H   UNL     1     -11.300   2.578 130.176  0.00  0.00    +0.000 HD
ENDBRANCH  17  18
ENDBRANCH  14  17
ENDBRANCH  11  14
ENDBRANCH   1  11
TORSDOF 11
ENDMDL
MODEL 4
REMARK VINA RESULT:      -4.3      2.250      4.348
REMARK  Name = Meglumine
REMARK  12 active torsions:
REMARK  status: ('A' for Active; 'I' for Inactive)
REMARK    1  A    between atoms: C_1  and  N_2
REMARK    2  A    between atoms: N_2  and  C_3
REMARK    3  A    between atoms: C_3  and  C_4
REMARK    4  A    between atoms: C_4  and  O_5
REMARK    5  A    between atoms: C_4  and  C_6
REMARK    6  A    between atoms: C_6  and  O_7
REMARK    7  A    between atoms: C_6  and  C_8
REMARK    8  A    between atoms: C_8  and  O_9
REMARK    9  A    between atoms: C_8  and  C_10
REMARK   10  A    between atoms: C_10  and  O_11
REMARK   11  A    between atoms: C_10  and  C_12
REMARK   12  A    between atoms: C_12  and  O_13
REMARK                            x       y       z     vdW  Elec       q    Type
REMARK                         _______ _______ _______ _____ _____    ______ ____
ROOT
ATOM      1  C   UNL     1     -10.984   6.790 128.779  0.00  0.00    +0.000 C 
ENDROOT
BRANCH   1   2
ATOM      2  O   UNL     1     -12.226   6.094 128.952  0.00  0.00    +0.000 OA
ATOM      3  H   UNL     1     -12.378   6.010 129.911  0.00  0.00    +0.000 HD
ENDBRANCH   1   2
BRANCH   1   4
ATOM      4  C   UNL     1     -11.212   8.314 128.849  0.00  0.00    +0.000 C 
BRANCH   4   5
ATOM      5  O   UNL     1     -10.705   8.952 127.668  0.00  0.00    +0.000 OA
ATOM      6  H   UNL     1      -9.925   9.495 127.904  0.00  0.00    +0.000 HD
ENDBRANCH   4   5
BRANCH   4   7
ATOM      7  C   UNL     1     -12.689   8.632 129.218  0.00  0.00    +0.000 C 
BRANCH   7   9
ATOM      8  C   UNL     1     -13.418  10.807 129.972  0.00  0.00    +0.000 C 
ATOM      9  N   UNL     1     -13.122   9.966 128.819  0.00  0.00    +0.000 NA
ATOM     10  H   UNL     1     -12.387  10.394 128.255  0.00  0.00    +0.000 HD
ENDBRANCH   7   9
ENDBRANCH   4   7
ENDBRANCH   1   4
BRANCH   1  11
ATOM     11  C   UNL     1      -9.900   6.172 129.704  0.00  0.00    +0.000 C 
BRANCH  11  12
ATOM     12  O   UNL     1      -8.904   7.178 129.961  0.00  0.00    +0.000 OA
ATOM     13  H   UNL     1      -9.301   8.021 130.218  0.00  0.00    +0.000 HD
ENDBRANCH  11  12
BRANCH  11  14
ATOM     14  C   UNL     1     -10.309   5.350 130.981  0.00  0.00    +0.000 C 
BRANCH  14  15
ATOM     15  O   UNL     1     -11.148   4.213 130.786  0.00  0.00    +0.000 OA
ATOM     16  H   UNL     1     -10.668   3.461 130.384  0.00  0.00    +0.000 HD
ENDBRANCH  14  15
BRANCH  14  17
ATOM     17  C   UNL     1     -10.899   6.210 132.105  0.00  0.00    +0.000 C 
BRANCH  17  18
ATOM     18  O   UNL     1     -12.304   6.331 131.981  0.00  0.00    +0.000 OA
ATOM     19  H   UNL     1     -12.510   7.277 131.879  0.00  0.00    +0.000 HD
ENDBRANCH  17  18
ENDBRANCH  14  17
ENDBRANCH  11  14
ENDBRANCH   1  11
TORSDOF 11
ENDMDL
MODEL 5
REMARK VINA RESULT:      -4.1      2.156      4.371
REMARK  Name = Meglumine
REMARK  12 active torsions:
REMARK  status: ('A' for Active; 'I' for Inactive)
REMARK    1  A    between atoms: C_1  and  N_2
REMARK    2  A    between atoms: N_2  and  C_3
REMARK    3  A    between atoms: C_3  and  C_4
REMARK    4  A    between atoms: C_4  and  O_5
REMARK    5  A    between atoms: C_4  and  C_6
REMARK    6  A    between atoms: C_6  and  O_7
REMARK    7  A    between atoms: C_6  and  C_8
REMARK    8  A    between atoms: C_8  and  O_9
REMARK    9  A    between atoms: C_8  and  C_10
REMARK   10  A    between atoms: C_10  and  O_11
REMARK   11  A    between atoms: C_10  and  C_12
REMARK   12  A    between atoms: C_12  and  O_13
REMARK                            x       y       z     vdW  Elec       q    Type
REMARK                         _______ _______ _______ _____ _____    ______ ____
ROOT
ATOM      1  C   UNL     1     -12.301   6.335 130.307  0.00  0.00    +0.000 C 
ENDROOT
BRANCH   1   2
ATOM      2  O   UNL     1     -12.871   7.048 131.413  0.00  0.00    +0.000 OA
ATOM      3  H   UNL     1     -12.890   7.992 131.168  0.00  0.00    +0.000 HD
ENDBRANCH   1   2
BRANCH   1   4
ATOM      4  C   UNL     1     -11.929   7.315 129.175  0.00  0.00    +0.000 C 
BRANCH   4   5
ATOM      5  O   UNL     1     -11.434   6.598 128.034  0.00  0.00    +0.000 OA
ATOM      6  H   UNL     1     -11.782   5.683 128.053  0.00  0.00    +0.000 HD
ENDBRANCH   4   5
BRANCH   4   7
ATOM      7  C   UNL     1     -13.093   8.311 128.906  0.00  0.00    +0.000 C 
BRANCH   7   9
ATOM      8  C   UNL     1     -13.355  10.516 129.854  0.00  0.00    +0.000 C 
ATOM      9  N   UNL     1     -12.673   9.707 128.852  0.00  0.00    +0.000 NA
ATOM     10  H   UNL     1     -11.663   9.751 128.995  0.00  0.00    +0.000 HD
ENDBRANCH   7   9
ENDBRANCH   4   7
ENDBRANCH   1   4
BRANCH   1  11
ATOM     11  C   UNL     1     -11.204   5.361 130.817  0.00  0.00    +0.000 C 
BRANCH  11  12
ATOM     12  O   UNL     1     -10.784   4.540 129.712  0.00  0.00    +0.000 OA
ATOM     13  H   UNL     1     -10.711   3.610 129.963  0.00  0.00    +0.000 HD
ENDBRANCH  11  12
BRANCH  11  14
ATOM     14  C   UNL     1     -10.014   5.885 131.701  0.00  0.00    +0.000 C 
BRANCH  14  15
ATOM     15  O   UNL     1     -10.342   6.478 132.957  0.00  0.00    +0.000 OA
ATOM     16  H   UNL     1     -10.853   7.307 132.854  0.00  0.00    +0.000 HD
ENDBRANCH  14  15
BRANCH  14  17
ATOM     17  C   UNL     1      -9.054   6.817 130.952  0.00  0.00    +0.000 C 
BRANCH  17  18
ATOM     18  O   UNL     1      -8.457   6.166 129.846  0.00  0.00    +0.000 OA
ATOM     19  H   UNL     1      -8.418   5.215 130.051  0.00  0.00    +0.000 HD
ENDBRANCH  17  18
ENDBRANCH  14  17
ENDBRANCH  11  14
ENDBRANCH   1  11
TORSDOF 11
ENDMDL
MODEL 6
REMARK VINA RESULT:      -4.1      2.299      2.636
REMARK  Name = Meglumine
REMARK  12 active torsions:
REMARK  status: ('A' for Active; 'I' for Inactive)
REMARK    1  A    between atoms: C_1  and  N_2
REMARK    2  A    between atoms: N_2  and  C_3
REMARK    3  A    between atoms: C_3  and  C_4
REMARK    4  A    between atoms: C_4  and  O_5
REMARK    5  A    between atoms: C_4  and  C_6
REMARK    6  A    between atoms: C_6  and  O_7
REMARK    7  A    between atoms: C_6  and  C_8
REMARK    8  A    between atoms: C_8  and  O_9
REMARK    9  A    between atoms: C_8  and  C_10
REMARK   10  A    between atoms: C_10  and  O_11
REMARK   11  A    between atoms: C_10  and  C_12
REMARK   12  A    between atoms: C_12  and  O_13
REMARK                            x       y       z     vdW  Elec       q    Type
REMARK                         _______ _______ _______ _____ _____    ______ ____
ROOT
ATOM      1  C   UNL     1     -10.938   6.273 130.591  0.00  0.00    +0.000 C 
ENDROOT
BRANCH   1   2
ATOM      2  O   UNL     1     -11.073   5.066 129.829  0.00  0.00    +0.000 OA
ATOM      3  H   UNL     1     -10.537   4.384 130.273  0.00  0.00    +0.000 HD
ENDBRANCH   1   2
BRANCH   1   4
ATOM      4  C   UNL     1      -9.849   6.106 131.670  0.00  0.00    +0.000 C 
BRANCH   4   5
ATOM      5  O   UNL     1     -10.367   6.451 132.963  0.00  0.00    +0.000 OA
ATOM      6  H   UNL     1     -11.253   6.856 132.858  0.00  0.00    +0.000 HD
ENDBRANCH   4   5
BRANCH   4   7
ATOM      7  C   UNL     1      -9.172   4.710 131.554  0.00  0.00    +0.000 C 
BRANCH   7   9
ATOM      8  C   UNL     1      -9.162   3.093 133.347  0.00  0.00    +0.000 C 
ATOM      9  N   UNL     1      -9.907   3.642 132.221  0.00  0.00    +0.000 NA
ATOM     10  H   UNL     1     -10.803   4.010 132.542  0.00  0.00    +0.000 HD
ENDBRANCH   7   9
ENDBRANCH   4   7
ENDBRANCH   1   4
BRANCH   1  11
ATOM     11  C   UNL     1     -10.832   7.492 129.632  0.00  0.00    +0.000 C 
BRANCH  11  12
ATOM     12  O   UNL     1      -9.440   7.823 129.480  0.00  0.00    +0.000 OA
ATOM     13  H   UNL     1      -9.308   8.774 129.367  0.00  0.00    +0.000 HD
ENDBRANCH  11  12
BRANCH  11  14
ATOM     14  C   UNL     1     -11.638   7.524 128.283  0.00  0.00    +0.000 C 
BRANCH  14  15
ATOM     15  O   UNL     1     -12.595   6.487 128.066  0.00  0.00    +0.000 OA
ATOM     16  H   UNL     1     -13.324   6.770 127.478  0.00  0.00    +0.000 HD
ENDBRANCH  14  15
BRANCH  14  17
ATOM     17  C   UNL     1     -10.751   7.642 127.037  0.00  0.00    +0.000 C 
BRANCH  17  18
ATOM     18  O   UNL     1      -9.891   6.524 126.907  0.00  0.00    +0.000 OA
ATOM     19  H   UNL     1      -9.320   6.681 126.135  0.00  0.00    +0.000 HD
ENDBRANCH  17  18
ENDBRANCH  14  17
ENDBRANCH  11  14
ENDBRANCH   1  11
TORSDOF 11
ENDMDL
MODEL 7
REMARK VINA RESULT:      -4.1      1.925      2.959
REMARK  Name = Meglumine
REMARK  12 active torsions:
REMARK  status: ('A' for Active; 'I' for Inactive)
REMARK    1  A    between atoms: C_1  and  N_2
REMARK    2  A    between atoms: N_2  and  C_3
REMARK    3  A    between atoms: C_3  and  C_4
REMARK    4  A    between atoms: C_4  and  O_5
REMARK    5  A    between atoms: C_4  and  C_6
REMARK    6  A    between atoms: C_6  and  O_7
REMARK    7  A    between atoms: C_6  and  C_8
REMARK    8  A    between atoms: C_8  and  O_9
REMARK    9  A    between atoms: C_8  and  C_10
REMARK   10  A    between atoms: C_10  and  O_11
REMARK   11  A    between atoms: C_10  and  C_12
REMARK   12  A    between atoms: C_12  and  O_13
REMARK                            x       y       z     vdW  Elec       q    Type
REMARK                         _______ _______ _______ _____ _____    ______ ____
ROOT
ATOM      1  C   UNL     1     -11.234   6.550 131.022  0.00  0.00    +0.000 C 
ENDROOT
BRANCH   1   2
ATOM      2  O   UNL     1     -12.391   6.359 131.848  0.00  0.00    +0.000 OA
ATOM      3  H   UNL     1     -12.295   5.491 132.282  0.00  0.00    +0.000 HD
ENDBRANCH   1   2
BRANCH   1   4
ATOM      4  C   UNL     1     -10.661   5.187 130.583  0.00  0.00    +0.000 C 
BRANCH   4   5
ATOM      5  O   UNL     1     -10.105   5.279 129.263  0.00  0.00    +0.000 OA
ATOM      6  H   UNL     1      -9.807   6.198 129.102  0.00  0.00    +0.000 HD
ENDBRANCH   4   5
BRANCH   4   7
ATOM      7  C   UNL     1      -9.726   4.605 131.681  0.00  0.00    +0.000 C 
BRANCH   7   9
ATOM      8  C   UNL     1      -8.637   5.701 133.537  0.00  0.00    +0.000 C 
ATOM      9  N   UNL     1      -9.901   5.223 132.991  0.00  0.00    +0.000 NA
ATOM     10  H   UNL     1     -10.558   5.999 132.903  0.00  0.00    +0.000 HD
ENDBRANCH   7   9
ENDBRANCH   4   7
ENDBRANCH   1   4
BRANCH   1  11
ATOM     11  C   UNL     1     -11.542   7.600 129.919  0.00  0.00    +0.000 C 
BRANCH  11  12
ATOM     12  O   UNL     1     -10.296   8.005 129.325  0.00  0.00    +0.000 OA
ATOM     13  H   UNL     1      -9.541   7.573 129.745  0.00  0.00    +0.000 HD
ENDBRANCH  11  12
BRANCH  11  14
ATOM     14  C   UNL     1     -12.688   7.351 128.871  0.00  0.00    +0.000 C 
BRANCH  14  15
ATOM     15  O   UNL     1     -12.392   6.495 127.768  0.00  0.00    +0.000 OA
ATOM     16  H   UNL     1     -11.656   6.836 127.221  0.00  0.00    +0.000 HD
ENDBRANCH  14  15
BRANCH  14  17
ATOM     17  C   UNL     1     -13.325   8.639 128.337  0.00  0.00    +0.000 C 
BRANCH  17  18
ATOM     18  O   UNL     1     -12.698   9.789 128.876  0.00  0.00    +0.000 OA
ATOM     19  H   UNL     1     -12.680  10.467 128.179  0.00  0.00    +0.000 HD
ENDBRANCH  17  18
ENDBRANCH  14  17
ENDBRANCH  11  14
ENDBRANCH   1  11
TORSDOF 11
ENDMDL
MODEL 8
REMARK VINA RESULT:      -4.1      2.216      3.382
REMARK  Name = Meglumine
REMARK  12 active torsions:
REMARK  status: ('A' for Active; 'I' for Inactive)
REMARK    1  A    between atoms: C_1  and  N_2
REMARK    2  A    between atoms: N_2  and  C_3
REMARK    3  A    between atoms: C_3  and  C_4
REMARK    4  A    between atoms: C_4  and  O_5
REMARK    5  A    between atoms: C_4  and  C_6
REMARK    6  A    between atoms: C_6  and  O_7
REMARK    7  A    between atoms: C_6  and  C_8
REMARK    8  A    between atoms: C_8  and  O_9
REMARK    9  A    between atoms: C_8  and  C_10
REMARK   10  A    between atoms: C_10  and  O_11
REMARK   11  A    between atoms: C_10  and  C_12
REMARK   12  A    between atoms: C_12  and  O_13
REMARK                            x       y       z     vdW  Elec       q    Type
REMARK                         _______ _______ _______ _____ _____    ______ ____
ROOT
ATOM      1  C   UNL     1     -11.203   6.826 131.089  0.00  0.00    +0.000 C 
ENDROOT
BRANCH   1   2
ATOM      2  O   UNL     1     -12.314   6.182 131.728  0.00  0.00    +0.000 OA
ATOM      3  H   UNL     1     -12.861   5.787 131.025  0.00  0.00    +0.000 HD
ENDBRANCH   1   2
BRANCH   1   4
ATOM      4  C   UNL     1      -9.874   6.291 131.660  0.00  0.00    +0.000 C 
BRANCH   4   5
ATOM      5  O   UNL     1      -9.904   6.306 133.095  0.00  0.00    +0.000 OA
ATOM      6  H   UNL     1     -10.221   7.180 133.402  0.00  0.00    +0.000 HD
ENDBRANCH   4   5
BRANCH   4   7
ATOM      7  C   UNL     1      -9.498   4.936 130.997  0.00  0.00    +0.000 C 
BRANCH   7   9
ATOM      8  C   UNL     1      -9.814   2.621 131.608  0.00  0.00    +0.000 C 
ATOM      9  N   UNL     1     -10.465   3.872 131.240  0.00  0.00    +0.000 NA
ATOM     10  H   UNL     1     -11.098   4.168 131.985  0.00  0.00    +0.000 HD
ENDBRANCH   7   9
ENDBRANCH   4   7
ENDBRANCH   1   4
BRANCH   1  11
ATOM     11  C   UNL     1     -11.396   6.801 129.547  0.00  0.00    +0.000 C 
BRANCH  11  12
ATOM     12  O   UNL     1     -12.198   5.654 129.214  0.00  0.00    +0.000 OA
ATOM     13  H   UNL     1     -12.153   4.973 129.899  0.00  0.00    +0.000 HD
ENDBRANCH  11  12
BRANCH  11  14
ATOM     14  C   UNL     1     -11.806   8.104 128.768  0.00  0.00    +0.000 C 
BRANCH  14  15
ATOM     15  O   UNL     1     -10.761   8.850 128.145  0.00  0.00    +0.000 OA
ATOM     16  H   UNL     1     -10.163   8.283 127.618  0.00  0.00    +0.000 HD
ENDBRANCH  14  15
BRANCH  14  17
ATOM     17  C   UNL     1     -12.675   9.065 129.588  0.00  0.00    +0.000 C 
BRANCH  17  18
ATOM     18  O   UNL     1     -13.103  10.168 128.810  0.00  0.00    +0.000 OA
ATOM     19  H   UNL     1     -13.411  10.858 129.424  0.00  0.00    +0.000 HD
ENDBRANCH  17  18
ENDBRANCH  14  17
ENDBRANCH  11  14
ENDBRANCH   1  11
TORSDOF 11
ENDMDL
MODEL 9
REMARK VINA RESULT:      -3.9      3.042      5.143
REMARK  Name = Meglumine
REMARK  12 active torsions:
REMARK  status: ('A' for Active; 'I' for Inactive)
REMARK    1  A    between atoms: C_1  and  N_2
REMARK    2  A    between atoms: N_2  and  C_3
REMARK    3  A    between atoms: C_3  and  C_4
REMARK    4  A    between atoms: C_4  and  O_5
REMARK    5  A    between atoms: C_4  and  C_6
REMARK    6  A    between atoms: C_6  and  O_7
REMARK    7  A    between atoms: C_6  and  C_8
REMARK    8  A    between atoms: C_8  and  O_9
REMARK    9  A    between atoms: C_8  and  C_10
REMARK   10  A    between atoms: C_10  and  O_11
REMARK   11  A    between atoms: C_10  and  C_12
REMARK   12  A    between atoms: C_12  and  O_13
REMARK                            x       y       z     vdW  Elec       q    Type
REMARK                         _______ _______ _______ _____ _____    ______ ____
ROOT
ATOM      1  C   UNL     1      -9.722   6.567 130.985  0.00  0.00    +0.000 C 
ENDROOT
BRANCH   1   2
ATOM      2  O   UNL     1      -8.870   6.162 129.905  0.00  0.00    +0.000 OA
ATOM      3  H   UNL     1      -9.447   5.894 129.168  0.00  0.00    +0.000 HD
ENDBRANCH   1   2
BRANCH   1   4
ATOM      4  C   UNL     1     -11.203   6.452 130.570  0.00  0.00    +0.000 C 
BRANCH   4   5
ATOM      5  O   UNL     1     -12.009   6.062 131.690  0.00  0.00    +0.000 OA
ATOM      6  H   UNL     1     -11.473   5.510 132.297  0.00  0.00    +0.000 HD
ENDBRANCH   4   5
BRANCH   4   7
ATOM      7  C   UNL     1     -11.659   7.729 129.808  0.00  0.00    +0.000 C 
BRANCH   7   9
ATOM      8  C   UNL     1     -10.966   8.077 127.521  0.00  0.00    +0.000 C 
ATOM      9  N   UNL     1     -10.639   8.285 128.926  0.00  0.00    +0.000 NA
ATOM     10  H   UNL     1     -10.548   9.283 129.119  0.00  0.00    +0.000 HD
ENDBRANCH   7   9
ENDBRANCH   4   7
ENDBRANCH   1   4
BRANCH   1  11
ATOM     11  C   UNL     1      -9.277   5.865 132.299  0.00  0.00    +0.000 C 
BRANCH  11  12
ATOM     12  O   UNL     1      -9.966   6.491 133.396  0.00  0.00    +0.000 OA
ATOM     13  H   UNL     1     -10.461   7.271 133.112  0.00  0.00    +0.000 HD
ENDBRANCH  11  12
BRANCH  11  14
ATOM     14  C   UNL     1      -9.233   4.296 132.395  0.00  0.00    +0.000 C 
BRANCH  14  15
ATOM     15  O   UNL     1     -10.138   3.564 131.570  0.00  0.00    +0.000 OA
ATOM     16  H   UNL     1      -9.713   2.788 131.151  0.00  0.00    +0.000 HD
ENDBRANCH  14  15
BRANCH  14  17
ATOM     17  C   UNL     1      -9.335   3.764 133.830  0.00  0.00    +0.000 C 
BRANCH  17  18
ATOM     18  O   UNL     1      -8.602   4.571 134.734  0.00  0.00    +0.000 OA
ATOM     19  H   UNL     1      -7.680   4.260 134.724  0.00  0.00    +0.000 HD
ENDBRANCH  17  18
ENDBRANCH  14  17
ENDBRANCH  11  14
ENDBRANCH   1  11
TORSDOF 11
ENDMDL
