MODEL 1
REMARK VINA RESULT:      -6.5      0.000      0.000
REMARK  Name = Melatonin
REMARK  6 active torsions:
REMARK  status: ('A' for Active; 'I' for Inactive)
REMARK    1  A    between atoms: C_1  and  O_2
REMARK    2  A    between atoms: O_2  and  C_3
REMARK    3  A    between atoms: C_9  and  C_10
REMARK    4  A    between atoms: C_10  and  C_11
REMARK    5  A    between atoms: C_11  and  N_12
REMARK    6  A    between atoms: C_13  and  C_14
REMARK                            x       y       z     vdW  Elec       q    Type
REMARK                         _______ _______ _______ _____ _____    ______ ____
ROOT
ATOM      1  C   UNL     1     -11.515   7.976 129.036  0.00  0.00    +0.000 A 
ATOM      2  C   UNL     1     -10.266   7.637 129.535  0.00  0.00    +0.000 A 
ATOM      3  C   UNL     1     -10.113   6.950 130.760  0.00  0.00    +0.000 A 
ATOM      4  C   UNL     1     -11.274   6.637 131.463  0.00  0.00    +0.000 A 
ATOM      5  N   UNL     1     -10.885   5.974 132.605  0.00  0.00    +0.000 N 
ATOM      6  C   UNL     1      -9.521   5.826 132.629  0.00  0.00    +0.000 A 
ATOM      7  C   UNL     1      -8.991   6.441 131.510  0.00  0.00    +0.000 A 
ATOM      8  C   UNL     1     -12.551   6.971 130.985  0.00  0.00    +0.000 A 
ATOM      9  C   UNL     1     -12.650   7.631 129.748  0.00  0.00    +0.000 A 
ATOM     10  H   UNL     1     -11.517   5.626 133.313  0.00  0.00    +0.000 HD
ENDROOT
BRANCH   1  12
ATOM     11  C   UNL     1     -10.983   7.724 126.769  0.00  0.00    +0.000 C 
ATOM     12  O   UNL     1     -11.497   8.557 127.799  0.00  0.00    +0.000 OA
ENDBRANCH   1  12
BRANCH   7  13
ATOM     13  C   UNL     1      -7.523   6.518 131.168  0.00  0.00    +0.000 C 
BRANCH  13  14
ATOM     14  C   UNL     1      -6.982   5.198 130.637  0.00  0.00    +0.000 C 
BRANCH  14  15
ATOM     15  N   UNL     1      -7.582   4.659 129.451  0.00  0.00    +0.000 N 
ATOM     16  C   UNL     1      -8.329   3.514 129.417  0.00  0.00    +0.000 C 
ATOM     17  C   UNL     1      -8.579   2.742 130.696  0.00  0.00    +0.000 C 
ATOM     18  O   UNL     1      -8.790   3.128 128.340  0.00  0.00    +0.000 OA
ATOM     19  H   UNL     1      -7.447   5.117 128.558  0.00  0.00    +0.000 HD
ENDBRANCH  14  15
ENDBRANCH  13  14
ENDBRANCH   7  13
TORSDOF 4
ENDMDL
MODEL 2
REMARK VINA RESULT:      -6.1      2.430      3.057
REMARK  Name = Melatonin
REMARK  6 active torsions:
REMARK  status: ('A' for Active; 'I' for Inactive)
REMARK    1  A    between atoms: C_1  and  O_2
REMARK    2  A    between atoms: O_2  and  C_3
REMARK    3  A    between atoms: C_9  and  C_10
REMARK    4  A    between atoms: C_10  and  C_11
REMARK    5  A    between atoms: C_11  and  N_12
REMARK    6  A    between atoms: C_13  and  C_14
REMARK                            x       y       z     vdW  Elec       q    Type
REMARK                         _______ _______ _______ _____ _____    ______ ____
ROOT
ATOM      1  C   UNL     1     -11.463   8.055 129.248  0.00  0.00    +0.000 A 
ATOM      2  C   UNL     1     -10.238   7.487 129.566  0.00  0.00    +0.000 A 
ATOM      3  C   UNL     1     -10.045   6.738 130.748  0.00  0.00    +0.000 A 
ATOM      4  C   UNL     1     -11.138   6.602 131.600  0.00  0.00    +0.000 A 
ATOM      5  N   UNL     1     -10.722   5.840 132.668  0.00  0.00    +0.000 N 
ATOM      6  C   UNL     1      -9.415   5.460 132.501  0.00  0.00    +0.000 A 
ATOM      7  C   UNL     1      -8.940   6.017 131.328  0.00  0.00    +0.000 A 
ATOM      8  C   UNL     1     -12.390   7.168 131.307  0.00  0.00    +0.000 A 
ATOM      9  C   UNL     1     -12.536   7.882 130.105  0.00  0.00    +0.000 A 
ATOM     10  H   UNL     1     -11.306   5.579 133.451  0.00  0.00    +0.000 HD
ENDROOT
BRANCH   1  12
ATOM     11  C   UNL     1     -11.013   7.881 126.956  0.00  0.00    +0.000 C 
ATOM     12  O   UNL     1     -11.510   8.670 128.029  0.00  0.00    +0.000 OA
ENDBRANCH   1  12
BRANCH   7  13
ATOM     13  C   UNL     1      -7.540   5.854 130.788  0.00  0.00    +0.000 C 
BRANCH  13  14
ATOM     14  C   UNL     1      -6.622   6.997 131.203  0.00  0.00    +0.000 C 
BRANCH  14  15
ATOM     15  N   UNL     1      -5.306   6.662 131.663  0.00  0.00    +0.000 N 
ATOM     16  C   UNL     1      -4.152   7.167 131.130  0.00  0.00    +0.000 C 
ATOM     17  C   UNL     1      -4.222   8.162 129.991  0.00  0.00    +0.000 C 
ATOM     18  O   UNL     1      -3.067   6.804 131.591  0.00  0.00    +0.000 OA
ATOM     19  H   UNL     1      -5.182   5.995 132.414  0.00  0.00    +0.000 HD
ENDBRANCH  14  15
ENDBRANCH  13  14
ENDBRANCH   7  13
TORSDOF 4
ENDMDL
MODEL 3
REMARK VINA RESULT:      -6.0      1.247      1.392
REMARK  Name = Melatonin
REMARK  6 active torsions:
REMARK  status: ('A' for Active; 'I' for Inactive)
REMARK    1  A    between atoms: C_1  and  O_2
REMARK    2  A    between atoms: O_2  and  C_3
REMARK    3  A    between atoms: C_9  and  C_10
REMARK    4  A    between atoms: C_10  and  C_11
REMARK    5  A    between atoms: C_11  and  N_12
REMARK    6  A    between atoms: C_13  and  C_14
REMARK                            x       y       z     vdW  Elec       q    Type
REMARK                         _______ _______ _______ _____ _____    ______ ____
ROOT
ATOM      1  C   UNL     1     -10.277   7.723 129.492  0.00  0.00    +0.000 A 
ATOM      2  C   UNL     1      -9.131   7.338 130.173  0.00  0.00    +0.000 A 
ATOM      3  C   UNL     1      -9.189   6.579 131.362  0.00  0.00    +0.000 A 
ATOM      4  C   UNL     1     -10.453   6.240 131.840  0.00  0.00    +0.000 A 
ATOM      5  N   UNL     1     -10.265   5.506 132.989  0.00  0.00    +0.000 N 
ATOM      6  C   UNL     1      -8.925   5.339 133.233  0.00  0.00    +0.000 A 
ATOM      7  C   UNL     1      -8.212   6.012 132.258  0.00  0.00    +0.000 A 
ATOM      8  C   UNL     1     -11.630   6.619 131.174  0.00  0.00    +0.000 A 
ATOM      9  C   UNL     1     -11.517   7.351 129.980  0.00  0.00    +0.000 A 
ATOM     10  H   UNL     1     -11.009   5.126 133.557  0.00  0.00    +0.000 HD
ENDROOT
BRANCH   1  12
ATOM     11  C   UNL     1     -10.997   8.091 127.293  0.00  0.00    +0.000 C 
ATOM     12  O   UNL     1     -10.049   8.376 128.312  0.00  0.00    +0.000 OA
ENDBRANCH   1  12
BRANCH   7  13
ATOM     13  C   UNL     1      -6.707   6.090 132.174  0.00  0.00    +0.000 C 
BRANCH  13  14
ATOM     14  C   UNL     1      -6.109   4.923 131.401  0.00  0.00    +0.000 C 
BRANCH  14  15
ATOM     15  N   UNL     1      -6.000   5.052 129.976  0.00  0.00    +0.000 N 
ATOM     16  C   UNL     1      -6.795   4.391 129.080  0.00  0.00    +0.000 C 
ATOM     17  C   UNL     1      -7.885   3.466 129.581  0.00  0.00    +0.000 C 
ATOM     18  O   UNL     1      -6.610   4.562 127.873  0.00  0.00    +0.000 OA
ATOM     19  H   UNL     1      -5.287   5.644 129.570  0.00  0.00    +0.000 HD
ENDBRANCH  14  15
ENDBRANCH  13  14
ENDBRANCH   7  13
TORSDOF 4
ENDMDL
MODEL 4
REMARK VINA RESULT:      -5.9      2.844      3.226
REMARK  Name = Melatonin
REMARK  6 active torsions:
REMARK  status: ('A' for Active; 'I' for Inactive)
REMARK    1  A    between atoms: C_1  and  O_2
REMARK    2  A    between atoms: O_2  and  C_3
REMARK    3  A    between atoms: C_9  and  C_10
REMARK    4  A    between atoms: C_10  and  C_11
REMARK    5  A    between atoms: C_11  and  N_12
REMARK    6  A    between atoms: C_13  and  C_14
REMARK                            x       y       z     vdW  Elec       q    Type
REMARK                         _______ _______ _______ _____ _____    ______ ____
ROOT
ATOM      1  C   UNL     1     -10.927   7.809 128.889  0.00  0.00    +0.000 A 
ATOM      2  C   UNL     1      -9.763   7.501 129.580  0.00  0.00    +0.000 A 
ATOM      3  C   UNL     1      -9.788   6.847 130.831  0.00  0.00    +0.000 A 
ATOM      4  C   UNL     1     -11.038   6.533 131.360  0.00  0.00    +0.000 A 
ATOM      5  N   UNL     1     -10.817   5.904 132.565  0.00  0.00    +0.000 N 
ATOM      6  C   UNL     1      -9.471   5.779 132.797  0.00  0.00    +0.000 A 
ATOM      7  C   UNL     1      -8.786   6.374 131.754  0.00  0.00    +0.000 A 
ATOM      8  C   UNL     1     -12.232   6.836 130.687  0.00  0.00    +0.000 A 
ATOM      9  C   UNL     1     -12.153   7.463 129.432  0.00  0.00    +0.000 A 
ATOM     10  H   UNL     1     -11.545   5.565 133.178  0.00  0.00    +0.000 HD
ENDROOT
BRANCH   1  12
ATOM     11  C   UNL     1     -11.091   7.512 126.572  0.00  0.00    +0.000 C 
ATOM     12  O   UNL     1     -10.731   8.360 127.654  0.00  0.00    +0.000 OA
ENDBRANCH   1  12
BRANCH   7  13
ATOM     13  C   UNL     1      -7.284   6.466 131.634  0.00  0.00    +0.000 C 
BRANCH  13  14
ATOM     14  C   UNL     1      -6.570   5.461 132.527  0.00  0.00    +0.000 C 
BRANCH  14  15
ATOM     15  N   UNL     1      -5.670   5.972 133.520  0.00  0.00    +0.000 N 
ATOM     16  C   UNL     1      -5.840   5.814 134.868  0.00  0.00    +0.000 C 
ATOM     17  C   UNL     1      -7.032   5.040 135.390  0.00  0.00    +0.000 C 
ATOM     18  O   UNL     1      -5.013   6.306 135.640  0.00  0.00    +0.000 OA
ATOM     19  H   UNL     1      -4.857   6.509 133.245  0.00  0.00    +0.000 HD
ENDBRANCH  14  15
ENDBRANCH  13  14
ENDBRANCH   7  13
TORSDOF 4
ENDMDL
MODEL 5
REMARK VINA RESULT:      -5.9      1.853      1.908
REMARK  Name = Melatonin
REMARK  6 active torsions:
REMARK  status: ('A' for Active; 'I' for Inactive)
REMARK    1  A    between atoms: C_1  and  O_2
REMARK    2  A    between atoms: O_2  and  C_3
REMARK    3  A    between atoms: C_9  and  C_10
REMARK    4  A    between atoms: C_10  and  C_11
REMARK    5  A    between atoms: C_11  and  N_12
REMARK    6  A    between atoms: C_13  and  C_14
REMARK                            x       y       z     vdW  Elec       q    Type
REMARK                         _______ _______ _______ _____ _____    ______ ____
ROOT
ATOM      1  C   UNL     1     -11.622   7.864 129.310  0.00  0.00    +0.000 A 
ATOM      2  C   UNL     1     -10.313   7.606 129.692  0.00  0.00    +0.000 A 
ATOM      3  C   UNL     1     -10.005   6.925 130.890  0.00  0.00    +0.000 A 
ATOM      4  C   UNL     1     -11.074   6.531 131.691  0.00  0.00    +0.000 A 
ATOM      5  N   UNL     1     -10.540   5.889 132.786  0.00  0.00    +0.000 N 
ATOM      6  C   UNL     1      -9.173   5.834 132.686  0.00  0.00    +0.000 A 
ATOM      7  C   UNL     1      -8.788   6.489 131.530  0.00  0.00    +0.000 A 
ATOM      8  C   UNL     1     -12.408   6.781 131.332  0.00  0.00    +0.000 A 
ATOM      9  C   UNL     1     -12.663   7.438 130.117  0.00  0.00    +0.000 A 
ATOM     10  H   UNL     1     -11.082   5.496 133.543  0.00  0.00    +0.000 HD
ENDROOT
BRANCH   1  12
ATOM     11  C   UNL     1     -10.779   8.046 127.132  0.00  0.00    +0.000 C 
ATOM     12  O   UNL     1     -11.755   8.451 128.083  0.00  0.00    +0.000 OA
ENDBRANCH   1  12
BRANCH   7  13
ATOM     13  C   UNL     1      -7.365   6.667 131.059  0.00  0.00    +0.000 C 
BRANCH  13  14
ATOM     14  C   UNL     1      -6.353   6.113 132.053  0.00  0.00    +0.000 C 
BRANCH  14  15
ATOM     15  N   UNL     1      -5.320   5.257 131.545  0.00  0.00    +0.000 N 
ATOM     16  C   UNL     1      -5.358   3.891 131.596  0.00  0.00    +0.000 C 
ATOM     17  C   UNL     1      -6.558   3.194 132.204  0.00  0.00    +0.000 C 
ATOM     18  O   UNL     1      -4.410   3.246 131.143  0.00  0.00    +0.000 OA
ATOM     19  H   UNL     1      -4.484   5.654 131.135  0.00  0.00    +0.000 HD
ENDBRANCH  14  15
ENDBRANCH  13  14
ENDBRANCH   7  13
TORSDOF 4
ENDMDL
MODEL 6
REMARK VINA RESULT:      -5.8      8.653     10.826
REMARK  Name = Melatonin
REMARK  6 active torsions:
REMARK  status: ('A' for Active; 'I' for Inactive)
REMARK    1  A    between atoms: C_1  and  O_2
REMARK    2  A    between atoms: O_2  and  C_3
REMARK    3  A    between atoms: C_9  and  C_10
REMARK    4  A    between atoms: C_10  and  C_11
REMARK    5  A    between atoms: C_11  and  N_12
REMARK    6  A    between atoms: C_13  and  C_14
REMARK                            x       y       z     vdW  Elec       q    Type
REMARK                         _______ _______ _______ _____ _____    ______ ____
ROOT
ATOM      1  C   UNL     1      -6.660  -2.723 124.196  0.00  0.00    +0.000 A 
ATOM      2  C   UNL     1      -6.555  -1.340 124.162  0.00  0.00    +0.000 A 
ATOM      3  C   UNL     1      -7.625  -0.520 123.742  0.00  0.00    +0.000 A 
ATOM      4  C   UNL     1      -8.797  -1.158 123.342  0.00  0.00    +0.000 A 
ATOM      5  N   UNL     1      -9.690  -0.173 122.986  0.00  0.00    +0.000 N 
ATOM      6  C   UNL     1      -9.134   1.066 123.180  0.00  0.00    +0.000 A 
ATOM      7  C   UNL     1      -7.836   0.902 123.628  0.00  0.00    +0.000 A 
ATOM      8  C   UNL     1      -8.931  -2.556 123.362  0.00  0.00    +0.000 A 
ATOM      9  C   UNL     1      -7.846  -3.326 123.814  0.00  0.00    +0.000 A 
ATOM     10  H   UNL     1     -10.628  -0.340 122.650  0.00  0.00    +0.000 HD
ENDROOT
BRANCH   1  12
ATOM     11  C   UNL     1      -4.644  -3.824 123.734  0.00  0.00    +0.000 C 
ATOM     12  O   UNL     1      -5.569  -3.367 124.711  0.00  0.00    +0.000 OA
ENDBRANCH   1  12
BRANCH   7  13
ATOM     13  C   UNL     1      -6.874   2.021 123.947  0.00  0.00    +0.000 C 
BRANCH  13  14
ATOM     14  C   UNL     1      -7.195   3.297 123.182  0.00  0.00    +0.000 C 
BRANCH  14  15
ATOM     15  N   UNL     1      -6.139   4.251 123.003  0.00  0.00    +0.000 N 
ATOM     16  C   UNL     1      -5.345   4.320 121.891  0.00  0.00    +0.000 C 
ATOM     17  C   UNL     1      -5.573   3.359 120.743  0.00  0.00    +0.000 C 
ATOM     18  O   UNL     1      -4.454   5.171 121.841  0.00  0.00    +0.000 OA
ATOM     19  H   UNL     1      -5.923   4.917 123.733  0.00  0.00    +0.000 HD
ENDBRANCH  14  15
ENDBRANCH  13  14
ENDBRANCH   7  13
TORSDOF 4
ENDMDL
MODEL 7
REMARK VINA RESULT:      -5.7      7.847      9.510
REMARK  Name = Melatonin
REMARK  6 active torsions:
REMARK  status: ('A' for Active; 'I' for Inactive)
REMARK    1  A    between atoms: C_1  and  O_2
REMARK    2  A    between atoms: O_2  and  C_3
REMARK    3  A    between atoms: C_9  and  C_10
REMARK    4  A    between atoms: C_10  and  C_11
REMARK    5  A    between atoms: C_11  and  N_12
REMARK    6  A    between atoms: C_13  and  C_14
REMARK                            x       y       z     vdW  Elec       q    Type
REMARK                         _______ _______ _______ _____ _____    ______ ____
ROOT
ATOM      1  C   UNL     1      -6.475   4.194 120.329  0.00  0.00    +0.000 A 
ATOM      2  C   UNL     1      -7.404   3.574 121.153  0.00  0.00    +0.000 A 
ATOM      3  C   UNL     1      -7.148   3.339 122.522  0.00  0.00    +0.000 A 
ATOM      4  C   UNL     1      -5.910   3.742 123.017  0.00  0.00    +0.000 A 
ATOM      5  N   UNL     1      -5.888   3.421 124.355  0.00  0.00    +0.000 N 
ATOM      6  C   UNL     1      -7.083   2.862 124.730  0.00  0.00    +0.000 A 
ATOM      7  C   UNL     1      -7.895   2.767 123.615  0.00  0.00    +0.000 A 
ATOM      8  C   UNL     1      -4.949   4.368 122.206  0.00  0.00    +0.000 A 
ATOM      9  C   UNL     1      -5.262   4.603 120.857  0.00  0.00    +0.000 A 
ATOM     10  H   UNL     1      -5.110   3.594 124.976  0.00  0.00    +0.000 HD
ENDROOT
BRANCH   1  12
ATOM     11  C   UNL     1      -6.214   5.471 118.383  0.00  0.00    +0.000 C 
ATOM     12  O   UNL     1      -6.909   4.429 119.055  0.00  0.00    +0.000 OA
ENDBRANCH   1  12
BRANCH   7  13
ATOM     13  C   UNL     1      -9.291   2.193 123.597  0.00  0.00    +0.000 C 
BRANCH  13  14
ATOM     14  C   UNL     1      -9.327   0.774 123.044  0.00  0.00    +0.000 C 
BRANCH  14  15
ATOM     15  N   UNL     1      -9.149  -0.307 123.970  0.00  0.00    +0.000 N 
ATOM     16  C   UNL     1      -8.002  -1.043 124.083  0.00  0.00    +0.000 C 
ATOM     17  C   UNL     1      -6.810  -0.718 123.207  0.00  0.00    +0.000 C 
ATOM     18  O   UNL     1      -7.957  -1.963 124.903  0.00  0.00    +0.000 OA
ATOM     19  H   UNL     1      -9.907  -0.587 124.579  0.00  0.00    +0.000 HD
ENDBRANCH  14  15
ENDBRANCH  13  14
ENDBRANCH   7  13
TORSDOF 4
ENDMDL
MODEL 8
REMARK VINA RESULT:      -5.4      2.153      2.292
REMARK  Name = Melatonin
REMARK  6 active torsions:
REMARK  status: ('A' for Active; 'I' for Inactive)
REMARK    1  A    between atoms: C_1  and  O_2
REMARK    2  A    between atoms: O_2  and  C_3
REMARK    3  A    between atoms: C_9  and  C_10
REMARK    4  A    between atoms: C_10  and  C_11
REMARK    5  A    between atoms: C_11  and  N_12
REMARK    6  A    between atoms: C_13  and  C_14
REMARK                            x       y       z     vdW  Elec       q    Type
REMARK                         _______ _______ _______ _____ _____    ______ ____
ROOT
ATOM      1  C   UNL     1     -10.424   6.731 128.788  0.00  0.00    +0.000 A 
ATOM      2  C   UNL     1      -9.327   6.454 129.592  0.00  0.00    +0.000 A 
ATOM      3  C   UNL     1      -9.457   6.230 130.980  0.00  0.00    +0.000 A 
ATOM      4  C   UNL     1     -10.738   6.314 131.522  0.00  0.00    +0.000 A 
ATOM      5  N   UNL     1     -10.622   6.057 132.869  0.00  0.00    +0.000 N 
ATOM      6  C   UNL     1      -9.318   5.778 133.190  0.00  0.00    +0.000 A 
ATOM      7  C   UNL     1      -8.547   5.898 132.049  0.00  0.00    +0.000 A 
ATOM      8  C   UNL     1     -11.865   6.596 130.733  0.00  0.00    +0.000 A 
ATOM      9  C   UNL     1     -11.686   6.785 129.352  0.00  0.00    +0.000 A 
ATOM     10  H   UNL     1     -11.393   6.052 133.522  0.00  0.00    +0.000 HD
ENDROOT
BRANCH   1  12
ATOM     11  C   UNL     1     -10.992   7.726 126.745  0.00  0.00    +0.000 C 
ATOM     12  O   UNL     1     -10.143   6.833 127.454  0.00  0.00    +0.000 OA
ENDBRANCH   1  12
BRANCH   7  13
ATOM     13  C   UNL     1      -7.054   5.688 131.977  0.00  0.00    +0.000 C 
BRANCH  13  14
ATOM     14  C   UNL     1      -6.687   4.258 131.608  0.00  0.00    +0.000 C 
BRANCH  14  15
ATOM     15  N   UNL     1      -6.419   3.341 132.678  0.00  0.00    +0.000 N 
ATOM     16  C   UNL     1      -7.290   2.374 133.100  0.00  0.00    +0.000 C 
ATOM     17  C   UNL     1      -8.629   2.215 132.409  0.00  0.00    +0.000 C 
ATOM     18  O   UNL     1      -6.968   1.644 134.040  0.00  0.00    +0.000 OA
ATOM     19  H   UNL     1      -5.549   3.396 133.191  0.00  0.00    +0.000 HD
ENDBRANCH  14  15
ENDBRANCH  13  14
ENDBRANCH   7  13
TORSDOF 4
ENDMDL
MODEL 9
REMARK VINA RESULT:      -5.4      7.060      9.847
REMARK  Name = Melatonin
REMARK  6 active torsions:
REMARK  status: ('A' for Active; 'I' for Inactive)
REMARK    1  A    between atoms: C_1  and  O_2
REMARK    2  A    between atoms: O_2  and  C_3
REMARK    3  A    between atoms: C_9  and  C_10
REMARK    4  A    between atoms: C_10  and  C_11
REMARK    5  A    between atoms: C_11  and  N_12
REMARK    6  A    between atoms: C_13  and  C_14
REMARK                            x       y       z     vdW  Elec       q    Type
REMARK                         _______ _______ _______ _____ _____    ______ ____
ROOT
ATOM      1  C   UNL     1      -8.310  -2.429 125.966  0.00  0.00    +0.000 A 
ATOM      2  C   UNL     1      -8.407  -1.067 125.720  0.00  0.00    +0.000 A 
ATOM      3  C   UNL     1      -8.914  -0.562 124.502  0.00  0.00    +0.000 A 
ATOM      4  C   UNL     1      -9.303  -1.492 123.540  0.00  0.00    +0.000 A 
ATOM      5  N   UNL     1      -9.764  -0.779 122.456  0.00  0.00    +0.000 N 
ATOM      6  C   UNL     1      -9.712   0.567 122.714  0.00  0.00    +0.000 A 
ATOM      7  C   UNL     1      -9.166   0.755 123.971  0.00  0.00    +0.000 A 
ATOM      8  C   UNL     1      -9.213  -2.876 123.759  0.00  0.00    +0.000 A 
ATOM      9  C   UNL     1      -8.726  -3.327 124.998  0.00  0.00    +0.000 A 
ATOM     10  H   UNL     1     -10.111  -1.192 121.602  0.00  0.00    +0.000 HD
ENDROOT
BRANCH   1  12
ATOM     11  C   UNL     1      -8.716  -3.687 127.899  0.00  0.00    +0.000 C 
ATOM     12  O   UNL     1      -7.884  -2.754 127.223  0.00  0.00    +0.000 OA
ENDBRANCH   1  12
BRANCH   7  13
ATOM     13  C   UNL     1      -8.922   2.092 124.626  0.00  0.00    +0.000 C 
BRANCH  13  14
ATOM     14  C   UNL     1      -7.722   2.818 124.034  0.00  0.00    +0.000 C 
BRANCH  14  15
ATOM     15  N   UNL     1      -7.539   4.198 124.380  0.00  0.00    +0.000 N 
ATOM     16  C   UNL     1      -6.369   4.724 124.855  0.00  0.00    +0.000 C 
ATOM     17  C   UNL     1      -5.157   3.832 125.025  0.00  0.00    +0.000 C 
ATOM     18  O   UNL     1      -6.320   5.924 125.136  0.00  0.00    +0.000 OA
ATOM     19  H   UNL     1      -8.309   4.850 124.302  0.00  0.00    +0.000 HD
ENDBRANCH  14  15
ENDBRANCH  13  14
ENDBRANCH   7  13
TORSDOF 4
ENDMDL
