MODEL 1
REMARK VINA RESULT:      -7.8      0.000      0.000
REMARK  Name = Meloxicam
REMARK  4 active torsions:
REMARK  status: ('A' for Active; 'I' for Inactive)
REMARK    1  A    between atoms: C_1  and  N_2
REMARK    2  A    between atoms: C_3  and  C_4
REMARK    3  A    between atoms: C_10  and  C_11
REMARK    4  A    between atoms: C_13  and  O_14
REMARK                            x       y       z     vdW  Elec       q    Type
REMARK                         _______ _______ _______ _____ _____    ______ ____
ROOT
ATOM      1  C   UNL     1      -9.920   1.122 123.872  0.00  0.00    +0.000 C 
ATOM      2  N   UNL     1      -8.639   0.495 123.466  0.00  0.00    +0.000 N 
ATOM      3  C   UNL     1      -7.409   0.997 124.093  0.00  0.00    +0.000 C 
ATOM      4  C   UNL     1      -6.957   0.326 125.182  0.00  0.00    +0.000 C 
ATOM      5  C   UNL     1      -7.631  -0.864 125.759  0.00  0.00    +0.000 A 
ATOM      6  C   UNL     1      -8.504  -1.656 125.014  0.00  0.00    +0.000 A 
ATOM      7  C   UNL     1      -9.180  -2.746 125.571  0.00  0.00    +0.000 A 
ATOM      8  C   UNL     1      -8.923  -3.095 126.897  0.00  0.00    +0.000 A 
ATOM      9  C   UNL     1      -8.012  -2.356 127.648  0.00  0.00    +0.000 A 
ATOM     10  C   UNL     1      -7.385  -1.243 127.087  0.00  0.00    +0.000 A 
ATOM     11  S   UNL     1      -8.717  -1.205 123.328  0.00  0.00    +0.000 S 
ATOM     12  O   UNL     1     -10.053  -1.591 122.938  0.00  0.00    +0.000 OA
ATOM     13  O   UNL     1      -7.545  -1.683 122.618  0.00  0.00    +0.000 OA
ENDROOT
BRANCH   3  14
ATOM     14  C   UNL     1      -6.805   2.254 123.451  0.00  0.00    +0.000 C 
ATOM     15  O   UNL     1      -6.434   3.165 124.191  0.00  0.00    +0.000 OA
ATOM     16  N   UNL     1      -6.767   2.327 122.065  0.00  0.00    +0.000 N 
ATOM     17  C   UNL     1      -6.167   3.398 121.441  0.00  0.00    +0.000 A 
ATOM     18  N   UNL     1      -5.118   4.081 121.816  0.00  0.00    +0.000 NA
ATOM     19  C   UNL     1      -4.854   5.062 120.881  0.00  0.00    +0.000 A 
ATOM     20  C   UNL     1      -5.731   5.135 119.815  0.00  0.00    +0.000 A 
ATOM     21  C   UNL     1      -5.766   6.125 118.704  0.00  0.00    +0.000 C 
ATOM     22  S   UNL     1      -6.856   3.840 119.936  0.00  0.00    +0.000 S 
ATOM     23  H   UNL     1      -7.403   1.822 121.473  0.00  0.00    +0.000 HD
ENDBRANCH   3  14
BRANCH   4  24
ATOM     24  O   UNL     1      -5.824   0.658 125.901  0.00  0.00    +0.000 OA
ATOM     25  H   UNL     1      -5.276   1.276 125.400  0.00  0.00    +0.000 HD
ENDBRANCH   4  24
TORSDOF 2
ENDMDL
MODEL 2
REMARK VINA RESULT:      -7.8      2.184      3.608
REMARK  Name = Meloxicam
REMARK  4 active torsions:
REMARK  status: ('A' for Active; 'I' for Inactive)
REMARK    1  A    between atoms: C_1  and  N_2
REMARK    2  A    between atoms: C_3  and  C_4
REMARK    3  A    between atoms: C_10  and  C_11
REMARK    4  A    between atoms: C_13  and  O_14
REMARK                            x       y       z     vdW  Elec       q    Type
REMARK                         _______ _______ _______ _____ _____    ______ ____
ROOT
ATOM      1  C   UNL     1      -5.553  -0.058 125.795  0.00  0.00    +0.000 C 
ATOM      2  N   UNL     1      -6.922   0.403 126.127  0.00  0.00    +0.000 N 
ATOM      3  C   UNL     1      -8.025  -0.089 125.290  0.00  0.00    +0.000 C 
ATOM      4  C   UNL     1      -8.693  -1.183 125.734  0.00  0.00    +0.000 C 
ATOM      5  C   UNL     1      -8.370  -1.892 126.998  0.00  0.00    +0.000 A 
ATOM      6  C   UNL     1      -7.677  -1.276 128.038  0.00  0.00    +0.000 A 
ATOM      7  C   UNL     1      -7.325  -1.958 129.207  0.00  0.00    +0.000 A 
ATOM      8  C   UNL     1      -7.739  -3.281 129.367  0.00  0.00    +0.000 A 
ATOM      9  C   UNL     1      -8.482  -3.905 128.368  0.00  0.00    +0.000 A 
ATOM     10  C   UNL     1      -8.780  -3.220 127.190  0.00  0.00    +0.000 A 
ATOM     11  S   UNL     1      -7.259   0.416 127.801  0.00  0.00    +0.000 S 
ATOM     12  O   UNL     1      -6.039   0.672 128.530  0.00  0.00    +0.000 OA
ATOM     13  O   UNL     1      -8.469   1.181 128.040  0.00  0.00    +0.000 OA
ENDROOT
BRANCH   3  14
ATOM     14  C   UNL     1      -8.261   0.685 123.984  0.00  0.00    +0.000 C 
ATOM     15  O   UNL     1      -9.142   0.286 123.223  0.00  0.00    +0.000 OA
ATOM     16  N   UNL     1      -7.426   1.756 123.699  0.00  0.00    +0.000 N 
ATOM     17  C   UNL     1      -7.643   2.529 122.580  0.00  0.00    +0.000 A 
ATOM     18  N   UNL     1      -8.778   2.864 122.024  0.00  0.00    +0.000 NA
ATOM     19  C   UNL     1      -8.530   3.664 120.927  0.00  0.00    +0.000 A 
ATOM     20  C   UNL     1      -7.199   3.903 120.640  0.00  0.00    +0.000 A 
ATOM     21  C   UNL     1      -6.613   4.643 119.489  0.00  0.00    +0.000 C 
ATOM     22  S   UNL     1      -6.231   3.193 121.872  0.00  0.00    +0.000 S 
ATOM     23  H   UNL     1      -6.495   1.838 124.069  0.00  0.00    +0.000 HD
ENDBRANCH   3  14
BRANCH   4  24
ATOM     24  O   UNL     1      -9.749  -1.785 125.078  0.00  0.00    +0.000 OA
ATOM     25  H   UNL     1      -9.668  -1.660 124.123  0.00  0.00    +0.000 HD
ENDBRANCH   4  24
TORSDOF 2
ENDMDL
MODEL 3
REMARK VINA RESULT:      -7.5      7.482      8.797
REMARK  Name = Meloxicam
REMARK  4 active torsions:
REMARK  status: ('A' for Active; 'I' for Inactive)
REMARK    1  A    between atoms: C_1  and  N_2
REMARK    2  A    between atoms: C_3  and  C_4
REMARK    3  A    between atoms: C_10  and  C_11
REMARK    4  A    between atoms: C_13  and  O_14
REMARK                            x       y       z     vdW  Elec       q    Type
REMARK                         _______ _______ _______ _____ _____    ______ ____
ROOT
ATOM      1  C   UNL     1      -9.847   3.076 130.767  0.00  0.00    +0.000 C 
ATOM      2  N   UNL     1      -9.029   4.302 130.602  0.00  0.00    +0.000 N 
ATOM      3  C   UNL     1      -8.878   4.838 129.242  0.00  0.00    +0.000 C 
ATOM      4  C   UNL     1      -9.738   5.818 128.869  0.00  0.00    +0.000 C 
ATOM      5  C   UNL     1     -10.803   6.362 129.750  0.00  0.00    +0.000 A 
ATOM      6  C   UNL     1     -10.746   6.251 131.138  0.00  0.00    +0.000 A 
ATOM      7  C   UNL     1     -11.774   6.715 131.966  0.00  0.00    +0.000 A 
ATOM      8  C   UNL     1     -12.861   7.373 131.389  0.00  0.00    +0.000 A 
ATOM      9  C   UNL     1     -12.917   7.548 130.008  0.00  0.00    +0.000 A 
ATOM     10  C   UNL     1     -11.904   7.034 129.198  0.00  0.00    +0.000 A 
ATOM     11  S   UNL     1      -9.308   5.485 131.800  0.00  0.00    +0.000 S 
ATOM     12  O   UNL     1      -9.687   4.835 133.032  0.00  0.00    +0.000 OA
ATOM     13  O   UNL     1      -8.249   6.476 131.751  0.00  0.00    +0.000 OA
ENDROOT
BRANCH   3  14
ATOM     14  C   UNL     1      -7.776   4.188 128.392  0.00  0.00    +0.000 C 
ATOM     15  O   UNL     1      -8.079   3.232 127.679  0.00  0.00    +0.000 OA
ATOM     16  N   UNL     1      -6.481   4.671 128.521  0.00  0.00    +0.000 N 
ATOM     17  C   UNL     1      -5.471   4.173 127.727  0.00  0.00    +0.000 A 
ATOM     18  N   UNL     1      -5.530   3.770 126.485  0.00  0.00    +0.000 NA
ATOM     19  C   UNL     1      -4.275   3.365 126.077  0.00  0.00    +0.000 A 
ATOM     20  C   UNL     1      -3.276   3.434 127.030  0.00  0.00    +0.000 A 
ATOM     21  C   UNL     1      -1.858   2.993 126.927  0.00  0.00    +0.000 C 
ATOM     22  S   UNL     1      -3.920   4.152 128.454  0.00  0.00    +0.000 S 
ATOM     23  H   UNL     1      -6.149   5.134 129.349  0.00  0.00    +0.000 HD
ENDBRANCH   3  14
BRANCH   4  24
ATOM     24  O   UNL     1      -9.748   6.433 127.632  0.00  0.00    +0.000 OA
ATOM     25  H   UNL     1      -9.960   7.371 127.724  0.00  0.00    +0.000 HD
ENDBRANCH   4  24
TORSDOF 2
ENDMDL
MODEL 4
REMARK VINA RESULT:      -7.3      6.998      8.251
REMARK  Name = Meloxicam
REMARK  4 active torsions:
REMARK  status: ('A' for Active; 'I' for Inactive)
REMARK    1  A    between atoms: C_1  and  N_2
REMARK    2  A    between atoms: C_3  and  C_4
REMARK    3  A    between atoms: C_10  and  C_11
REMARK    4  A    between atoms: C_13  and  O_14
REMARK                            x       y       z     vdW  Elec       q    Type
REMARK                         _______ _______ _______ _____ _____    ______ ____
ROOT
ATOM      1  C   UNL     1      -6.651   3.486 131.692  0.00  0.00    +0.000 C 
ATOM      2  N   UNL     1      -8.080   3.211 131.409  0.00  0.00    +0.000 N 
ATOM      3  C   UNL     1      -8.557   3.443 130.038  0.00  0.00    +0.000 C 
ATOM      4  C   UNL     1      -8.578   2.371 129.207  0.00  0.00    +0.000 C 
ATOM      5  C   UNL     1      -8.150   1.007 129.605  0.00  0.00    +0.000 A 
ATOM      6  C   UNL     1      -8.112   0.600 130.938  0.00  0.00    +0.000 A 
ATOM      7  C   UNL     1      -7.659  -0.666 131.319  0.00  0.00    +0.000 A 
ATOM      8  C   UNL     1      -7.296  -1.579 130.329  0.00  0.00    +0.000 A 
ATOM      9  C   UNL     1      -7.377  -1.220 128.985  0.00  0.00    +0.000 A 
ATOM     10  C   UNL     1      -7.787   0.066 128.631  0.00  0.00    +0.000 A 
ATOM     11  S   UNL     1      -8.663   1.775 132.125  0.00  0.00    +0.000 S 
ATOM     12  O   UNL     1      -7.940   1.528 133.351  0.00  0.00    +0.000 OA
ATOM     13  O   UNL     1     -10.113   1.769 132.077  0.00  0.00    +0.000 OA
ENDROOT
BRANCH   3  14
ATOM     14  C   UNL     1      -8.941   4.892 129.707  0.00  0.00    +0.000 C 
ATOM     15  O   UNL     1      -8.038   5.718 129.576  0.00  0.00    +0.000 OA
ATOM     16  N   UNL     1     -10.290   5.211 129.636  0.00  0.00    +0.000 N 
ATOM     17  C   UNL     1     -10.687   6.478 129.268  0.00  0.00    +0.000 A 
ATOM     18  N   UNL     1     -10.130   7.294 128.413  0.00  0.00    +0.000 NA
ATOM     19  C   UNL     1     -10.872   8.456 128.340  0.00  0.00    +0.000 A 
ATOM     20  C   UNL     1     -11.974   8.523 129.172  0.00  0.00    +0.000 A 
ATOM     21  C   UNL     1     -12.911   9.660 129.387  0.00  0.00    +0.000 C 
ATOM     22  S   UNL     1     -12.148   7.016 129.983  0.00  0.00    +0.000 S 
ATOM     23  H   UNL     1     -11.002   4.693 130.121  0.00  0.00    +0.000 HD
ENDBRANCH   3  14
BRANCH   4  24
ATOM     24  O   UNL     1      -8.988   2.403 127.888  0.00  0.00    +0.000 OA
ATOM     25  H   UNL     1      -8.607   1.662 127.398  0.00  0.00    +0.000 HD
ENDBRANCH   4  24
TORSDOF 2
ENDMDL
MODEL 5
REMARK VINA RESULT:      -7.3      4.159      7.557
REMARK  Name = Meloxicam
REMARK  4 active torsions:
REMARK  status: ('A' for Active; 'I' for Inactive)
REMARK    1  A    between atoms: C_1  and  N_2
REMARK    2  A    between atoms: C_3  and  C_4
REMARK    3  A    between atoms: C_10  and  C_11
REMARK    4  A    between atoms: C_13  and  O_14
REMARK                            x       y       z     vdW  Elec       q    Type
REMARK                         _______ _______ _______ _____ _____    ______ ____
ROOT
ATOM      1  C   UNL     1      -6.555   1.198 125.593  0.00  0.00    +0.000 C 
ATOM      2  N   UNL     1      -7.565   2.195 125.163  0.00  0.00    +0.000 N 
ATOM      3  C   UNL     1      -7.393   3.578 125.628  0.00  0.00    +0.000 C 
ATOM      4  C   UNL     1      -6.749   4.431 124.792  0.00  0.00    +0.000 C 
ATOM      5  C   UNL     1      -6.218   4.042 123.461  0.00  0.00    +0.000 A 
ATOM      6  C   UNL     1      -6.700   2.934 122.766  0.00  0.00    +0.000 A 
ATOM      7  C   UNL     1      -6.165   2.535 121.537  0.00  0.00    +0.000 A 
ATOM      8  C   UNL     1      -5.162   3.310 120.953  0.00  0.00    +0.000 A 
ATOM      9  C   UNL     1      -4.701   4.455 121.599  0.00  0.00    +0.000 A 
ATOM     10  C   UNL     1      -5.216   4.807 122.847  0.00  0.00    +0.000 A 
ATOM     11  S   UNL     1      -8.019   2.053 123.523  0.00  0.00    +0.000 S 
ATOM     12  O   UNL     1      -7.912   0.671 123.118  0.00  0.00    +0.000 OA
ATOM     13  O   UNL     1      -9.225   2.827 123.291  0.00  0.00    +0.000 OA
ENDROOT
BRANCH   3  14
ATOM     14  C   UNL     1      -7.940   3.877 127.031  0.00  0.00    +0.000 C 
ATOM     15  O   UNL     1      -8.289   5.030 127.286  0.00  0.00    +0.000 OA
ATOM     16  N   UNL     1      -7.952   2.847 127.961  0.00  0.00    +0.000 N 
ATOM     17  C   UNL     1      -8.501   3.044 129.209  0.00  0.00    +0.000 A 
ATOM     18  N   UNL     1      -9.530   3.776 129.544  0.00  0.00    +0.000 NA
ATOM     19  C   UNL     1      -9.743   3.670 130.904  0.00  0.00    +0.000 A 
ATOM     20  C   UNL     1      -8.847   2.878 131.597  0.00  0.00    +0.000 A 
ATOM     21  C   UNL     1      -8.756   2.638 133.064  0.00  0.00    +0.000 C 
ATOM     22  S   UNL     1      -7.772   2.144 130.472  0.00  0.00    +0.000 S 
ATOM     23  H   UNL     1      -7.326   2.063 127.917  0.00  0.00    +0.000 HD
ENDBRANCH   3  14
BRANCH   4  24
ATOM     24  O   UNL     1      -6.493   5.761 125.064  0.00  0.00    +0.000 OA
ATOM     25  H   UNL     1      -7.314   6.269 125.069  0.00  0.00    +0.000 HD
ENDBRANCH   4  24
TORSDOF 2
ENDMDL
MODEL 6
REMARK VINA RESULT:      -7.2      3.946      4.622
REMARK  Name = Meloxicam
REMARK  4 active torsions:
REMARK  status: ('A' for Active; 'I' for Inactive)
REMARK    1  A    between atoms: C_1  and  N_2
REMARK    2  A    between atoms: C_3  and  C_4
REMARK    3  A    between atoms: C_10  and  C_11
REMARK    4  A    between atoms: C_13  and  O_14
REMARK                            x       y       z     vdW  Elec       q    Type
REMARK                         _______ _______ _______ _____ _____    ______ ____
ROOT
ATOM      1  C   UNL     1      -9.347   0.945 126.010  0.00  0.00    +0.000 C 
ATOM      2  N   UNL     1      -8.017   0.355 125.722  0.00  0.00    +0.000 N 
ATOM      3  C   UNL     1      -6.951   0.569 126.711  0.00  0.00    +0.000 C 
ATOM      4  C   UNL     1      -6.764  -0.407 127.633  0.00  0.00    +0.000 C 
ATOM      5  C   UNL     1      -7.568  -1.654 127.692  0.00  0.00    +0.000 A 
ATOM      6  C   UNL     1      -8.264  -2.141 126.587  0.00  0.00    +0.000 A 
ATOM      7  C   UNL     1      -9.064  -3.286 126.655  0.00  0.00    +0.000 A 
ATOM      8  C   UNL     1      -9.115  -4.004 127.850  0.00  0.00    +0.000 A 
ATOM      9  C   UNL     1      -8.385  -3.572 128.955  0.00  0.00    +0.000 A 
ATOM     10  C   UNL     1      -7.632  -2.400 128.878  0.00  0.00    +0.000 A 
ATOM     11  S   UNL     1      -8.087  -1.231 125.093  0.00  0.00    +0.000 S 
ATOM     12  O   UNL     1      -9.307  -1.390 124.337  0.00  0.00    +0.000 OA
ATOM     13  O   UNL     1      -6.793  -1.585 124.540  0.00  0.00    +0.000 OA
ENDROOT
BRANCH   3  14
ATOM     14  C   UNL     1      -6.200   1.903 126.594  0.00  0.00    +0.000 C 
ATOM     15  O   UNL     1      -6.119   2.431 125.485  0.00  0.00    +0.000 OA
ATOM     16  N   UNL     1      -5.594   2.415 127.734  0.00  0.00    +0.000 N 
ATOM     17  C   UNL     1      -4.973   3.643 127.700  0.00  0.00    +0.000 A 
ATOM     18  N   UNL     1      -5.305   4.709 127.021  0.00  0.00    +0.000 NA
ATOM     19  C   UNL     1      -4.412   5.724 127.299  0.00  0.00    +0.000 A 
ATOM     20  C   UNL     1      -3.385   5.406 128.168  0.00  0.00    +0.000 A 
ATOM     21  C   UNL     1      -2.230   6.244 128.592  0.00  0.00    +0.000 C 
ATOM     22  S   UNL     1      -3.627   3.805 128.748  0.00  0.00    +0.000 S 
ATOM     23  H   UNL     1      -5.302   1.838 128.503  0.00  0.00    +0.000 HD
ENDBRANCH   3  14
BRANCH   4  24
ATOM     24  O   UNL     1      -5.817  -0.374 128.638  0.00  0.00    +0.000 OA
ATOM     25  H   UNL     1      -4.990   0.003 128.310  0.00  0.00    +0.000 HD
ENDBRANCH   4  24
TORSDOF 2
ENDMDL
MODEL 7
REMARK VINA RESULT:      -7.1      3.826      4.587
REMARK  Name = Meloxicam
REMARK  4 active torsions:
REMARK  status: ('A' for Active; 'I' for Inactive)
REMARK    1  A    between atoms: C_1  and  N_2
REMARK    2  A    between atoms: C_3  and  C_4
REMARK    3  A    between atoms: C_10  and  C_11
REMARK    4  A    between atoms: C_13  and  O_14
REMARK                            x       y       z     vdW  Elec       q    Type
REMARK                         _______ _______ _______ _____ _____    ______ ____
ROOT
ATOM      1  C   UNL     1      -8.821   1.304 126.110  0.00  0.00    +0.000 C 
ATOM      2  N   UNL     1      -7.632   1.053 125.260  0.00  0.00    +0.000 N 
ATOM      3  C   UNL     1      -6.501   0.339 125.869  0.00  0.00    +0.000 C 
ATOM      4  C   UNL     1      -6.450  -1.004 125.681  0.00  0.00    +0.000 C 
ATOM      5  C   UNL     1      -7.459  -1.770 124.908  0.00  0.00    +0.000 A 
ATOM      6  C   UNL     1      -8.280  -1.166 123.956  0.00  0.00    +0.000 A 
ATOM      7  C   UNL     1      -9.268  -1.875 123.266  0.00  0.00    +0.000 A 
ATOM      8  C   UNL     1      -9.392  -3.247 123.485  0.00  0.00    +0.000 A 
ATOM      9  C   UNL     1      -8.547  -3.888 124.388  0.00  0.00    +0.000 A 
ATOM     10  C   UNL     1      -7.601  -3.152 125.101  0.00  0.00    +0.000 A 
ATOM     11  S   UNL     1      -8.011   0.549 123.673  0.00  0.00    +0.000 S 
ATOM     12  O   UNL     1      -9.273   1.130 123.279  0.00  0.00    +0.000 OA
ATOM     13  O   UNL     1      -6.828   0.654 122.841  0.00  0.00    +0.000 OA
ENDROOT
BRANCH   3  14
ATOM     14  C   UNL     1      -5.530   1.208 126.681  0.00  0.00    +0.000 C 
ATOM     15  O   UNL     1      -5.111   0.767 127.751  0.00  0.00    +0.000 OA
ATOM     16  N   UNL     1      -5.224   2.472 126.199  0.00  0.00    +0.000 N 
ATOM     17  C   UNL     1      -4.301   3.261 126.849  0.00  0.00    +0.000 A 
ATOM     18  N   UNL     1      -3.215   2.898 127.480  0.00  0.00    +0.000 NA
ATOM     19  C   UNL     1      -2.576   4.020 127.970  0.00  0.00    +0.000 A 
ATOM     20  C   UNL     1      -3.205   5.227 127.734  0.00  0.00    +0.000 A 
ATOM     21  C   UNL     1      -2.819   6.587 128.203  0.00  0.00    +0.000 C 
ATOM     22  S   UNL     1      -4.589   4.947 126.751  0.00  0.00    +0.000 S 
ATOM     23  H   UNL     1      -5.835   2.989 125.591  0.00  0.00    +0.000 HD
ENDBRANCH   3  14
BRANCH   4  24
ATOM     24  O   UNL     1      -5.467  -1.835 126.183  0.00  0.00    +0.000 OA
ATOM     25  H   UNL     1      -5.307  -2.571 125.579  0.00  0.00    +0.000 HD
ENDBRANCH   4  24
TORSDOF 2
ENDMDL
MODEL 8
REMARK VINA RESULT:      -7.0      6.617      8.393
REMARK  Name = Meloxicam
REMARK  4 active torsions:
REMARK  status: ('A' for Active; 'I' for Inactive)
REMARK    1  A    between atoms: C_1  and  N_2
REMARK    2  A    between atoms: C_3  and  C_4
REMARK    3  A    between atoms: C_10  and  C_11
REMARK    4  A    between atoms: C_13  and  O_14
REMARK                            x       y       z     vdW  Elec       q    Type
REMARK                         _______ _______ _______ _____ _____    ______ ____
ROOT
ATOM      1  C   UNL     1      -2.361   4.219 127.347  0.00  0.00    +0.000 C 
ATOM      2  N   UNL     1      -3.502   4.957 127.942  0.00  0.00    +0.000 N 
ATOM      3  C   UNL     1      -4.520   4.173 128.655  0.00  0.00    +0.000 C 
ATOM      4  C   UNL     1      -4.380   4.064 129.999  0.00  0.00    +0.000 C 
ATOM      5  C   UNL     1      -3.271   4.683 130.768  0.00  0.00    +0.000 A 
ATOM      6  C   UNL     1      -2.545   5.768 130.279  0.00  0.00    +0.000 A 
ATOM      7  C   UNL     1      -1.466   6.319 130.978  0.00  0.00    +0.000 A 
ATOM      8  C   UNL     1      -1.148   5.811 132.238  0.00  0.00    +0.000 A 
ATOM      9  C   UNL     1      -1.893   4.765 132.777  0.00  0.00    +0.000 A 
ATOM     10  C   UNL     1      -2.935   4.199 132.041  0.00  0.00    +0.000 A 
ATOM     11  S   UNL     1      -3.054   6.407 128.723  0.00  0.00    +0.000 S 
ATOM     12  O   UNL     1      -1.888   6.957 128.073  0.00  0.00    +0.000 OA
ATOM     13  O   UNL     1      -4.241   7.206 128.968  0.00  0.00    +0.000 OA
ENDROOT
BRANCH   3  14
ATOM     14  C   UNL     1      -5.605   3.539 127.772  0.00  0.00    +0.000 C 
ATOM     15  O   UNL     1      -6.131   2.495 128.157  0.00  0.00    +0.000 OA
ATOM     16  N   UNL     1      -5.892   4.140 126.555  0.00  0.00    +0.000 N 
ATOM     17  C   UNL     1      -6.908   3.654 125.762  0.00  0.00    +0.000 A 
ATOM     18  N   UNL     1      -8.048   3.128 126.123  0.00  0.00    +0.000 NA
ATOM     19  C   UNL     1      -8.773   2.793 124.997  0.00  0.00    +0.000 A 
ATOM     20  C   UNL     1      -8.158   3.039 123.785  0.00  0.00    +0.000 A 
ATOM     21  C   UNL     1      -8.637   2.713 122.413  0.00  0.00    +0.000 C 
ATOM     22  S   UNL     1      -6.662   3.836 124.075  0.00  0.00    +0.000 S 
ATOM     23  H   UNL     1      -5.230   4.709 126.056  0.00  0.00    +0.000 HD
ENDBRANCH   3  14
BRANCH   4  24
ATOM     24  O   UNL     1      -5.235   3.363 130.829  0.00  0.00    +0.000 OA
ATOM     25  H   UNL     1      -5.083   2.413 130.745  0.00  0.00    +0.000 HD
ENDBRANCH   4  24
TORSDOF 2
ENDMDL
MODEL 9
REMARK VINA RESULT:      -7.0      2.932      7.409
REMARK  Name = Meloxicam
REMARK  4 active torsions:
REMARK  status: ('A' for Active; 'I' for Inactive)
REMARK    1  A    between atoms: C_1  and  N_2
REMARK    2  A    between atoms: C_3  and  C_4
REMARK    3  A    between atoms: C_10  and  C_11
REMARK    4  A    between atoms: C_13  and  O_14
REMARK                            x       y       z     vdW  Elec       q    Type
REMARK                         _______ _______ _______ _____ _____    ______ ____
ROOT
ATOM      1  C   UNL     1      -8.764  -1.390 122.902  0.00  0.00    +0.000 C 
ATOM      2  N   UNL     1      -8.996  -0.447 124.023  0.00  0.00    +0.000 N 
ATOM      3  C   UNL     1      -7.860  -0.155 124.909  0.00  0.00    +0.000 C 
ATOM      4  C   UNL     1      -7.130   0.953 124.627  0.00  0.00    +0.000 C 
ATOM      5  C   UNL     1      -7.416   1.864 123.490  0.00  0.00    +0.000 A 
ATOM      6  C   UNL     1      -8.673   1.930 122.890  0.00  0.00    +0.000 A 
ATOM      7  C   UNL     1      -8.929   2.748 121.785  0.00  0.00    +0.000 A 
ATOM      8  C   UNL     1      -7.914   3.577 121.308  0.00  0.00    +0.000 A 
ATOM      9  C   UNL     1      -6.664   3.573 121.924  0.00  0.00    +0.000 A 
ATOM     10  C   UNL     1      -6.416   2.714 122.995  0.00  0.00    +0.000 A 
ATOM     11  S   UNL     1      -9.926   0.919 123.596  0.00  0.00    +0.000 S 
ATOM     12  O   UNL     1     -10.843   0.558 122.540  0.00  0.00    +0.000 OA
ATOM     13  O   UNL     1     -10.374   1.591 124.802  0.00  0.00    +0.000 OA
ENDROOT
BRANCH   3  14
ATOM     14  C   UNL     1      -7.619  -1.173 126.034  0.00  0.00    +0.000 C 
ATOM     15  O   UNL     1      -7.679  -2.371 125.757  0.00  0.00    +0.000 OA
ATOM     16  N   UNL     1      -7.409  -0.691 127.318  0.00  0.00    +0.000 N 
ATOM     17  C   UNL     1      -7.114  -1.558 128.347  0.00  0.00    +0.000 A 
ATOM     18  N   UNL     1      -6.414  -2.661 128.311  0.00  0.00    +0.000 NA
ATOM     19  C   UNL     1      -6.357  -3.207 129.579  0.00  0.00    +0.000 A 
ATOM     20  C   UNL     1      -7.046  -2.525 130.563  0.00  0.00    +0.000 A 
ATOM     21  C   UNL     1      -7.247  -2.899 131.990  0.00  0.00    +0.000 C 
ATOM     22  S   UNL     1      -7.687  -1.077 129.888  0.00  0.00    +0.000 S 
ATOM     23  H   UNL     1      -7.752   0.201 127.631  0.00  0.00    +0.000 HD
ENDBRANCH   3  14
BRANCH   4  24
ATOM     24  O   UNL     1      -6.029   1.378 125.345  0.00  0.00    +0.000 OA
ATOM     25  H   UNL     1      -5.940   0.867 126.160  0.00  0.00    +0.000 HD
ENDBRANCH   4  24
TORSDOF 2
ENDMDL
