MODEL 1
REMARK VINA RESULT:      -5.9      0.000      0.000
REMARK  Name = Melphalan
REMARK  10 active torsions:
REMARK  status: ('A' for Active; 'I' for Inactive)
REMARK    1  A    between atoms: N_1  and  CA_2
REMARK    2  A    between atoms: CA_2  and  C_3
REMARK    3  A    between atoms: CA_2  and  C_17
REMARK    4  A    between atoms: C_3  and  C_4
REMARK    5  A    between atoms: C_7  and  N_10
REMARK    6  A    between atoms: N_10  and  C_11
REMARK    7  A    between atoms: N_10  and  C_14
REMARK    8  A    between atoms: C_11  and  C_12
REMARK    9  A    between atoms: C_14  and  C_15
REMARK   10  A    between atoms: C_17  and  O_18
REMARK                            x       y       z     vdW  Elec       q    Type
REMARK                         _______ _______ _______ _____ _____    ______ ____
ROOT
ATOM      1  C   UNL     1     -10.855   7.235 130.471  0.00  0.00    +0.000 A 
ATOM      2  C   UNL     1     -11.409   6.657 131.582  0.00  0.00    +0.000 A 
ATOM      3  C   UNL     1     -10.595   6.057 132.515  0.00  0.00    +0.000 A 
ATOM      4  C   UNL     1      -9.232   5.797 132.377  0.00  0.00    +0.000 A 
ATOM      5  C   UNL     1      -8.689   6.380 131.220  0.00  0.00    +0.000 A 
ATOM      6  C   UNL     1      -9.479   7.101 130.291  0.00  0.00    +0.000 A 
ENDROOT
BRANCH   1   7
ATOM      7  C   UNL     1     -11.739   8.089 129.611  0.00  0.00    +0.000 C 
BRANCH   7   8
ATOM      8  CA  UNL     1     -12.400   7.314 128.452  0.00  0.00    +0.000 C 
BRANCH   8   9
ATOM      9  N   UNL     1     -12.525   5.856 128.776  0.00  0.00    +0.000 NA
ATOM     10  H1  UNL     1     -11.592   5.560 129.103  0.00  0.00    +0.000 HD
ATOM     11  H2  UNL     1     -12.604   5.338 127.896  0.00  0.00    +0.000 HD
ENDBRANCH   8   9
BRANCH   8  12
ATOM     12  C   UNL     1     -11.585   7.527 127.187  0.00  0.00    +0.000 C 
ATOM     13  OXT UNL     1     -10.778   8.442 127.040  0.00  0.00    +0.000 OA
BRANCH  12  14
ATOM     14  O   UNL     1     -11.835   6.602 126.234  0.00  0.00    +0.000 OA
ATOM     15  H   UNL     1     -11.074   5.974 126.221  0.00  0.00    +0.000 HD
ENDBRANCH  12  14
ENDBRANCH   8  12
ENDBRANCH   7   8
ENDBRANCH   1   7
BRANCH   4  16
ATOM     16  N   UNL     1      -8.493   5.059 133.307  0.00  0.00    +0.000 N 
BRANCH  16  17
ATOM     17  C   UNL     1      -7.318   5.562 134.100  0.00  0.00    +0.000 C 
BRANCH  17  18
ATOM     18  C   UNL     1      -7.200   5.173 135.559  0.00  0.00    +0.000 C 
ATOM     19 CL   UNL     1      -7.824   6.340 136.729  0.00  0.00    +0.000 Cl
ENDBRANCH  17  18
ENDBRANCH  16  17
BRANCH  16  20
ATOM     20  C   UNL     1      -9.023   3.717 133.717  0.00  0.00    +0.000 C 
BRANCH  20  21
ATOM     21  C   UNL     1      -8.617   2.557 132.796  0.00  0.00    +0.000 C 
ATOM     22 CL   UNL     1     -10.029   1.729 132.100  0.00  0.00    +0.000 Cl
ENDBRANCH  20  21
ENDBRANCH  16  20
ENDBRANCH   4  16
TORSDOF 10
ENDMDL
MODEL 2
REMARK VINA RESULT:      -5.8      9.678     10.081
REMARK  Name = Melphalan
REMARK  10 active torsions:
REMARK  status: ('A' for Active; 'I' for Inactive)
REMARK    1  A    between atoms: N_1  and  CA_2
REMARK    2  A    between atoms: CA_2  and  C_3
REMARK    3  A    between atoms: CA_2  and  C_17
REMARK    4  A    between atoms: C_3  and  C_4
REMARK    5  A    between atoms: C_7  and  N_10
REMARK    6  A    between atoms: N_10  and  C_11
REMARK    7  A    between atoms: N_10  and  C_14
REMARK    8  A    between atoms: C_11  and  C_12
REMARK    9  A    between atoms: C_14  and  C_15
REMARK   10  A    between atoms: C_17  and  O_18
REMARK                            x       y       z     vdW  Elec       q    Type
REMARK                         _______ _______ _______ _____ _____    ______ ____
ROOT
ATOM      1  C   UNL     1      -8.261  -3.005 127.133  0.00  0.00    +0.000 A 
ATOM      2  C   UNL     1      -7.092  -2.292 127.147  0.00  0.00    +0.000 A 
ATOM      3  C   UNL     1      -6.349  -2.225 128.302  0.00  0.00    +0.000 A 
ATOM      4  C   UNL     1      -6.744  -2.666 129.565  0.00  0.00    +0.000 A 
ATOM      5  C   UNL     1      -7.956  -3.374 129.531  0.00  0.00    +0.000 A 
ATOM      6  C   UNL     1      -8.695  -3.558 128.336  0.00  0.00    +0.000 A 
ENDROOT
BRANCH   1   7
ATOM      7  C   UNL     1      -8.910  -3.262 125.804  0.00  0.00    +0.000 C 
BRANCH   7   8
ATOM      8  CA  UNL     1      -8.781  -2.080 124.821  0.00  0.00    +0.000 C 
BRANCH   8   9
ATOM      9  N   UNL     1      -9.686  -0.950 125.209  0.00  0.00    +0.000 NA
ATOM     10  H1  UNL     1     -10.092  -1.215 126.120  0.00  0.00    +0.000 HD
ATOM     11  H2  UNL     1     -10.512  -0.980 124.604  0.00  0.00    +0.000 HD
ENDBRANCH   8   9
BRANCH   8  12
ATOM     12  C   UNL     1      -9.087  -2.572 123.416  0.00  0.00    +0.000 C 
ATOM     13  OXT UNL     1      -8.448  -2.239 122.421  0.00  0.00    +0.000 OA
BRANCH  12  14
ATOM     14  O   UNL     1     -10.139  -3.420 123.370  0.00  0.00    +0.000 OA
ATOM     15  H   UNL     1      -9.955  -4.156 124.001  0.00  0.00    +0.000 HD
ENDBRANCH  12  14
ENDBRANCH   8  12
ENDBRANCH   7   8
ENDBRANCH   1   7
BRANCH   4  16
ATOM     16  N   UNL     1      -5.996  -2.442 130.725  0.00  0.00    +0.000 N 
BRANCH  16  17
ATOM     17  C   UNL     1      -4.782  -1.560 130.837  0.00  0.00    +0.000 C 
BRANCH  17  18
ATOM     18  C   UNL     1      -3.409  -2.193 130.760  0.00  0.00    +0.000 C 
ATOM     19 CL   UNL     1      -3.106  -3.233 129.365  0.00  0.00    +0.000 Cl
ENDBRANCH  17  18
ENDBRANCH  16  17
BRANCH  16  20
ATOM     20  C   UNL     1      -6.550  -2.947 132.024  0.00  0.00    +0.000 C 
BRANCH  20  21
ATOM     21  C   UNL     1      -5.845  -4.192 132.584  0.00  0.00    +0.000 C 
ATOM     22 CL   UNL     1      -5.438  -5.361 131.308  0.00  0.00    +0.000 Cl
ENDBRANCH  20  21
ENDBRANCH  16  20
ENDBRANCH   4  16
TORSDOF 10
ENDMDL
MODEL 3
REMARK VINA RESULT:      -5.8      8.490     10.013
REMARK  Name = Melphalan
REMARK  10 active torsions:
REMARK  status: ('A' for Active; 'I' for Inactive)
REMARK    1  A    between atoms: N_1  and  CA_2
REMARK    2  A    between atoms: CA_2  and  C_3
REMARK    3  A    between atoms: CA_2  and  C_17
REMARK    4  A    between atoms: C_3  and  C_4
REMARK    5  A    between atoms: C_7  and  N_10
REMARK    6  A    between atoms: N_10  and  C_11
REMARK    7  A    between atoms: N_10  and  C_14
REMARK    8  A    between atoms: C_11  and  C_12
REMARK    9  A    between atoms: C_14  and  C_15
REMARK   10  A    between atoms: C_17  and  O_18
REMARK                            x       y       z     vdW  Elec       q    Type
REMARK                         _______ _______ _______ _____ _____    ______ ____
ROOT
ATOM      1  C   UNL     1      -8.523  -3.078 127.012  0.00  0.00    +0.000 A 
ATOM      2  C   UNL     1      -9.008  -3.776 128.086  0.00  0.00    +0.000 A 
ATOM      3  C   UNL     1      -8.323  -3.753 129.278  0.00  0.00    +0.000 A 
ATOM      4  C   UNL     1      -7.048  -3.229 129.489  0.00  0.00    +0.000 A 
ATOM      5  C   UNL     1      -6.560  -2.537 128.368  0.00  0.00    +0.000 A 
ATOM      6  C   UNL     1      -7.289  -2.446 127.156  0.00  0.00    +0.000 A 
ENDROOT
BRANCH   1   7
ATOM      7  C   UNL     1      -9.415  -2.923 125.816  0.00  0.00    +0.000 C 
BRANCH   7   8
ATOM      8  CA  UNL     1      -8.866  -1.935 124.766  0.00  0.00    +0.000 C 
BRANCH   8   9
ATOM      9  N   UNL     1      -9.508  -0.587 124.902  0.00  0.00    +0.000 NA
ATOM     10  H1  UNL     1      -8.731   0.086 124.991  0.00  0.00    +0.000 HD
ATOM     11  H2  UNL     1      -9.933  -0.527 125.831  0.00  0.00    +0.000 HD
ENDBRANCH   8   9
BRANCH   8  12
ATOM     12  C   UNL     1      -9.093  -2.514 123.379  0.00  0.00    +0.000 C 
ATOM     13  OXT UNL     1      -8.406  -2.230 122.400  0.00  0.00    +0.000 OA
BRANCH  12  14
ATOM     14  O   UNL     1     -10.130  -3.380 123.329  0.00  0.00    +0.000 OA
ATOM     15  H   UNL     1      -9.846  -4.210 123.781  0.00  0.00    +0.000 HD
ENDBRANCH  12  14
ENDBRANCH   8  12
ENDBRANCH   7   8
ENDBRANCH   1   7
BRANCH   4  16
ATOM     16  N   UNL     1      -6.352  -3.362 130.695  0.00  0.00    +0.000 N 
BRANCH  16  17
ATOM     17  C   UNL     1      -5.046  -4.084 130.884  0.00  0.00    +0.000 C 
BRANCH  17  18
ATOM     18  C   UNL     1      -3.755  -3.356 130.570  0.00  0.00    +0.000 C 
ATOM     19 CL   UNL     1      -2.960  -3.797 129.056  0.00  0.00    +0.000 Cl
ENDBRANCH  17  18
ENDBRANCH  16  17
BRANCH  16  20
ATOM     20  C   UNL     1      -6.819  -2.552 131.867  0.00  0.00    +0.000 C 
BRANCH  20  21
ATOM     21  C   UNL     1      -6.888  -1.038 131.615  0.00  0.00    +0.000 C 
ATOM     22 CL   UNL     1      -8.556  -0.475 131.368  0.00  0.00    +0.000 Cl
ENDBRANCH  20  21
ENDBRANCH  16  20
ENDBRANCH   4  16
TORSDOF 10
ENDMDL
MODEL 4
REMARK VINA RESULT:      -5.8      8.629      9.927
REMARK  Name = Melphalan
REMARK  10 active torsions:
REMARK  status: ('A' for Active; 'I' for Inactive)
REMARK    1  A    between atoms: N_1  and  CA_2
REMARK    2  A    between atoms: CA_2  and  C_3
REMARK    3  A    between atoms: CA_2  and  C_17
REMARK    4  A    between atoms: C_3  and  C_4
REMARK    5  A    between atoms: C_7  and  N_10
REMARK    6  A    between atoms: N_10  and  C_11
REMARK    7  A    between atoms: N_10  and  C_14
REMARK    8  A    between atoms: C_11  and  C_12
REMARK    9  A    between atoms: C_14  and  C_15
REMARK   10  A    between atoms: C_17  and  O_18
REMARK                            x       y       z     vdW  Elec       q    Type
REMARK                         _______ _______ _______ _____ _____    ______ ____
ROOT
ATOM      1  C   UNL     1      -8.521  -3.073 126.960  0.00  0.00    +0.000 A 
ATOM      2  C   UNL     1      -9.032  -3.786 128.011  0.00  0.00    +0.000 A 
ATOM      3  C   UNL     1      -8.381  -3.775 129.222  0.00  0.00    +0.000 A 
ATOM      4  C   UNL     1      -7.115  -3.246 129.475  0.00  0.00    +0.000 A 
ATOM      5  C   UNL     1      -6.601  -2.538 128.377  0.00  0.00    +0.000 A 
ATOM      6  C   UNL     1      -7.296  -2.435 127.146  0.00  0.00    +0.000 A 
ENDROOT
BRANCH   1   7
ATOM      7  C   UNL     1      -9.380  -2.907 125.741  0.00  0.00    +0.000 C 
BRANCH   7   8
ATOM      8  CA  UNL     1      -8.807  -1.904 124.719  0.00  0.00    +0.000 C 
BRANCH   8   9
ATOM      9  N   UNL     1      -9.419  -0.546 124.889  0.00  0.00    +0.000 NA
ATOM     10  H1  UNL     1     -10.414  -0.712 125.110  0.00  0.00    +0.000 HD
ATOM     11  H2  UNL     1      -9.489  -0.109 123.966  0.00  0.00    +0.000 HD
ENDBRANCH   8   9
BRANCH   8  12
ATOM     12  C   UNL     1      -9.042  -2.440 123.316  0.00  0.00    +0.000 C 
ATOM     13  OXT UNL     1      -8.318  -2.185 122.357  0.00  0.00    +0.000 OA
BRANCH  12  14
ATOM     14  O   UNL     1     -10.133  -3.234 123.229  0.00  0.00    +0.000 OA
ATOM     15  H   UNL     1      -9.923  -4.081 123.689  0.00  0.00    +0.000 HD
ENDBRANCH  12  14
ENDBRANCH   8  12
ENDBRANCH   7   8
ENDBRANCH   1   7
BRANCH   4  16
ATOM     16  N   UNL     1      -6.453  -3.391 130.698  0.00  0.00    +0.000 N 
BRANCH  16  17
ATOM     17  C   UNL     1      -6.930  -2.873 132.027  0.00  0.00    +0.000 C 
BRANCH  17  18
ATOM     18  C   UNL     1      -7.050  -1.377 132.229  0.00  0.00    +0.000 C 
ATOM     19 CL   UNL     1      -8.268  -0.553 131.250  0.00  0.00    +0.000 Cl
ENDBRANCH  17  18
ENDBRANCH  16  17
BRANCH  16  20
ATOM     20  C   UNL     1      -5.272  -4.313 130.750  0.00  0.00    +0.000 C 
BRANCH  20  21
ATOM     21  C   UNL     1      -3.907  -3.608 130.792  0.00  0.00    +0.000 C 
ATOM     22 CL   UNL     1      -3.077  -3.662 129.222  0.00  0.00    +0.000 Cl
ENDBRANCH  20  21
ENDBRANCH  16  20
ENDBRANCH   4  16
TORSDOF 10
ENDMDL
MODEL 5
REMARK VINA RESULT:      -5.7      9.263     10.517
REMARK  Name = Melphalan
REMARK  10 active torsions:
REMARK  status: ('A' for Active; 'I' for Inactive)
REMARK    1  A    between atoms: N_1  and  CA_2
REMARK    2  A    between atoms: CA_2  and  C_3
REMARK    3  A    between atoms: CA_2  and  C_17
REMARK    4  A    between atoms: C_3  and  C_4
REMARK    5  A    between atoms: C_7  and  N_10
REMARK    6  A    between atoms: N_10  and  C_11
REMARK    7  A    between atoms: N_10  and  C_14
REMARK    8  A    between atoms: C_11  and  C_12
REMARK    9  A    between atoms: C_14  and  C_15
REMARK   10  A    between atoms: C_17  and  O_18
REMARK                            x       y       z     vdW  Elec       q    Type
REMARK                         _______ _______ _______ _____ _____    ______ ____
ROOT
ATOM      1  C   UNL     1      -6.828   1.839 123.805  0.00  0.00    +0.000 A 
ATOM      2  C   UNL     1      -7.282   0.818 123.014  0.00  0.00    +0.000 A 
ATOM      3  C   UNL     1      -7.328  -0.462 123.515  0.00  0.00    +0.000 A 
ATOM      4  C   UNL     1      -6.781  -0.899 124.721  0.00  0.00    +0.000 A 
ATOM      5  C   UNL     1      -6.301   0.163 125.507  0.00  0.00    +0.000 A 
ATOM      6  C   UNL     1      -6.339   1.510 125.068  0.00  0.00    +0.000 A 
ENDROOT
BRANCH   1   7
ATOM      7  C   UNL     1      -7.025   3.244 123.317  0.00  0.00    +0.000 C 
BRANCH   7   8
ATOM      8  CA  UNL     1      -6.349   3.521 121.958  0.00  0.00    +0.000 C 
BRANCH   8   9
ATOM      9  N   UNL     1      -5.348   4.631 122.066  0.00  0.00    +0.000 NA
ATOM     10  H1  UNL     1      -5.693   5.249 122.817  0.00  0.00    +0.000 HD
ATOM     11  H2  UNL     1      -5.450   5.235 121.246  0.00  0.00    +0.000 HD
ENDBRANCH   8   9
BRANCH   8  12
ATOM     12  C   UNL     1      -7.421   3.847 120.932  0.00  0.00    +0.000 C 
ATOM     13  OXT UNL     1      -7.189   4.052 119.743  0.00  0.00    +0.000 OA
BRANCH  12  14
ATOM     14  O   UNL     1      -8.665   3.885 121.460  0.00  0.00    +0.000 OA
ATOM     15  H   UNL     1      -9.034   2.971 121.420  0.00  0.00    +0.000 HD
ENDBRANCH  12  14
ENDBRANCH   8  12
ENDBRANCH   7   8
ENDBRANCH   1   7
BRANCH   4  16
ATOM     16  N   UNL     1      -6.742  -2.242 125.106  0.00  0.00    +0.000 N 
BRANCH  16  17
ATOM     17  C   UNL     1      -7.935  -3.120 125.369  0.00  0.00    +0.000 C 
BRANCH  17  18
ATOM     18  C   UNL     1      -8.862  -2.770 126.514  0.00  0.00    +0.000 C 
ATOM     19 CL   UNL     1      -9.018  -3.984 127.789  0.00  0.00    +0.000 Cl
ENDBRANCH  17  18
ENDBRANCH  16  17
BRANCH  16  20
ATOM     20  C   UNL     1      -5.419  -2.947 125.059  0.00  0.00    +0.000 C 
BRANCH  20  21
ATOM     21  C   UNL     1      -4.887  -3.220 123.643  0.00  0.00    +0.000 C 
ATOM     22 CL   UNL     1      -4.308  -4.891 123.457  0.00  0.00    +0.000 Cl
ENDBRANCH  20  21
ENDBRANCH  16  20
ENDBRANCH   4  16
TORSDOF 10
ENDMDL
MODEL 6
REMARK VINA RESULT:      -5.7      1.378      2.632
REMARK  Name = Melphalan
REMARK  10 active torsions:
REMARK  status: ('A' for Active; 'I' for Inactive)
REMARK    1  A    between atoms: N_1  and  CA_2
REMARK    2  A    between atoms: CA_2  and  C_3
REMARK    3  A    between atoms: CA_2  and  C_17
REMARK    4  A    between atoms: C_3  and  C_4
REMARK    5  A    between atoms: C_7  and  N_10
REMARK    6  A    between atoms: N_10  and  C_11
REMARK    7  A    between atoms: N_10  and  C_14
REMARK    8  A    between atoms: C_11  and  C_12
REMARK    9  A    between atoms: C_14  and  C_15
REMARK   10  A    between atoms: C_17  and  O_18
REMARK                            x       y       z     vdW  Elec       q    Type
REMARK                         _______ _______ _______ _____ _____    ______ ____
ROOT
ATOM      1  C   UNL     1     -11.056   7.336 130.373  0.00  0.00    +0.000 A 
ATOM      2  C   UNL     1     -11.640   6.787 131.483  0.00  0.00    +0.000 A 
ATOM      3  C   UNL     1     -10.856   6.177 132.434  0.00  0.00    +0.000 A 
ATOM      4  C   UNL     1      -9.498   5.879 132.319  0.00  0.00    +0.000 A 
ATOM      5  C   UNL     1      -8.924   6.433 131.162  0.00  0.00    +0.000 A 
ATOM      6  C   UNL     1      -9.682   7.164 130.214  0.00  0.00    +0.000 A 
ENDROOT
BRANCH   1   7
ATOM      7  C   UNL     1     -11.904   8.203 129.490  0.00  0.00    +0.000 C 
BRANCH   7   8
ATOM      8  CA  UNL     1     -12.531   7.442 128.304  0.00  0.00    +0.000 C 
BRANCH   8   9
ATOM      9  N   UNL     1     -12.804   6.012 128.660  0.00  0.00    +0.000 NA
ATOM     10  H1  UNL     1     -12.723   5.958 129.688  0.00  0.00    +0.000 HD
ATOM     11  H2  UNL     1     -12.000   5.450 128.366  0.00  0.00    +0.000 HD
ENDBRANCH   8   9
BRANCH   8  12
ATOM     12  C   UNL     1     -11.601   7.542 127.106  0.00  0.00    +0.000 C 
ATOM     13  OXT UNL     1     -10.744   8.412 126.977  0.00  0.00    +0.000 OA
BRANCH  12  14
ATOM     14  O   UNL     1     -11.809   6.568 126.192  0.00  0.00    +0.000 OA
ATOM     15  H   UNL     1     -11.963   5.726 126.684  0.00  0.00    +0.000 HD
ENDBRANCH  12  14
ENDBRANCH   8  12
ENDBRANCH   7   8
ENDBRANCH   1   7
BRANCH   4  16
ATOM     16  N   UNL     1      -8.792   5.132 133.267  0.00  0.00    +0.000 N 
BRANCH  16  17
ATOM     17  C   UNL     1      -9.123   3.735 133.714  0.00  0.00    +0.000 C 
BRANCH  17  18
ATOM     18  C   UNL     1      -9.332   2.662 132.667  0.00  0.00    +0.000 C 
ATOM     19 CL   UNL     1      -8.310   2.765 131.230  0.00  0.00    +0.000 Cl
ENDBRANCH  17  18
ENDBRANCH  16  17
BRANCH  16  20
ATOM     20  C   UNL     1      -7.473   5.667 133.739  0.00  0.00    +0.000 C 
BRANCH  20  21
ATOM     21  C   UNL     1      -6.244   4.990 133.113  0.00  0.00    +0.000 C 
ATOM     22 CL   UNL     1      -5.133   6.167 132.378  0.00  0.00    +0.000 Cl
ENDBRANCH  20  21
ENDBRANCH  16  20
ENDBRANCH   4  16
TORSDOF 10
ENDMDL
MODEL 7
REMARK VINA RESULT:      -5.7      2.048      2.763
REMARK  Name = Melphalan
REMARK  10 active torsions:
REMARK  status: ('A' for Active; 'I' for Inactive)
REMARK    1  A    between atoms: N_1  and  CA_2
REMARK    2  A    between atoms: CA_2  and  C_3
REMARK    3  A    between atoms: CA_2  and  C_17
REMARK    4  A    between atoms: C_3  and  C_4
REMARK    5  A    between atoms: C_7  and  N_10
REMARK    6  A    between atoms: N_10  and  C_11
REMARK    7  A    between atoms: N_10  and  C_14
REMARK    8  A    between atoms: C_11  and  C_12
REMARK    9  A    between atoms: C_14  and  C_15
REMARK   10  A    between atoms: C_17  and  O_18
REMARK                            x       y       z     vdW  Elec       q    Type
REMARK                         _______ _______ _______ _____ _____    ______ ____
ROOT
ATOM      1  C   UNL     1     -11.928   6.333 130.345  0.00  0.00    +0.000 A 
ATOM      2  C   UNL     1     -11.197   6.865 131.374  0.00  0.00    +0.000 A 
ATOM      3  C   UNL     1     -10.143   6.155 131.899  0.00  0.00    +0.000 A 
ATOM      4  C   UNL     1      -9.821   4.826 131.620  0.00  0.00    +0.000 A 
ATOM      5  C   UNL     1     -10.597   4.294 130.577  0.00  0.00    +0.000 A 
ATOM      6  C   UNL     1     -11.620   5.036 129.936  0.00  0.00    +0.000 A 
ENDROOT
BRANCH   1   7
ATOM      7  C   UNL     1     -12.900   7.231 129.638  0.00  0.00    +0.000 C 
BRANCH   7   8
ATOM      8  CA  UNL     1     -12.219   8.310 128.771  0.00  0.00    +0.000 C 
BRANCH   8   9
ATOM      9  N   UNL     1     -13.094   9.518 128.621  0.00  0.00    +0.000 NA
ATOM     10  H1  UNL     1     -13.333   9.568 127.619  0.00  0.00    +0.000 HD
ATOM     11  H2  UNL     1     -12.509  10.352 128.731  0.00  0.00    +0.000 HD
ENDBRANCH   8   9
BRANCH   8  12
ATOM     12  C   UNL     1     -11.874   7.710 127.418  0.00  0.00    +0.000 C 
ATOM     13  OXT UNL     1     -12.477   6.765 126.915  0.00  0.00    +0.000 OA
BRANCH  12  14
ATOM     14  O   UNL     1     -10.833   8.328 126.815  0.00  0.00    +0.000 OA
ATOM     15  H   UNL     1     -11.195   8.855 126.063  0.00  0.00    +0.000 HD
ENDBRANCH  12  14
ENDBRANCH   8  12
ENDBRANCH   7   8
ENDBRANCH   1   7
BRANCH   4  16
ATOM     16  N   UNL     1      -8.818   4.122 132.293  0.00  0.00    +0.000 N 
BRANCH  16  17
ATOM     17  C   UNL     1      -7.415   3.894 131.799  0.00  0.00    +0.000 C 
BRANCH  17  18
ATOM     18  C   UNL     1      -6.770   4.945 130.920  0.00  0.00    +0.000 C 
ATOM     19 CL   UNL     1      -6.566   6.545 131.639  0.00  0.00    +0.000 Cl
ENDBRANCH  17  18
ENDBRANCH  16  17
BRANCH  16  20
ATOM     20  C   UNL     1      -9.074   3.728 133.717  0.00  0.00    +0.000 C 
BRANCH  20  21
ATOM     21  C   UNL     1      -7.982   4.158 134.709  0.00  0.00    +0.000 C 
ATOM     22 CL   UNL     1      -7.907   5.923 134.900  0.00  0.00    +0.000 Cl
ENDBRANCH  20  21
ENDBRANCH  16  20
ENDBRANCH   4  16
TORSDOF 10
ENDMDL
MODEL 8
REMARK VINA RESULT:      -5.6      1.388      3.078
REMARK  Name = Melphalan
REMARK  10 active torsions:
REMARK  status: ('A' for Active; 'I' for Inactive)
REMARK    1  A    between atoms: N_1  and  CA_2
REMARK    2  A    between atoms: CA_2  and  C_3
REMARK    3  A    between atoms: CA_2  and  C_17
REMARK    4  A    between atoms: C_3  and  C_4
REMARK    5  A    between atoms: C_7  and  N_10
REMARK    6  A    between atoms: N_10  and  C_11
REMARK    7  A    between atoms: N_10  and  C_14
REMARK    8  A    between atoms: C_11  and  C_12
REMARK    9  A    between atoms: C_14  and  C_15
REMARK   10  A    between atoms: C_17  and  O_18
REMARK                            x       y       z     vdW  Elec       q    Type
REMARK                         _______ _______ _______ _____ _____    ______ ____
ROOT
ATOM      1  C   UNL     1      -9.943   7.243 130.262  0.00  0.00    +0.000 A 
ATOM      2  C   UNL     1      -8.603   7.106 130.508  0.00  0.00    +0.000 A 
ATOM      3  C   UNL     1      -8.181   6.361 131.584  0.00  0.00    +0.000 A 
ATOM      4  C   UNL     1      -8.985   5.851 132.603  0.00  0.00    +0.000 A 
ATOM      5  C   UNL     1     -10.355   6.022 132.341  0.00  0.00    +0.000 A 
ATOM      6  C   UNL     1     -10.829   6.689 131.185  0.00  0.00    +0.000 A 
ENDROOT
BRANCH   1   7
ATOM      7  C   UNL     1     -10.358   7.847 128.953  0.00  0.00    +0.000 C 
BRANCH   7   8
ATOM      8  CA  UNL     1     -10.840   6.804 127.923  0.00  0.00    +0.000 C 
BRANCH   8   9
ATOM      9  N   UNL     1      -9.772   6.504 126.914  0.00  0.00    +0.000 NA
ATOM     10  H1  UNL     1      -8.963   6.160 127.454  0.00  0.00    +0.000 HD
ATOM     11  H2  UNL     1      -9.412   7.393 126.556  0.00  0.00    +0.000 HD
ENDBRANCH   8   9
BRANCH   8  12
ATOM     12  C   UNL     1     -12.101   7.320 127.251  0.00  0.00    +0.000 C 
ATOM     13  OXT UNL     1     -12.846   8.161 127.749  0.00  0.00    +0.000 OA
BRANCH  12  14
ATOM     14  O   UNL     1     -12.322   6.762 126.040  0.00  0.00    +0.000 OA
ATOM     15  H   UNL     1     -11.479   6.341 125.748  0.00  0.00    +0.000 HD
ENDBRANCH  12  14
ENDBRANCH   8  12
ENDBRANCH   7   8
ENDBRANCH   1   7
BRANCH   4  16
ATOM     16  N   UNL     1      -8.475   5.220 133.741  0.00  0.00    +0.000 N 
BRANCH  16  17
ATOM     17  C   UNL     1      -8.789   3.819 134.190  0.00  0.00    +0.000 C 
BRANCH  17  18
ATOM     18  C   UNL     1      -9.010   2.748 133.142  0.00  0.00    +0.000 C 
ATOM     19 CL   UNL     1      -7.693   2.501 131.991  0.00  0.00    +0.000 Cl
ENDBRANCH  17  18
ENDBRANCH  16  17
BRANCH  16  20
ATOM     20  C   UNL     1      -7.360   5.900 134.479  0.00  0.00    +0.000 C 
BRANCH  20  21
ATOM     21  C   UNL     1      -7.379   5.697 136.002  0.00  0.00    +0.000 C 
ATOM     22 CL   UNL     1      -5.945   4.819 136.578  0.00  0.00    +0.000 Cl
ENDBRANCH  20  21
ENDBRANCH  16  20
ENDBRANCH   4  16
TORSDOF 10
ENDMDL
MODEL 9
REMARK VINA RESULT:      -5.6      8.383     10.054
REMARK  Name = Melphalan
REMARK  10 active torsions:
REMARK  status: ('A' for Active; 'I' for Inactive)
REMARK    1  A    between atoms: N_1  and  CA_2
REMARK    2  A    between atoms: CA_2  and  C_3
REMARK    3  A    between atoms: CA_2  and  C_17
REMARK    4  A    between atoms: C_3  and  C_4
REMARK    5  A    between atoms: C_7  and  N_10
REMARK    6  A    between atoms: N_10  and  C_11
REMARK    7  A    between atoms: N_10  and  C_14
REMARK    8  A    between atoms: C_11  and  C_12
REMARK    9  A    between atoms: C_14  and  C_15
REMARK   10  A    between atoms: C_17  and  O_18
REMARK                            x       y       z     vdW  Elec       q    Type
REMARK                         _______ _______ _______ _____ _____    ______ ____
ROOT
ATOM      1  C   UNL     1      -7.987  -3.030 126.197  0.00  0.00    +0.000 A 
ATOM      2  C   UNL     1      -6.940  -2.277 126.655  0.00  0.00    +0.000 A 
ATOM      3  C   UNL     1      -6.666  -2.240 128.003  0.00  0.00    +0.000 A 
ATOM      4  C   UNL     1      -7.465  -2.756 129.023  0.00  0.00    +0.000 A 
ATOM      5  C   UNL     1      -8.546  -3.506 128.530  0.00  0.00    +0.000 A 
ATOM      6  C   UNL     1      -8.795  -3.657 127.143  0.00  0.00    +0.000 A 
ENDROOT
BRANCH   1   7
ATOM      7  C   UNL     1      -8.101  -3.244 124.716  0.00  0.00    +0.000 C 
BRANCH   7   8
ATOM      8  CA  UNL     1      -9.348  -2.581 124.095  0.00  0.00    +0.000 C 
BRANCH   8   9
ATOM      9  N   UNL     1     -10.177  -3.579 123.345  0.00  0.00    +0.000 NA
ATOM     10  H1  UNL     1     -10.110  -3.310 122.351  0.00  0.00    +0.000 HD
ATOM     11  H2  UNL     1     -11.164  -3.385 123.539  0.00  0.00    +0.000 HD
ENDBRANCH   8   9
BRANCH   8  12
ATOM     12  C   UNL     1      -8.902  -1.445 123.188  0.00  0.00    +0.000 C 
ATOM     13  OXT UNL     1      -7.726  -1.164 122.973  0.00  0.00    +0.000 OA
BRANCH  12  14
ATOM     14  O   UNL     1      -9.936  -0.773 122.635  0.00  0.00    +0.000 OA
ATOM     15  H   UNL     1      -9.558  -0.078 122.046  0.00  0.00    +0.000 HD
ENDBRANCH  12  14
ENDBRANCH   8  12
ENDBRANCH   7   8
ENDBRANCH   1   7
BRANCH   4  16
ATOM     16  N   UNL     1      -7.196  -2.563 130.381  0.00  0.00    +0.000 N 
BRANCH  16  17
ATOM     17  C   UNL     1      -6.526  -3.550 131.298  0.00  0.00    +0.000 C 
BRANCH  17  18
ATOM     18  C   UNL     1      -5.581  -4.574 130.704  0.00  0.00    +0.000 C 
ATOM     19 CL   UNL     1      -4.135  -3.935 129.916  0.00  0.00    +0.000 Cl
ENDBRANCH  17  18
ENDBRANCH  16  17
BRANCH  16  20
ATOM     20  C   UNL     1      -7.394  -1.188 130.946  0.00  0.00    +0.000 C 
BRANCH  20  21
ATOM     21  C   UNL     1      -6.163  -0.598 131.650  0.00  0.00    +0.000 C 
ATOM     22 CL   UNL     1      -4.783  -0.416 130.544  0.00  0.00    +0.000 Cl
ENDBRANCH  20  21
ENDBRANCH  16  20
ENDBRANCH   4  16
TORSDOF 10
ENDMDL
