MODEL 1
REMARK VINA RESULT:      -7.5      0.000      0.000
REMARK  Name = Melphalan flufenamide
REMARK  16 active torsions:
REMARK  status: ('A' for Active; 'I' for Inactive)
REMARK    1  A    between atoms: C_1  and  C_2
REMARK    2  A    between atoms: C_2  and  O_3
REMARK    3  A    between atoms: O_3  and  C_4
REMARK    4  A    between atoms: C_4  and  C_6
REMARK    5  A    between atoms: C_6  and  C_7
REMARK    6  A    between atoms: C_6  and  N_15
REMARK    7  A    between atoms: C_7  and  C_8
REMARK    8  A    between atoms: C_16  and  C_18
REMARK    9  A    between atoms: C_18  and  N_19
REMARK   10  A    between atoms: C_18  and  C_20
REMARK   11  A    between atoms: C_20  and  C_21
REMARK   12  A    between atoms: C_24  and  N_27
REMARK   13  A    between atoms: N_27  and  C_28
REMARK   14  A    between atoms: N_27  and  C_31
REMARK   15  A    between atoms: C_28  and  C_29
REMARK   16  A    between atoms: C_31  and  C_32
REMARK                            x       y       z     vdW  Elec       q    Type
REMARK                         _______ _______ _______ _____ _____    ______ ____
ROOT
ATOM      1  N   UNL     1      -8.843   0.666 124.271  0.00  0.00    +0.000 N 
ATOM      2  C   UNL     1      -8.153  -0.450 123.808  0.00  0.00    +0.000 C 
ATOM      3  O   UNL     1      -7.134  -0.405 123.123  0.00  0.00    +0.000 OA
ATOM      4  H   UNL     1      -9.821   0.569 124.512  0.00  0.00    +0.000 HD
ENDROOT
BRANCH   1   5
ATOM      5  C   UNL     1      -8.291   1.934 123.877  0.00  0.00    +0.000 C 
BRANCH   5   6
ATOM      6  C   UNL     1      -8.177   2.902 125.087  0.00  0.00    +0.000 C 
ATOM      7  O   UNL     1      -8.816   3.949 125.220  0.00  0.00    +0.000 OA
BRANCH   6   8
ATOM      8  O   UNL     1      -7.235   2.491 125.970  0.00  0.00    +0.000 OA
BRANCH   8  10
ATOM      9  C   UNL     1      -5.133   1.504 126.415  0.00  0.00    +0.000 C 
ATOM     10  C   UNL     1      -5.898   2.427 125.489  0.00  0.00    +0.000 C 
ENDBRANCH   8  10
ENDBRANCH   6   8
ENDBRANCH   5   6
BRANCH   5  11
ATOM     11  C   UNL     1      -8.991   2.645 122.715  0.00  0.00    +0.000 C 
BRANCH  11  12
ATOM     12  C   UNL     1      -7.964   3.245 121.756  0.00  0.00    +0.000 A 
ATOM     13  C   UNL     1      -6.588   3.304 122.084  0.00  0.00    +0.000 A 
ATOM     14  C   UNL     1      -5.647   3.872 121.246  0.00  0.00    +0.000 A 
ATOM     15  C   UNL     1      -6.068   4.392 120.044  0.00  0.00    +0.000 A 
ATOM     16  F   UNL     1      -5.163   4.942 119.229  0.00  0.00    +0.000 F 
ATOM     17  C   UNL     1      -7.413   4.354 119.680  0.00  0.00    +0.000 A 
ATOM     18  C   UNL     1      -8.367   3.784 120.532  0.00  0.00    +0.000 A 
ENDBRANCH  11  12
ENDBRANCH   5  11
ENDBRANCH   1   5
BRANCH   2  19
ATOM     19  C   UNL     1      -8.846  -1.726 124.175  0.00  0.00    +0.000 C 
BRANCH  19  20
ATOM     20  N   UNL     1      -9.626  -2.137 122.994  0.00  0.00    +0.000 NA
ATOM     21  H   UNL     1      -9.738  -1.352 122.355  0.00  0.00    +0.000 HD
ATOM     22  H   UNL     1     -10.515  -2.555 123.222  0.00  0.00    +0.000 HD
ENDBRANCH  19  20
BRANCH  19  23
ATOM     23  C   UNL     1      -7.791  -2.745 124.579  0.00  0.00    +0.000 C 
BRANCH  23  24
ATOM     24  C   UNL     1      -7.315  -2.521 125.976  0.00  0.00    +0.000 A 
ATOM     25  C   UNL     1      -6.032  -2.096 126.139  0.00  0.00    +0.000 A 
ATOM     26  C   UNL     1      -5.502  -2.123 127.416  0.00  0.00    +0.000 A 
ATOM     27  C   UNL     1      -6.205  -2.366 128.613  0.00  0.00    +0.000 A 
ATOM     28  C   UNL     1      -7.513  -2.772 128.403  0.00  0.00    +0.000 A 
ATOM     29  C   UNL     1      -8.044  -2.849 127.124  0.00  0.00    +0.000 A 
BRANCH  27  30
ATOM     30  N   UNL     1      -5.682  -2.244 129.900  0.00  0.00    +0.000 N 
BRANCH  30  31
ATOM     31  C   UNL     1      -4.398  -1.573 130.244  0.00  0.00    +0.000 C 
BRANCH  31  32
ATOM     32  C   UNL     1      -3.180  -2.442 130.462  0.00  0.00    +0.000 C 
ATOM     33 CL   UNL     1      -2.836  -3.615 129.188  0.00  0.00    +0.000 Cl
ENDBRANCH  31  32
ENDBRANCH  30  31
BRANCH  30  34
ATOM     34  C   UNL     1      -6.585  -2.583 131.054  0.00  0.00    +0.000 C 
BRANCH  34  35
ATOM     35  C   UNL     1      -6.182  -3.843 131.829  0.00  0.00    +0.000 C 
ATOM     36 CL   UNL     1      -5.640  -5.150 130.754  0.00  0.00    +0.000 Cl
ENDBRANCH  34  35
ENDBRANCH  30  34
ENDBRANCH  27  30
ENDBRANCH  23  24
ENDBRANCH  19  23
ENDBRANCH   2  19
TORSDOF 15
ENDMDL
MODEL 2
REMARK VINA RESULT:      -7.5      1.630      2.456
REMARK  Name = Melphalan flufenamide
REMARK  16 active torsions:
REMARK  status: ('A' for Active; 'I' for Inactive)
REMARK    1  A    between atoms: C_1  and  C_2
REMARK    2  A    between atoms: C_2  and  O_3
REMARK    3  A    between atoms: O_3  and  C_4
REMARK    4  A    between atoms: C_4  and  C_6
REMARK    5  A    between atoms: C_6  and  C_7
REMARK    6  A    between atoms: C_6  and  N_15
REMARK    7  A    between atoms: C_7  and  C_8
REMARK    8  A    between atoms: C_16  and  C_18
REMARK    9  A    between atoms: C_18  and  N_19
REMARK   10  A    between atoms: C_18  and  C_20
REMARK   11  A    between atoms: C_20  and  C_21
REMARK   12  A    between atoms: C_24  and  N_27
REMARK   13  A    between atoms: N_27  and  C_28
REMARK   14  A    between atoms: N_27  and  C_31
REMARK   15  A    between atoms: C_28  and  C_29
REMARK   16  A    between atoms: C_31  and  C_32
REMARK                            x       y       z     vdW  Elec       q    Type
REMARK                         _______ _______ _______ _____ _____    ______ ____
ROOT
ATOM      1  N   UNL     1      -8.785   0.443 124.195  0.00  0.00    +0.000 N 
ATOM      2  C   UNL     1      -7.815  -0.493 123.847  0.00  0.00    +0.000 C 
ATOM      3  O   UNL     1      -6.728  -0.218 123.347  0.00  0.00    +0.000 OA
ATOM      4  H   UNL     1      -9.748   0.143 124.265  0.00  0.00    +0.000 HD
ENDROOT
BRANCH   1   5
ATOM      5  C   UNL     1      -8.444   1.810 123.910  0.00  0.00    +0.000 C 
BRANCH   5   6
ATOM      6  C   UNL     1      -8.712   2.727 125.136  0.00  0.00    +0.000 C 
ATOM      7  O   UNL     1      -8.780   3.958 125.100  0.00  0.00    +0.000 OA
BRANCH   6   8
ATOM      8  O   UNL     1      -8.804   2.012 126.284  0.00  0.00    +0.000 OA
BRANCH   8  10
ATOM      9  C   UNL     1      -8.539   1.835 128.627  0.00  0.00    +0.000 C 
ATOM     10  C   UNL     1      -7.958   2.416 127.354  0.00  0.00    +0.000 C 
ENDBRANCH   8  10
ENDBRANCH   6   8
ENDBRANCH   5   6
BRANCH   5  11
ATOM     11  C   UNL     1      -9.089   2.423 122.663  0.00  0.00    +0.000 C 
BRANCH  11  12
ATOM     12  C   UNL     1      -8.036   3.119 121.802  0.00  0.00    +0.000 A 
ATOM     13  C   UNL     1      -8.373   3.738 120.574  0.00  0.00    +0.000 A 
ATOM     14  C   UNL     1      -7.432   4.344 119.763  0.00  0.00    +0.000 A 
ATOM     15  C   UNL     1      -6.119   4.350 120.174  0.00  0.00    +0.000 A 
ATOM     16  F   UNL     1      -5.204   4.935 119.395  0.00  0.00    +0.000 F 
ATOM     17  C   UNL     1      -5.742   3.754 121.377  0.00  0.00    +0.000 A 
ATOM     18  C   UNL     1      -6.696   3.135 122.195  0.00  0.00    +0.000 A 
ENDBRANCH  11  12
ENDBRANCH   5  11
ENDBRANCH   1   5
BRANCH   2  19
ATOM     19  C   UNL     1      -8.285  -1.896 124.082  0.00  0.00    +0.000 C 
BRANCH  19  20
ATOM     20  N   UNL     1      -7.079  -2.712 124.309  0.00  0.00    +0.000 NA
ATOM     21  H   UNL     1      -6.548  -2.345 125.096  0.00  0.00    +0.000 HD
ATOM     22  H   UNL     1      -6.499  -2.813 123.490  0.00  0.00    +0.000 HD
ENDBRANCH  19  20
BRANCH  19  23
ATOM     23  C   UNL     1      -9.235  -1.891 125.270  0.00  0.00    +0.000 C 
BRANCH  23  24
ATOM     24  C   UNL     1      -8.540  -2.281 126.532  0.00  0.00    +0.000 A 
ATOM     25  C   UNL     1      -8.926  -3.444 127.126  0.00  0.00    +0.000 A 
ATOM     26  C   UNL     1      -8.476  -3.693 128.409  0.00  0.00    +0.000 A 
ATOM     27  C   UNL     1      -7.499  -2.961 129.113  0.00  0.00    +0.000 A 
ATOM     28  C   UNL     1      -7.115  -1.799 128.464  0.00  0.00    +0.000 A 
ATOM     29  C   UNL     1      -7.625  -1.473 127.216  0.00  0.00    +0.000 A 
BRANCH  27  30
ATOM     30  N   UNL     1      -6.954  -3.315 130.348  0.00  0.00    +0.000 N 
BRANCH  30  31
ATOM     31  C   UNL     1      -7.480  -2.885 131.673  0.00  0.00    +0.000 C 
BRANCH  31  32
ATOM     32  C   UNL     1      -7.317  -1.434 132.063  0.00  0.00    +0.000 C 
ATOM     33 CL   UNL     1      -8.622  -0.354 131.567  0.00  0.00    +0.000 Cl
ENDBRANCH  31  32
ENDBRANCH  30  31
BRANCH  30  34
ATOM     34  C   UNL     1      -5.921  -4.409 130.366  0.00  0.00    +0.000 C 
BRANCH  34  35
ATOM     35  C   UNL     1      -4.484  -3.923 130.580  0.00  0.00    +0.000 C 
ATOM     36 CL   UNL     1      -3.645  -3.603 129.046  0.00  0.00    +0.000 Cl
ENDBRANCH  34  35
ENDBRANCH  30  34
ENDBRANCH  27  30
ENDBRANCH  23  24
ENDBRANCH  19  23
ENDBRANCH   2  19
TORSDOF 15
ENDMDL
MODEL 3
REMARK VINA RESULT:      -7.0      4.980      6.549
REMARK  Name = Melphalan flufenamide
REMARK  16 active torsions:
REMARK  status: ('A' for Active; 'I' for Inactive)
REMARK    1  A    between atoms: C_1  and  C_2
REMARK    2  A    between atoms: C_2  and  O_3
REMARK    3  A    between atoms: O_3  and  C_4
REMARK    4  A    between atoms: C_4  and  C_6
REMARK    5  A    between atoms: C_6  and  C_7
REMARK    6  A    between atoms: C_6  and  N_15
REMARK    7  A    between atoms: C_7  and  C_8
REMARK    8  A    between atoms: C_16  and  C_18
REMARK    9  A    between atoms: C_18  and  N_19
REMARK   10  A    between atoms: C_18  and  C_20
REMARK   11  A    between atoms: C_20  and  C_21
REMARK   12  A    between atoms: C_24  and  N_27
REMARK   13  A    between atoms: N_27  and  C_28
REMARK   14  A    between atoms: N_27  and  C_31
REMARK   15  A    between atoms: C_28  and  C_29
REMARK   16  A    between atoms: C_31  and  C_32
REMARK                            x       y       z     vdW  Elec       q    Type
REMARK                         _______ _______ _______ _____ _____    ______ ____
ROOT
ATOM      1  N   UNL     1      -5.861   3.571 124.979  0.00  0.00    +0.000 N 
ATOM      2  C   UNL     1      -5.615   4.819 125.542  0.00  0.00    +0.000 C 
ATOM      3  O   UNL     1      -6.180   5.858 125.211  0.00  0.00    +0.000 OA
ATOM      4  H   UNL     1      -5.146   2.858 125.041  0.00  0.00    +0.000 HD
ENDROOT
BRANCH   1   5
ATOM      5  C   UNL     1      -6.845   3.558 123.929  0.00  0.00    +0.000 C 
BRANCH   5   6
ATOM      6  C   UNL     1      -8.246   3.164 124.473  0.00  0.00    +0.000 C 
ATOM      7  O   UNL     1      -8.974   3.891 125.152  0.00  0.00    +0.000 OA
BRANCH   6   8
ATOM      8  O   UNL     1      -8.562   1.883 124.161  0.00  0.00    +0.000 OA
BRANCH   8  10
ATOM      9  C   UNL     1     -10.108   0.816 122.725  0.00  0.00    +0.000 C 
ATOM     10  C   UNL     1      -9.946   1.586 124.020  0.00  0.00    +0.000 C 
ENDBRANCH   8  10
ENDBRANCH   6   8
ENDBRANCH   5   6
BRANCH   5  11
ATOM     11  C   UNL     1      -6.513   2.704 122.702  0.00  0.00    +0.000 C 
BRANCH  11  12
ATOM     12  C   UNL     1      -6.290   3.589 121.477  0.00  0.00    +0.000 A 
ATOM     13  C   UNL     1      -5.123   4.380 121.335  0.00  0.00    +0.000 A 
ATOM     14  C   UNL     1      -4.917   5.213 120.252  0.00  0.00    +0.000 A 
ATOM     15  C   UNL     1      -5.881   5.267 119.272  0.00  0.00    +0.000 A 
ATOM     16  F   UNL     1      -5.686   6.070 118.222  0.00  0.00    +0.000 F 
ATOM     17  C   UNL     1      -7.043   4.504 119.370  0.00  0.00    +0.000 A 
ATOM     18  C   UNL     1      -7.256   3.665 120.471  0.00  0.00    +0.000 A 
ENDBRANCH  11  12
ENDBRANCH   5  11
ENDBRANCH   1   5
BRANCH   2  19
ATOM     19  C   UNL     1      -4.511   4.766 126.553  0.00  0.00    +0.000 C 
BRANCH  19  20
ATOM     20  N   UNL     1      -4.466   6.090 127.198  0.00  0.00    +0.000 NA
ATOM     21  H   UNL     1      -3.522   6.290 127.527  0.00  0.00    +0.000 HD
ATOM     22  H   UNL     1      -5.143   6.203 127.937  0.00  0.00    +0.000 HD
ENDBRANCH  19  20
BRANCH  19  23
ATOM     23  C   UNL     1      -4.808   3.636 127.528  0.00  0.00    +0.000 C 
BRANCH  23  24
ATOM     24  C   UNL     1      -5.830   4.037 128.540  0.00  0.00    +0.000 A 
ATOM     25  C   UNL     1      -5.400   4.248 129.814  0.00  0.00    +0.000 A 
ATOM     26  C   UNL     1      -6.357   4.374 130.804  0.00  0.00    +0.000 A 
ATOM     27  C   UNL     1      -7.748   4.498 130.618  0.00  0.00    +0.000 A 
ATOM     28  C   UNL     1      -8.141   4.301 129.304  0.00  0.00    +0.000 A 
ATOM     29  C   UNL     1      -7.208   4.075 128.303  0.00  0.00    +0.000 A 
BRANCH  27  30
ATOM     30  N   UNL     1      -8.679   4.770 131.620  0.00  0.00    +0.000 N 
BRANCH  30  31
ATOM     31  C   UNL     1      -9.253   6.113 131.917  0.00  0.00    +0.000 C 
BRANCH  31  32
ATOM     32  C   UNL     1     -10.386   6.608 131.047  0.00  0.00    +0.000 C 
ATOM     33 CL   UNL     1      -9.916   7.600 129.665  0.00  0.00    +0.000 Cl
ENDBRANCH  31  32
ENDBRANCH  30  31
BRANCH  30  34
ATOM     34  C   UNL     1      -9.350   3.600 132.286  0.00  0.00    +0.000 C 
BRANCH  34  35
ATOM     35  C   UNL     1      -9.255   3.598 133.815  0.00  0.00    +0.000 C 
ATOM     36 CL   UNL     1      -7.614   3.965 134.390  0.00  0.00    +0.000 Cl
ENDBRANCH  34  35
ENDBRANCH  30  34
ENDBRANCH  27  30
ENDBRANCH  23  24
ENDBRANCH  19  23
ENDBRANCH   2  19
TORSDOF 15
ENDMDL
MODEL 4
REMARK VINA RESULT:      -7.0      5.983      8.147
REMARK  Name = Melphalan flufenamide
REMARK  16 active torsions:
REMARK  status: ('A' for Active; 'I' for Inactive)
REMARK    1  A    between atoms: C_1  and  C_2
REMARK    2  A    between atoms: C_2  and  O_3
REMARK    3  A    between atoms: O_3  and  C_4
REMARK    4  A    between atoms: C_4  and  C_6
REMARK    5  A    between atoms: C_6  and  C_7
REMARK    6  A    between atoms: C_6  and  N_15
REMARK    7  A    between atoms: C_7  and  C_8
REMARK    8  A    between atoms: C_16  and  C_18
REMARK    9  A    between atoms: C_18  and  N_19
REMARK   10  A    between atoms: C_18  and  C_20
REMARK   11  A    between atoms: C_20  and  C_21
REMARK   12  A    between atoms: C_24  and  N_27
REMARK   13  A    between atoms: N_27  and  C_28
REMARK   14  A    between atoms: N_27  and  C_31
REMARK   15  A    between atoms: C_28  and  C_29
REMARK   16  A    between atoms: C_31  and  C_32
REMARK                            x       y       z     vdW  Elec       q    Type
REMARK                         _______ _______ _______ _____ _____    ______ ____
ROOT
ATOM      1  N   UNL     1      -8.344   4.497 129.874  0.00  0.00    +0.000 N 
ATOM      2  C   UNL     1      -8.216   4.350 128.496  0.00  0.00    +0.000 C 
ATOM      3  O   UNL     1      -8.616   5.164 127.667  0.00  0.00    +0.000 OA
ATOM      4  H   UNL     1      -8.319   3.670 130.456  0.00  0.00    +0.000 HD
ENDROOT
BRANCH   1   5
ATOM      5  C   UNL     1      -9.015   5.695 130.300  0.00  0.00    +0.000 C 
BRANCH   5   6
ATOM      6  C   UNL     1      -8.259   6.379 131.473  0.00  0.00    +0.000 C 
ATOM      7  O   UNL     1      -7.152   6.915 131.387  0.00  0.00    +0.000 OA
BRANCH   6   8
ATOM      8  O   UNL     1      -8.939   6.266 132.640  0.00  0.00    +0.000 OA
BRANCH   8  10
ATOM      9  C   UNL     1      -8.847   4.233 133.845  0.00  0.00    +0.000 C 
ATOM     10  C   UNL     1      -8.259   5.624 133.712  0.00  0.00    +0.000 C 
ENDBRANCH   8  10
ENDBRANCH   6   8
ENDBRANCH   5   6
BRANCH   5  11
ATOM     11  C   UNL     1     -10.496   5.549 130.662  0.00  0.00    +0.000 C 
BRANCH  11  12
ATOM     12  C   UNL     1     -11.283   6.775 130.204  0.00  0.00    +0.000 A 
ATOM     13  C   UNL     1     -10.986   7.437 128.987  0.00  0.00    +0.000 A 
ATOM     14  C   UNL     1     -11.663   8.567 128.571  0.00  0.00    +0.000 A 
ATOM     15  C   UNL     1     -12.670   9.060 129.368  0.00  0.00    +0.000 A 
ATOM     16  F   UNL     1     -13.329  10.153 128.970  0.00  0.00    +0.000 F 
ATOM     17  C   UNL     1     -12.998   8.440 130.572  0.00  0.00    +0.000 A 
ATOM     18  C   UNL     1     -12.307   7.298 130.998  0.00  0.00    +0.000 A 
ENDBRANCH  11  12
ENDBRANCH   5  11
ENDBRANCH   1   5
BRANCH   2  19
ATOM     19  C   UNL     1      -7.599   3.035 128.131  0.00  0.00    +0.000 C 
BRANCH  19  20
ATOM     20  N   UNL     1      -8.708   2.137 127.761  0.00  0.00    +0.000 NA
ATOM     21  H   UNL     1      -9.567   2.428 128.226  0.00  0.00    +0.000 HD
ATOM     22  H   UNL     1      -8.512   1.162 127.929  0.00  0.00    +0.000 HD
ENDBRANCH  19  20
BRANCH  19  23
ATOM     23  C   UNL     1      -6.614   3.266 126.994  0.00  0.00    +0.000 C 
BRANCH  23  24
ATOM     24  C   UNL     1      -6.415   2.031 126.179  0.00  0.00    +0.000 A 
ATOM     25  C   UNL     1      -6.969   2.007 124.935  0.00  0.00    +0.000 A 
ATOM     26  C   UNL     1      -7.009   0.795 124.271  0.00  0.00    +0.000 A 
ATOM     27  C   UNL     1      -6.366  -0.398 124.660  0.00  0.00    +0.000 A 
ATOM     28  C   UNL     1      -5.795  -0.323 125.920  0.00  0.00    +0.000 A 
ATOM     29  C   UNL     1      -5.825   0.855 126.652  0.00  0.00    +0.000 A 
BRANCH  27  30
ATOM     30  N   UNL     1      -6.298  -1.566 123.902  0.00  0.00    +0.000 N 
BRANCH  30  31
ATOM     31  C   UNL     1      -7.118  -1.854 122.692  0.00  0.00    +0.000 C 
BRANCH  31  32
ATOM     32  C   UNL     1      -8.567  -2.235 122.893  0.00  0.00    +0.000 C 
ATOM     33 CL   UNL     1      -8.954  -2.998 124.437  0.00  0.00    +0.000 Cl
ENDBRANCH  31  32
ENDBRANCH  30  31
BRANCH  30  34
ATOM     34  C   UNL     1      -5.147  -2.499 124.161  0.00  0.00    +0.000 C 
BRANCH  34  35
ATOM     35  C   UNL     1      -5.499  -3.987 124.061  0.00  0.00    +0.000 C 
ATOM     36 CL   UNL     1      -4.185  -4.944 123.340  0.00  0.00    +0.000 Cl
ENDBRANCH  34  35
ENDBRANCH  30  34
ENDBRANCH  27  30
ENDBRANCH  23  24
ENDBRANCH  19  23
ENDBRANCH   2  19
TORSDOF 15
ENDMDL
MODEL 5
REMARK VINA RESULT:      -6.9      5.288      7.341
REMARK  Name = Melphalan flufenamide
REMARK  16 active torsions:
REMARK  status: ('A' for Active; 'I' for Inactive)
REMARK    1  A    between atoms: C_1  and  C_2
REMARK    2  A    between atoms: C_2  and  O_3
REMARK    3  A    between atoms: O_3  and  C_4
REMARK    4  A    between atoms: C_4  and  C_6
REMARK    5  A    between atoms: C_6  and  C_7
REMARK    6  A    between atoms: C_6  and  N_15
REMARK    7  A    between atoms: C_7  and  C_8
REMARK    8  A    between atoms: C_16  and  C_18
REMARK    9  A    between atoms: C_18  and  N_19
REMARK   10  A    between atoms: C_18  and  C_20
REMARK   11  A    between atoms: C_20  and  C_21
REMARK   12  A    between atoms: C_24  and  N_27
REMARK   13  A    between atoms: N_27  and  C_28
REMARK   14  A    between atoms: N_27  and  C_31
REMARK   15  A    between atoms: C_28  and  C_29
REMARK   16  A    between atoms: C_31  and  C_32
REMARK                            x       y       z     vdW  Elec       q    Type
REMARK                         _______ _______ _______ _____ _____    ______ ____
ROOT
ATOM      1  N   UNL     1      -9.040  -0.095 125.267  0.00  0.00    +0.000 N 
ATOM      2  C   UNL     1      -7.910   0.293 125.980  0.00  0.00    +0.000 C 
ATOM      3  O   UNL     1      -6.909   0.800 125.481  0.00  0.00    +0.000 OA
ATOM      4  H   UNL     1      -9.650  -0.796 125.664  0.00  0.00    +0.000 HD
ENDROOT
BRANCH   1   5
ATOM      5  C   UNL     1      -8.968   0.120 123.847  0.00  0.00    +0.000 C 
BRANCH   5   6
ATOM      6  C   UNL     1     -10.085   1.087 123.364  0.00  0.00    +0.000 C 
ATOM      7  O   UNL     1     -11.195   1.207 123.889  0.00  0.00    +0.000 OA
BRANCH   6   8
ATOM      8  O   UNL     1      -9.719   1.755 122.243  0.00  0.00    +0.000 OA
BRANCH   8  10
ATOM      9  C   UNL     1      -8.695   3.554 121.099  0.00  0.00    +0.000 C 
ATOM     10  C   UNL     1      -8.753   2.787 122.405  0.00  0.00    +0.000 C 
ENDBRANCH   8  10
ENDBRANCH   6   8
ENDBRANCH   5   6
BRANCH   5  11
ATOM     11  C   UNL     1      -8.966  -1.137 122.972  0.00  0.00    +0.000 C 
BRANCH  11  12
ATOM     12  C   UNL     1      -7.784  -2.036 123.327  0.00  0.00    +0.000 A 
ATOM     13  C   UNL     1      -6.475  -1.761 122.859  0.00  0.00    +0.000 A 
ATOM     14  C   UNL     1      -5.397  -2.579 123.139  0.00  0.00    +0.000 A 
ATOM     15  C   UNL     1      -5.607  -3.698 123.911  0.00  0.00    +0.000 A 
ATOM     16  F   UNL     1      -4.568  -4.492 124.188  0.00  0.00    +0.000 F 
ATOM     17  C   UNL     1      -6.877  -4.006 124.395  0.00  0.00    +0.000 A 
ATOM     18  C   UNL     1      -7.971  -3.181 124.105  0.00  0.00    +0.000 A 
ENDBRANCH  11  12
ENDBRANCH   5  11
ENDBRANCH   1   5
BRANCH   2  19
ATOM     19  C   UNL     1      -8.022  -0.055 127.433  0.00  0.00    +0.000 C 
BRANCH  19  20
ATOM     20  N   UNL     1      -7.818  -1.511 127.535  0.00  0.00    +0.000 NA
ATOM     21  H   UNL     1      -7.673  -1.779 128.507  0.00  0.00    +0.000 HD
ATOM     22  H   UNL     1      -7.077  -1.857 126.944  0.00  0.00    +0.000 HD
ENDBRANCH  19  20
BRANCH  19  23
ATOM     23  C   UNL     1      -6.983   0.750 128.200  0.00  0.00    +0.000 C 
BRANCH  23  24
ATOM     24  C   UNL     1      -7.570   1.993 128.782  0.00  0.00    +0.000 A 
ATOM     25  C   UNL     1      -8.511   1.845 129.755  0.00  0.00    +0.000 A 
ATOM     26  C   UNL     1      -9.236   2.963 130.125  0.00  0.00    +0.000 A 
ATOM     27  C   UNL     1      -8.984   4.295 129.738  0.00  0.00    +0.000 A 
ATOM     28  C   UNL     1      -8.003   4.403 128.766  0.00  0.00    +0.000 A 
ATOM     29  C   UNL     1      -7.324   3.284 128.304  0.00  0.00    +0.000 A 
BRANCH  27  30
ATOM     30  N   UNL     1      -9.637   5.421 130.238  0.00  0.00    +0.000 N 
BRANCH  30  31
ATOM     31  C   UNL     1     -10.567   6.288 129.463  0.00  0.00    +0.000 C 
BRANCH  31  32
ATOM     32  C   UNL     1     -10.192   7.740 129.275  0.00  0.00    +0.000 C 
ATOM     33 CL   UNL     1     -10.763   8.493 127.783  0.00  0.00    +0.000 Cl
ENDBRANCH  31  32
ENDBRANCH  30  31
BRANCH  30  34
ATOM     34  C   UNL     1      -9.608   5.641 131.726  0.00  0.00    +0.000 C 
BRANCH  34  35
ATOM     35  C   UNL     1      -8.221   5.958 132.295  0.00  0.00    +0.000 C 
ATOM     36 CL   UNL     1      -7.263   6.984 131.205  0.00  0.00    +0.000 Cl
ENDBRANCH  34  35
ENDBRANCH  30  34
ENDBRANCH  27  30
ENDBRANCH  23  24
ENDBRANCH  19  23
ENDBRANCH   2  19
TORSDOF 15
ENDMDL
MODEL 6
REMARK VINA RESULT:      -6.8      6.134      8.071
REMARK  Name = Melphalan flufenamide
REMARK  16 active torsions:
REMARK  status: ('A' for Active; 'I' for Inactive)
REMARK    1  A    between atoms: C_1  and  C_2
REMARK    2  A    between atoms: C_2  and  O_3
REMARK    3  A    between atoms: O_3  and  C_4
REMARK    4  A    between atoms: C_4  and  C_6
REMARK    5  A    between atoms: C_6  and  C_7
REMARK    6  A    between atoms: C_6  and  N_15
REMARK    7  A    between atoms: C_7  and  C_8
REMARK    8  A    between atoms: C_16  and  C_18
REMARK    9  A    between atoms: C_18  and  N_19
REMARK   10  A    between atoms: C_18  and  C_20
REMARK   11  A    between atoms: C_20  and  C_21
REMARK   12  A    between atoms: C_24  and  N_27
REMARK   13  A    between atoms: N_27  and  C_28
REMARK   14  A    between atoms: N_27  and  C_31
REMARK   15  A    between atoms: C_28  and  C_29
REMARK   16  A    between atoms: C_31  and  C_32
REMARK                            x       y       z     vdW  Elec       q    Type
REMARK                         _______ _______ _______ _____ _____    ______ ____
ROOT
ATOM      1  N   UNL     1      -8.864   4.365 130.338  0.00  0.00    +0.000 N 
ATOM      2  C   UNL     1      -8.385   4.349 129.032  0.00  0.00    +0.000 C 
ATOM      3  O   UNL     1      -8.597   5.227 128.200  0.00  0.00    +0.000 OA
ATOM      4  H   UNL     1      -8.950   3.490 130.837  0.00  0.00    +0.000 HD
ENDROOT
BRANCH   1   5
ATOM      5  C   UNL     1      -9.673   5.505 130.678  0.00  0.00    +0.000 C 
BRANCH   5   6
ATOM      6  C   UNL     1      -9.404   5.976 132.134  0.00  0.00    +0.000 C 
ATOM      7  O   UNL     1     -10.211   6.580 132.845  0.00  0.00    +0.000 OA
BRANCH   6   8
ATOM      8  O   UNL     1      -8.136   5.697 132.524  0.00  0.00    +0.000 OA
BRANCH   8  10
ATOM      9  C   UNL     1      -8.420   3.991 134.136  0.00  0.00    +0.000 C 
ATOM     10  C   UNL     1      -7.944   5.411 133.904  0.00  0.00    +0.000 C 
ENDBRANCH   8  10
ENDBRANCH   6   8
ENDBRANCH   5   6
BRANCH   5  11
ATOM     11  C   UNL     1     -11.181   5.352 130.460  0.00  0.00    +0.000 C 
BRANCH  11  12
ATOM     12  C   UNL     1     -11.774   6.640 129.892  0.00  0.00    +0.000 A 
ATOM     13  C   UNL     1     -12.573   7.502 130.682  0.00  0.00    +0.000 A 
ATOM     14  C   UNL     1     -13.146   8.654 130.179  0.00  0.00    +0.000 A 
ATOM     15  C   UNL     1     -12.923   8.977 128.861  0.00  0.00    +0.000 A 
ATOM     16  F   UNL     1     -13.474  10.091 128.369  0.00  0.00    +0.000 F 
ATOM     17  C   UNL     1     -12.142   8.159 128.046  0.00  0.00    +0.000 A 
ATOM     18  C   UNL     1     -11.566   6.987 128.554  0.00  0.00    +0.000 A 
ENDBRANCH  11  12
ENDBRANCH   5  11
ENDBRANCH   1   5
BRANCH   2  19
ATOM     19  C   UNL     1      -7.638   3.087 128.728  0.00  0.00    +0.000 C 
BRANCH  19  20
ATOM     20  N   UNL     1      -6.636   2.922 129.797  0.00  0.00    +0.000 NA
ATOM     21  H   UNL     1      -6.869   2.119 130.378  0.00  0.00    +0.000 HD
ATOM     22  H   UNL     1      -6.499   3.752 130.354  0.00  0.00    +0.000 HD
ENDBRANCH  19  20
BRANCH  19  23
ATOM     23  C   UNL     1      -8.638   1.942 128.666  0.00  0.00    +0.000 C 
BRANCH  23  24
ATOM     24  C   UNL     1      -8.282   0.957 127.602  0.00  0.00    +0.000 A 
ATOM     25  C   UNL     1      -7.119   0.264 127.754  0.00  0.00    +0.000 A 
ATOM     26  C   UNL     1      -6.655  -0.459 126.671  0.00  0.00    +0.000 A 
ATOM     27  C   UNL     1      -7.349  -0.717 125.472  0.00  0.00    +0.000 A 
ATOM     28  C   UNL     1      -8.537  -0.012 125.368  0.00  0.00    +0.000 A 
ATOM     29  C   UNL     1      -8.982   0.800 126.401  0.00  0.00    +0.000 A 
BRANCH  27  30
ATOM     30  N   UNL     1      -6.921  -1.569 124.454  0.00  0.00    +0.000 N 
BRANCH  30  31
ATOM     31  C   UNL     1      -6.132  -2.816 124.654  0.00  0.00    +0.000 C 
BRANCH  31  32
ATOM     32  C   UNL     1      -4.942  -3.054 123.753  0.00  0.00    +0.000 C 
ATOM     33 CL   UNL     1      -4.438  -4.737 123.574  0.00  0.00    +0.000 Cl
ENDBRANCH  31  32
ENDBRANCH  30  31
BRANCH  30  34
ATOM     34  C   UNL     1      -7.504  -1.365 123.082  0.00  0.00    +0.000 C 
BRANCH  34  35
ATOM     35  C   UNL     1      -8.340  -2.540 122.565  0.00  0.00    +0.000 C 
ATOM     36 CL   UNL     1      -9.508  -3.120 123.773  0.00  0.00    +0.000 Cl
ENDBRANCH  34  35
ENDBRANCH  30  34
ENDBRANCH  27  30
ENDBRANCH  23  24
ENDBRANCH  19  23
ENDBRANCH   2  19
TORSDOF 15
ENDMDL
MODEL 7
REMARK VINA RESULT:      -6.7      2.495      4.095
REMARK  Name = Melphalan flufenamide
REMARK  16 active torsions:
REMARK  status: ('A' for Active; 'I' for Inactive)
REMARK    1  A    between atoms: C_1  and  C_2
REMARK    2  A    between atoms: C_2  and  O_3
REMARK    3  A    between atoms: O_3  and  C_4
REMARK    4  A    between atoms: C_4  and  C_6
REMARK    5  A    between atoms: C_6  and  C_7
REMARK    6  A    between atoms: C_6  and  N_15
REMARK    7  A    between atoms: C_7  and  C_8
REMARK    8  A    between atoms: C_16  and  C_18
REMARK    9  A    between atoms: C_18  and  N_19
REMARK   10  A    between atoms: C_18  and  C_20
REMARK   11  A    between atoms: C_20  and  C_21
REMARK   12  A    between atoms: C_24  and  N_27
REMARK   13  A    between atoms: N_27  and  C_28
REMARK   14  A    between atoms: N_27  and  C_31
REMARK   15  A    between atoms: C_28  and  C_29
REMARK   16  A    between atoms: C_31  and  C_32
REMARK                            x       y       z     vdW  Elec       q    Type
REMARK                         _______ _______ _______ _____ _____    ______ ____
ROOT
ATOM      1  N   UNL     1      -8.229   1.267 123.906  0.00  0.00    +0.000 N 
ATOM      2  C   UNL     1      -9.345   0.437 123.852  0.00  0.00    +0.000 C 
ATOM      3  O   UNL     1     -10.486   0.817 123.602  0.00  0.00    +0.000 OA
ATOM      4  H   UNL     1      -7.425   0.968 124.441  0.00  0.00    +0.000 HD
ENDROOT
BRANCH   1   5
ATOM      5  C   UNL     1      -8.491   2.659 123.660  0.00  0.00    +0.000 C 
BRANCH   5   6
ATOM      6  C   UNL     1      -8.088   3.064 122.215  0.00  0.00    +0.000 C 
ATOM      7  O   UNL     1      -8.861   3.502 121.359  0.00  0.00    +0.000 OA
BRANCH   6   8
ATOM      8  O   UNL     1      -6.777   2.821 121.975  0.00  0.00    +0.000 OA
BRANCH   8  10
ATOM      9  C   UNL     1      -5.090   4.473 122.120  0.00  0.00    +0.000 C 
ATOM     10  C   UNL     1      -6.083   3.791 121.199  0.00  0.00    +0.000 C 
ENDBRANCH   8  10
ENDBRANCH   6   8
ENDBRANCH   5   6
BRANCH   5  11
ATOM     11  C   UNL     1      -7.882   3.649 124.657  0.00  0.00    +0.000 C 
BRANCH  11  12
ATOM     12  C   UNL     1      -7.034   2.913 125.693  0.00  0.00    +0.000 A 
ATOM     13  C   UNL     1      -5.697   2.531 125.422  0.00  0.00    +0.000 A 
ATOM     14  C   UNL     1      -4.923   1.835 126.331  0.00  0.00    +0.000 A 
ATOM     15  C   UNL     1      -5.475   1.511 127.549  0.00  0.00    +0.000 A 
ATOM     16  F   UNL     1      -4.730   0.839 128.433  0.00  0.00    +0.000 F 
ATOM     17  C   UNL     1      -6.785   1.868 127.860  0.00  0.00    +0.000 A 
ATOM     18  C   UNL     1      -7.572   2.568 126.935  0.00  0.00    +0.000 A 
ENDBRANCH  11  12
ENDBRANCH   5  11
ENDBRANCH   1   5
BRANCH   2  19
ATOM     19  C   UNL     1      -9.006  -0.976 124.217  0.00  0.00    +0.000 C 
BRANCH  19  20
ATOM     20  N   UNL     1      -9.540  -1.829 123.140  0.00  0.00    +0.000 NA
ATOM     21  H   UNL     1      -9.716  -2.769 123.490  0.00  0.00    +0.000 HD
ATOM     22  H   UNL     1      -8.961  -1.847 122.314  0.00  0.00    +0.000 HD
ENDBRANCH  19  20
BRANCH  19  23
ATOM     23  C   UNL     1      -7.496  -1.083 124.370  0.00  0.00    +0.000 C 
BRANCH  23  24
ATOM     24  C   UNL     1      -7.113  -1.549 125.736  0.00  0.00    +0.000 A 
ATOM     25  C   UNL     1      -8.068  -1.497 126.705  0.00  0.00    +0.000 A 
ATOM     26  C   UNL     1      -7.667  -1.687 128.015  0.00  0.00    +0.000 A 
ATOM     27  C   UNL     1      -6.398  -2.117 128.452  0.00  0.00    +0.000 A 
ATOM     28  C   UNL     1      -5.463  -2.179 127.431  0.00  0.00    +0.000 A 
ATOM     29  C   UNL     1      -5.814  -1.900 126.118  0.00  0.00    +0.000 A 
BRANCH  27  30
ATOM     30  N   UNL     1      -6.059  -2.441 129.765  0.00  0.00    +0.000 N 
BRANCH  30  31
ATOM     31  C   UNL     1      -6.191  -1.530 130.935  0.00  0.00    +0.000 C 
BRANCH  31  32
ATOM     32  C   UNL     1      -7.519  -1.491 131.658  0.00  0.00    +0.000 C 
ATOM     33 CL   UNL     1      -7.653  -2.537 133.074  0.00  0.00    +0.000 Cl
ENDBRANCH  31  32
ENDBRANCH  30  31
BRANCH  30  34
ATOM     34  C   UNL     1      -5.781  -3.887 130.077  0.00  0.00    +0.000 C 
BRANCH  34  35
ATOM     35  C   UNL     1      -4.761  -4.111 131.197  0.00  0.00    +0.000 C 
ATOM     36 CL   UNL     1      -5.382  -5.185 132.470  0.00  0.00    +0.000 Cl
ENDBRANCH  34  35
ENDBRANCH  30  34
ENDBRANCH  27  30
ENDBRANCH  23  24
ENDBRANCH  19  23
ENDBRANCH   2  19
TORSDOF 15
ENDMDL
MODEL 8
REMARK VINA RESULT:      -6.7      7.118     11.157
REMARK  Name = Melphalan flufenamide
REMARK  16 active torsions:
REMARK  status: ('A' for Active; 'I' for Inactive)
REMARK    1  A    between atoms: C_1  and  C_2
REMARK    2  A    between atoms: C_2  and  O_3
REMARK    3  A    between atoms: O_3  and  C_4
REMARK    4  A    between atoms: C_4  and  C_6
REMARK    5  A    between atoms: C_6  and  C_7
REMARK    6  A    between atoms: C_6  and  N_15
REMARK    7  A    between atoms: C_7  and  C_8
REMARK    8  A    between atoms: C_16  and  C_18
REMARK    9  A    between atoms: C_18  and  N_19
REMARK   10  A    between atoms: C_18  and  C_20
REMARK   11  A    between atoms: C_20  and  C_21
REMARK   12  A    between atoms: C_24  and  N_27
REMARK   13  A    between atoms: N_27  and  C_28
REMARK   14  A    between atoms: N_27  and  C_31
REMARK   15  A    between atoms: C_28  and  C_29
REMARK   16  A    between atoms: C_31  and  C_32
REMARK                            x       y       z     vdW  Elec       q    Type
REMARK                         _______ _______ _______ _____ _____    ______ ____
ROOT
ATOM      1  N   UNL     1      -7.549   1.030 130.666  0.00  0.00    +0.000 N 
ATOM      2  C   UNL     1      -8.075   1.277 131.930  0.00  0.00    +0.000 C 
ATOM      3  O   UNL     1      -7.918   0.549 132.907  0.00  0.00    +0.000 OA
ATOM      4  H   UNL     1      -7.989   1.458 129.863  0.00  0.00    +0.000 HD
ENDROOT
BRANCH   1   5
ATOM      5  C   UNL     1      -6.791  -0.186 130.548  0.00  0.00    +0.000 C 
BRANCH   5   6
ATOM      6  C   UNL     1      -5.670  -0.052 129.480  0.00  0.00    +0.000 C 
ATOM      7  O   UNL     1      -5.843   0.293 128.308  0.00  0.00    +0.000 OA
BRANCH   6   8
ATOM      8  O   UNL     1      -4.463  -0.422 129.973  0.00  0.00    +0.000 OA
BRANCH   8  10
ATOM      9  C   UNL     1      -3.519  -1.398 131.909  0.00  0.00    +0.000 C 
ATOM     10  C   UNL     1      -4.242  -0.185 131.358  0.00  0.00    +0.000 C 
ENDBRANCH   8  10
ENDBRANCH   6   8
ENDBRANCH   5   6
BRANCH   5  11
ATOM     11  C   UNL     1      -7.596  -1.462 130.287  0.00  0.00    +0.000 C 
BRANCH  11  12
ATOM     12  C   UNL     1      -6.914  -2.668 130.929  0.00  0.00    +0.000 A 
ATOM     13  C   UNL     1      -6.918  -2.863 132.332  0.00  0.00    +0.000 A 
ATOM     14  C   UNL     1      -6.278  -3.929 132.937  0.00  0.00    +0.000 A 
ATOM     15  C   UNL     1      -5.621  -4.837 132.140  0.00  0.00    +0.000 A 
ATOM     16  F   UNL     1      -5.001  -5.871 132.719  0.00  0.00    +0.000 F 
ATOM     17  C   UNL     1      -5.593  -4.686 130.755  0.00  0.00    +0.000 A 
ATOM     18  C   UNL     1      -6.236  -3.603 130.142  0.00  0.00    +0.000 A 
ENDBRANCH  11  12
ENDBRANCH   5  11
ENDBRANCH   1   5
BRANCH   2  19
ATOM     19  C   UNL     1      -8.931   2.506 131.946  0.00  0.00    +0.000 C 
BRANCH  19  20
ATOM     20  N   UNL     1      -9.546   2.575 133.285  0.00  0.00    +0.000 NA
ATOM     21  H   UNL     1      -9.782   3.538 133.515  0.00  0.00    +0.000 HD
ATOM     22  H   UNL     1      -8.986   2.150 134.009  0.00  0.00    +0.000 HD
ENDBRANCH  19  20
BRANCH  19  23
ATOM     23  C   UNL     1      -8.052   3.707 131.631  0.00  0.00    +0.000 C 
BRANCH  23  24
ATOM     24  C   UNL     1      -8.853   4.853 131.106  0.00  0.00    +0.000 A 
ATOM     25  C   UNL     1     -10.053   4.565 130.530  0.00  0.00    +0.000 A 
ATOM     26  C   UNL     1     -10.686   5.571 129.824  0.00  0.00    +0.000 A 
ATOM     27  C   UNL     1     -10.319   6.931 129.786  0.00  0.00    +0.000 A 
ATOM     28  C   UNL     1      -9.105   7.185 130.404  0.00  0.00    +0.000 A 
ATOM     29  C   UNL     1      -8.398   6.173 131.038  0.00  0.00    +0.000 A 
BRANCH  27  30
ATOM     30  N   UNL     1     -11.054   7.954 129.187  0.00  0.00    +0.000 N 
BRANCH  30  31
ATOM     31  C   UNL     1     -10.776   8.538 127.845  0.00  0.00    +0.000 C 
BRANCH  31  32
ATOM     32  C   UNL     1     -10.999   7.665 126.632  0.00  0.00    +0.000 C 
ATOM     33 CL   UNL     1     -12.603   6.940 126.492  0.00  0.00    +0.000 Cl
ENDBRANCH  31  32
ENDBRANCH  30  31
BRANCH  30  34
ATOM     34  C   UNL     1     -12.370   8.325 129.814  0.00  0.00    +0.000 C 
BRANCH  34  35
ATOM     35  C   UNL     1     -13.120   9.453 129.097  0.00  0.00    +0.000 C 
ATOM     36 CL   UNL     1     -13.361  10.872 130.140  0.00  0.00    +0.000 Cl
ENDBRANCH  34  35
ENDBRANCH  30  34
ENDBRANCH  27  30
ENDBRANCH  23  24
ENDBRANCH  19  23
ENDBRANCH   2  19
TORSDOF 15
ENDMDL
MODEL 9
REMARK VINA RESULT:      -6.6      5.220      7.045
REMARK  Name = Melphalan flufenamide
REMARK  16 active torsions:
REMARK  status: ('A' for Active; 'I' for Inactive)
REMARK    1  A    between atoms: C_1  and  C_2
REMARK    2  A    between atoms: C_2  and  O_3
REMARK    3  A    between atoms: O_3  and  C_4
REMARK    4  A    between atoms: C_4  and  C_6
REMARK    5  A    between atoms: C_6  and  C_7
REMARK    6  A    between atoms: C_6  and  N_15
REMARK    7  A    between atoms: C_7  and  C_8
REMARK    8  A    between atoms: C_16  and  C_18
REMARK    9  A    between atoms: C_18  and  N_19
REMARK   10  A    between atoms: C_18  and  C_20
REMARK   11  A    between atoms: C_20  and  C_21
REMARK   12  A    between atoms: C_24  and  N_27
REMARK   13  A    between atoms: N_27  and  C_28
REMARK   14  A    between atoms: N_27  and  C_31
REMARK   15  A    between atoms: C_28  and  C_29
REMARK   16  A    between atoms: C_31  and  C_32
REMARK                            x       y       z     vdW  Elec       q    Type
REMARK                         _______ _______ _______ _____ _____    ______ ____
ROOT
ATOM      1  N   UNL     1      -8.649   0.095 124.981  0.00  0.00    +0.000 N 
ATOM      2  C   UNL     1      -7.435   0.549 125.487  0.00  0.00    +0.000 C 
ATOM      3  O   UNL     1      -6.475   0.889 124.800  0.00  0.00    +0.000 OA
ATOM      4  H   UNL     1      -9.239  -0.478 125.570  0.00  0.00    +0.000 HD
ENDROOT
BRANCH   1   5
ATOM      5  C   UNL     1      -8.723   0.021 123.547  0.00  0.00    +0.000 C 
BRANCH   5   6
ATOM      6  C   UNL     1      -9.851   0.935 122.991  0.00  0.00    +0.000 C 
ATOM      7  O   UNL     1     -10.873   0.537 122.427  0.00  0.00    +0.000 OA
BRANCH   6   8
ATOM      8  O   UNL     1      -9.553   2.248 123.145  0.00  0.00    +0.000 OA
BRANCH   8  10
ATOM      9  C   UNL     1      -8.796   3.396 121.222  0.00  0.00    +0.000 C 
ATOM     10  C   UNL     1      -8.370   2.710 122.504  0.00  0.00    +0.000 C 
ENDBRANCH   8  10
ENDBRANCH   6   8
ENDBRANCH   5   6
BRANCH   5  11
ATOM     11  C   UNL     1      -8.859  -1.381 122.947  0.00  0.00    +0.000 C 
BRANCH  11  12
ATOM     12  C   UNL     1      -7.623  -2.222 123.264  0.00  0.00    +0.000 A 
ATOM     13  C   UNL     1      -7.682  -3.324 124.152  0.00  0.00    +0.000 A 
ATOM     14  C   UNL     1      -6.570  -4.076 124.478  0.00  0.00    +0.000 A 
ATOM     15  C   UNL     1      -5.363  -3.744 123.909  0.00  0.00    +0.000 A 
ATOM     16  F   UNL     1      -4.284  -4.469 124.220  0.00  0.00    +0.000 F 
ATOM     17  C   UNL     1      -5.259  -2.669 123.028  0.00  0.00    +0.000 A 
ATOM     18  C   UNL     1      -6.385  -1.902 122.702  0.00  0.00    +0.000 A 
ENDBRANCH  11  12
ENDBRANCH   5  11
ENDBRANCH   1   5
BRANCH   2  19
ATOM     19  C   UNL     1      -7.403   0.501 126.984  0.00  0.00    +0.000 C 
BRANCH  19  20
ATOM     20  N   UNL     1      -6.159   1.173 127.401  0.00  0.00    +0.000 NA
ATOM     21  H   UNL     1      -6.366   2.096 127.779  0.00  0.00    +0.000 HD
ATOM     22  H   UNL     1      -5.462   1.221 126.673  0.00  0.00    +0.000 HD
ENDBRANCH  19  20
BRANCH  19  23
ATOM     23  C   UNL     1      -8.656   1.185 127.513  0.00  0.00    +0.000 C 
BRANCH  23  24
ATOM     24  C   UNL     1      -8.326   2.228 128.528  0.00  0.00    +0.000 A 
ATOM     25  C   UNL     1      -8.579   1.933 129.833  0.00  0.00    +0.000 A 
ATOM     26  C   UNL     1      -8.515   2.965 130.751  0.00  0.00    +0.000 A 
ATOM     27  C   UNL     1      -8.031   4.268 130.519  0.00  0.00    +0.000 A 
ATOM     28  C   UNL     1      -7.764   4.519 129.183  0.00  0.00    +0.000 A 
ATOM     29  C   UNL     1      -7.912   3.529 128.223  0.00  0.00    +0.000 A 
BRANCH  27  30
ATOM     30  N   UNL     1      -7.840   5.247 131.493  0.00  0.00    +0.000 N 
BRANCH  30  31
ATOM     31  C   UNL     1      -6.942   5.119 132.674  0.00  0.00    +0.000 C 
BRANCH  31  32
ATOM     32  C   UNL     1      -7.581   4.981 134.038  0.00  0.00    +0.000 C 
ATOM     33 CL   UNL     1      -8.982   3.910 134.125  0.00  0.00    +0.000 Cl
ENDBRANCH  31  32
ENDBRANCH  30  31
BRANCH  30  34
ATOM     34  C   UNL     1      -8.374   6.625 131.210  0.00  0.00    +0.000 C 
BRANCH  34  35
ATOM     35  C   UNL     1      -9.882   6.682 130.947  0.00  0.00    +0.000 C 
ATOM     36 CL   UNL     1     -10.835   6.307 132.399  0.00  0.00    +0.000 Cl
ENDBRANCH  34  35
ENDBRANCH  30  34
ENDBRANCH  27  30
ENDBRANCH  23  24
ENDBRANCH  19  23
ENDBRANCH   2  19
TORSDOF 15
ENDMDL
