MODEL 1
REMARK VINA RESULT:      -6.2      0.000      0.000
REMARK  Name = Memantine
REMARK  3 active torsions:
REMARK  status: ('A' for Active; 'I' for Inactive)
REMARK    1  A    between atoms: C_1  and  C_2
REMARK    2  A    between atoms: C_6  and  C_7
REMARK    3  A    between atoms: C_10  and  N_11
REMARK                            x       y       z     vdW  Elec       q    Type
REMARK                         _______ _______ _______ _____ _____    ______ ____
ROOT
ATOM      1  C   UNL     1      -7.875  -1.084 127.455  0.00  0.00    +0.000 C 
ATOM      2  C   UNL     1      -7.893  -1.796 126.100  0.00  0.00    +0.000 C 
ATOM      3  C   UNL     1      -8.450  -3.228 126.255  0.00  0.00    +0.000 C 
ATOM      4  C   UNL     1      -8.468  -3.947 124.897  0.00  0.00    +0.000 C 
ATOM      5  C   UNL     1      -7.036  -4.020 124.342  0.00  0.00    +0.000 C 
ATOM      6  C   UNL     1      -6.458  -2.599 124.157  0.00  0.00    +0.000 C 
ATOM      7  C   UNL     1      -5.031  -2.676 123.606  0.00  0.00    +0.000 C 
ATOM      8  C   UNL     1      -6.459  -1.880 125.526  0.00  0.00    +0.000 C 
ATOM      9  C   UNL     1      -7.365  -1.813 123.183  0.00  0.00    +0.000 C 
ATOM     10  C   UNL     1      -8.805  -1.734 123.733  0.00  0.00    +0.000 C 
ATOM     11  C   UNL     1      -9.356  -3.162 123.917  0.00  0.00    +0.000 C 
ATOM     12  C   UNL     1      -8.783  -1.020 125.101  0.00  0.00    +0.000 C 
ENDROOT
BRANCH  10  13
ATOM     13  N   UNL     1      -9.660  -0.991 122.807  0.00  0.00    +0.000 NA
ATOM     14  H   UNL     1     -10.563  -0.805 123.243  0.00  0.00    +0.000 HD
ATOM     15  H   UNL     1      -9.856  -1.562 121.984  0.00  0.00    +0.000 HD
ENDBRANCH  10  13
TORSDOF 1
ENDMDL
MODEL 2
REMARK VINA RESULT:      -6.1      1.384      3.272
REMARK  Name = Memantine
REMARK  3 active torsions:
REMARK  status: ('A' for Active; 'I' for Inactive)
REMARK    1  A    between atoms: C_1  and  C_2
REMARK    2  A    between atoms: C_6  and  C_7
REMARK    3  A    between atoms: C_10  and  N_11
REMARK                            x       y       z     vdW  Elec       q    Type
REMARK                         _______ _______ _______ _____ _____    ______ ____
ROOT
ATOM      1  C   UNL     1      -4.885  -4.068 123.973  0.00  0.00    +0.000 C 
ATOM      2  C   UNL     1      -5.977  -2.999 124.061  0.00  0.00    +0.000 C 
ATOM      3  C   UNL     1      -6.013  -2.163 122.762  0.00  0.00    +0.000 C 
ATOM      4  C   UNL     1      -7.107  -1.087 122.848  0.00  0.00    +0.000 C 
ATOM      5  C   UNL     1      -6.815  -0.159 124.038  0.00  0.00    +0.000 C 
ATOM      6  C   UNL     1      -6.791  -0.965 125.356  0.00  0.00    +0.000 C 
ATOM      7  C   UNL     1      -6.497  -0.037 126.539  0.00  0.00    +0.000 C 
ATOM      8  C   UNL     1      -5.698  -2.054 125.252  0.00  0.00    +0.000 C 
ATOM      9  C   UNL     1      -8.162  -1.653 125.545  0.00  0.00    +0.000 C 
ATOM     10  C   UNL     1      -8.464  -2.589 124.355  0.00  0.00    +0.000 C 
ATOM     11  C   UNL     1      -8.473  -1.764 123.052  0.00  0.00    +0.000 C 
ATOM     12  C   UNL     1      -7.358  -3.663 124.266  0.00  0.00    +0.000 C 
ENDROOT
BRANCH  10  13
ATOM     13  N   UNL     1      -9.762  -3.237 124.537  0.00  0.00    +0.000 NA
ATOM     14  H   UNL     1     -10.303  -2.736 125.241  0.00  0.00    +0.000 HD
ATOM     15  H   UNL     1      -9.630  -4.181 124.901  0.00  0.00    +0.000 HD
ENDBRANCH  10  13
TORSDOF 1
ENDMDL
MODEL 3
REMARK VINA RESULT:      -6.0      1.419      3.168
REMARK  Name = Memantine
REMARK  3 active torsions:
REMARK  status: ('A' for Active; 'I' for Inactive)
REMARK    1  A    between atoms: C_1  and  C_2
REMARK    2  A    between atoms: C_6  and  C_7
REMARK    3  A    between atoms: C_10  and  N_11
REMARK                            x       y       z     vdW  Elec       q    Type
REMARK                         _______ _______ _______ _____ _____    ______ ____
ROOT
ATOM      1  C   UNL     1      -5.011  -2.901 123.603  0.00  0.00    +0.000 C 
ATOM      2  C   UNL     1      -6.433  -2.688 124.130  0.00  0.00    +0.000 C 
ATOM      3  C   UNL     1      -7.119  -4.050 124.384  0.00  0.00    +0.000 C 
ATOM      4  C   UNL     1      -8.547  -3.840 124.912  0.00  0.00    +0.000 C 
ATOM      5  C   UNL     1      -9.361  -3.051 123.874  0.00  0.00    +0.000 C 
ATOM      6  C   UNL     1      -8.709  -1.674 123.612  0.00  0.00    +0.000 C 
ATOM      7  C   UNL     1      -9.522  -0.892 122.576  0.00  0.00    +0.000 C 
ATOM      8  C   UNL     1      -7.268  -1.897 123.097  0.00  0.00    +0.000 C 
ATOM      9  C   UNL     1      -8.645  -0.891 124.943  0.00  0.00    +0.000 C 
ATOM     10  C   UNL     1      -7.828  -1.676 125.992  0.00  0.00    +0.000 C 
ATOM     11  C   UNL     1      -8.493  -3.047 126.229  0.00  0.00    +0.000 C 
ATOM     12  C   UNL     1      -6.398  -1.893 125.456  0.00  0.00    +0.000 C 
ENDROOT
BRANCH  10  13
ATOM     13  N   UNL     1      -7.772  -0.932 127.250  0.00  0.00    +0.000 NA
ATOM     14  H   UNL     1      -8.406  -0.134 127.209  0.00  0.00    +0.000 HD
ATOM     15  H   UNL     1      -6.838  -0.543 127.381  0.00  0.00    +0.000 HD
ENDBRANCH  10  13
TORSDOF 1
ENDMDL
MODEL 4
REMARK VINA RESULT:      -5.6      1.606      2.498
REMARK  Name = Memantine
REMARK  3 active torsions:
REMARK  status: ('A' for Active; 'I' for Inactive)
REMARK    1  A    between atoms: C_1  and  C_2
REMARK    2  A    between atoms: C_6  and  C_7
REMARK    3  A    between atoms: C_10  and  N_11
REMARK                            x       y       z     vdW  Elec       q    Type
REMARK                         _______ _______ _______ _____ _____    ______ ____
ROOT
ATOM      1  C   UNL     1      -5.447  -1.915 127.312  0.00  0.00    +0.000 C 
ATOM      2  C   UNL     1      -6.272  -1.910 126.022  0.00  0.00    +0.000 C 
ATOM      3  C   UNL     1      -5.641  -2.862 124.981  0.00  0.00    +0.000 C 
ATOM      4  C   UNL     1      -6.465  -2.858 123.683  0.00  0.00    +0.000 C 
ATOM      5  C   UNL     1      -6.501  -1.433 123.109  0.00  0.00    +0.000 C 
ATOM      6  C   UNL     1      -7.144  -0.460 124.122  0.00  0.00    +0.000 C 
ATOM      7  C   UNL     1      -7.177   0.960 123.547  0.00  0.00    +0.000 C 
ATOM      8  C   UNL     1      -6.317  -0.484 125.428  0.00  0.00    +0.000 C 
ATOM      9  C   UNL     1      -8.580  -0.942 124.435  0.00  0.00    +0.000 C 
ATOM     10  C   UNL     1      -8.554  -2.372 125.014  0.00  0.00    +0.000 C 
ATOM     11  C   UNL     1      -7.900  -3.321 123.990  0.00  0.00    +0.000 C 
ATOM     12  C   UNL     1      -7.718  -2.375 126.311  0.00  0.00    +0.000 C 
ENDROOT
BRANCH  10  13
ATOM     13  N   UNL     1      -9.914  -2.825 125.306  0.00  0.00    +0.000 NA
ATOM     14  H   UNL     1     -10.164  -2.573 126.262  0.00  0.00    +0.000 HD
ATOM     15  H   UNL     1      -9.957  -3.843 125.261  0.00  0.00    +0.000 HD
ENDBRANCH  10  13
TORSDOF 1
ENDMDL
MODEL 5
REMARK VINA RESULT:      -5.6      0.901      3.193
REMARK  Name = Memantine
REMARK  3 active torsions:
REMARK  status: ('A' for Active; 'I' for Inactive)
REMARK    1  A    between atoms: C_1  and  C_2
REMARK    2  A    between atoms: C_6  and  C_7
REMARK    3  A    between atoms: C_10  and  N_11
REMARK                            x       y       z     vdW  Elec       q    Type
REMARK                         _______ _______ _______ _____ _____    ______ ____
ROOT
ATOM      1  C   UNL     1      -5.178  -2.964 123.408  0.00  0.00    +0.000 C 
ATOM      2  C   UNL     1      -6.392  -2.327 124.088  0.00  0.00    +0.000 C 
ATOM      3  C   UNL     1      -5.978  -1.024 124.809  0.00  0.00    +0.000 C 
ATOM      4  C   UNL     1      -7.194  -0.381 125.495  0.00  0.00    +0.000 C 
ATOM      5  C   UNL     1      -7.775  -1.365 126.523  0.00  0.00    +0.000 C 
ATOM      6  C   UNL     1      -8.216  -2.672 125.829  0.00  0.00    +0.000 C 
ATOM      7  C   UNL     1      -8.793  -3.650 126.857  0.00  0.00    +0.000 C 
ATOM      8  C   UNL     1      -6.989  -3.301 125.129  0.00  0.00    +0.000 C 
ATOM      9  C   UNL     1      -9.279  -2.335 124.758  0.00  0.00    +0.000 C 
ATOM     10  C   UNL     1      -8.704  -1.349 123.719  0.00  0.00    +0.000 C 
ATOM     11  C   UNL     1      -8.264  -0.057 124.437  0.00  0.00    +0.000 C 
ATOM     12  C   UNL     1      -7.478  -1.993 123.039  0.00  0.00    +0.000 C 
ENDROOT
BRANCH  10  13
ATOM     13  N   UNL     1      -9.714  -1.031 122.710  0.00  0.00    +0.000 NA
ATOM     14  H   UNL     1     -10.184  -1.885 122.409  0.00  0.00    +0.000 HD
ATOM     15  H   UNL     1      -9.264  -0.648 121.878  0.00  0.00    +0.000 HD
ENDBRANCH  10  13
TORSDOF 1
ENDMDL
MODEL 6
REMARK VINA RESULT:      -5.4      2.045      3.451
REMARK  Name = Memantine
REMARK  3 active torsions:
REMARK  status: ('A' for Active; 'I' for Inactive)
REMARK    1  A    between atoms: C_1  and  C_2
REMARK    2  A    between atoms: C_6  and  C_7
REMARK    3  A    between atoms: C_10  and  N_11
REMARK                            x       y       z     vdW  Elec       q    Type
REMARK                         _______ _______ _______ _____ _____    ______ ____
ROOT
ATOM      1  C   UNL     1      -6.269   0.434 125.910  0.00  0.00    +0.000 C 
ATOM      2  C   UNL     1      -6.598  -0.706 124.941  0.00  0.00    +0.000 C 
ATOM      3  C   UNL     1      -6.899  -0.142 123.534  0.00  0.00    +0.000 C 
ATOM      4  C   UNL     1      -7.230  -1.282 122.559  0.00  0.00    +0.000 C 
ATOM      5  C   UNL     1      -8.462  -2.046 123.071  0.00  0.00    +0.000 C 
ATOM      6  C   UNL     1      -8.185  -2.639 124.471  0.00  0.00    +0.000 C 
ATOM      7  C   UNL     1      -9.415  -3.397 124.978  0.00  0.00    +0.000 C 
ATOM      8  C   UNL     1      -7.837  -1.484 125.439  0.00  0.00    +0.000 C 
ATOM      9  C   UNL     1      -6.971  -3.592 124.378  0.00  0.00    +0.000 C 
ATOM     10  C   UNL     1      -5.728  -2.833 123.866  0.00  0.00    +0.000 C 
ATOM     11  C   UNL     1      -6.033  -2.244 122.474  0.00  0.00    +0.000 C 
ATOM     12  C   UNL     1      -5.403  -1.683 124.842  0.00  0.00    +0.000 C 
ENDROOT
BRANCH  10  13
ATOM     13  N   UNL     1      -4.583  -3.739 123.777  0.00  0.00    +0.000 NA
ATOM     14  H   UNL     1      -4.903  -4.706 123.816  0.00  0.00    +0.000 HD
ATOM     15  H   UNL     1      -3.976  -3.610 124.587  0.00  0.00    +0.000 HD
ENDBRANCH  10  13
TORSDOF 1
ENDMDL
MODEL 7
REMARK VINA RESULT:      -5.4      2.146      3.677
REMARK  Name = Memantine
REMARK  3 active torsions:
REMARK  status: ('A' for Active; 'I' for Inactive)
REMARK    1  A    between atoms: C_1  and  C_2
REMARK    2  A    between atoms: C_6  and  C_7
REMARK    3  A    between atoms: C_10  and  N_11
REMARK                            x       y       z     vdW  Elec       q    Type
REMARK                         _______ _______ _______ _____ _____    ______ ____
ROOT
ATOM      1  C   UNL     1      -7.494   0.799 123.403  0.00  0.00    +0.000 C 
ATOM      2  C   UNL     1      -7.219  -0.529 124.112  0.00  0.00    +0.000 C 
ATOM      3  C   UNL     1      -6.559  -1.530 123.136  0.00  0.00    +0.000 C 
ATOM      4  C   UNL     1      -6.282  -2.866 123.844  0.00  0.00    +0.000 C 
ATOM      5  C   UNL     1      -7.609  -3.455 124.351  0.00  0.00    +0.000 C 
ATOM      6  C   UNL     1      -8.285  -2.484 125.344  0.00  0.00    +0.000 C 
ATOM      7  C   UNL     1      -9.606  -3.074 125.846  0.00  0.00    +0.000 C 
ATOM      8  C   UNL     1      -8.543  -1.139 124.627  0.00  0.00    +0.000 C 
ATOM      9  C   UNL     1      -7.326  -2.238 126.532  0.00  0.00    +0.000 C 
ATOM     10  C   UNL     1      -5.991  -1.644 126.032  0.00  0.00    +0.000 C 
ATOM     11  C   UNL     1      -5.342  -2.626 125.037  0.00  0.00    +0.000 C 
ATOM     12  C   UNL     1      -6.272  -0.307 125.314  0.00  0.00    +0.000 C 
ENDROOT
BRANCH  10  13
ATOM     13  N   UNL     1      -5.086  -1.414 127.159  0.00  0.00    +0.000 NA
ATOM     14  H   UNL     1      -4.346  -2.115 127.156  0.00  0.00    +0.000 HD
ATOM     15  H   UNL     1      -5.590  -1.539 128.037  0.00  0.00    +0.000 HD
ENDBRANCH  10  13
TORSDOF 1
ENDMDL
MODEL 8
REMARK VINA RESULT:      -5.4      8.591     10.954
REMARK  Name = Memantine
REMARK  3 active torsions:
REMARK  status: ('A' for Active; 'I' for Inactive)
REMARK    1  A    between atoms: C_1  and  C_2
REMARK    2  A    between atoms: C_6  and  C_7
REMARK    3  A    between atoms: C_10  and  N_11
REMARK                            x       y       z     vdW  Elec       q    Type
REMARK                         _______ _______ _______ _____ _____    ______ ____
ROOT
ATOM      1  C   UNL     1     -12.711   6.903 130.625  0.00  0.00    +0.000 C 
ATOM      2  C   UNL     1     -11.294   6.351 130.803  0.00  0.00    +0.000 C 
ATOM      3  C   UNL     1     -10.297   7.147 129.931  0.00  0.00    +0.000 C 
ATOM      4  C   UNL     1      -8.873   6.595 130.105  0.00  0.00    +0.000 C 
ATOM      5  C   UNL     1      -8.847   5.117 129.682  0.00  0.00    +0.000 C 
ATOM      6  C   UNL     1      -9.822   4.291 130.550  0.00  0.00    +0.000 C 
ATOM      7  C   UNL     1      -9.794   2.819 130.125  0.00  0.00    +0.000 C 
ATOM      8  C   UNL     1     -11.247   4.865 130.379  0.00  0.00    +0.000 C 
ATOM      9  C   UNL     1      -9.407   4.425 132.033  0.00  0.00    +0.000 C 
ATOM     10  C   UNL     1      -9.432   5.907 132.468  0.00  0.00    +0.000 C 
ATOM     11  C   UNL     1      -8.459   6.710 131.582  0.00  0.00    +0.000 C 
ATOM     12  C   UNL     1     -10.860   6.461 132.283  0.00  0.00    +0.000 C 
ENDROOT
BRANCH  10  13
ATOM     13  N   UNL     1      -9.036   6.029 133.871  0.00  0.00    +0.000 NA
ATOM     14  H   UNL     1      -8.271   5.387 134.072  0.00  0.00    +0.000 HD
ATOM     15  H   UNL     1      -9.809   5.746 134.474  0.00  0.00    +0.000 HD
ENDBRANCH  10  13
TORSDOF 1
ENDMDL
MODEL 9
REMARK VINA RESULT:      -5.3      1.757      3.158
REMARK  Name = Memantine
REMARK  3 active torsions:
REMARK  status: ('A' for Active; 'I' for Inactive)
REMARK    1  A    between atoms: C_1  and  C_2
REMARK    2  A    between atoms: C_6  and  C_7
REMARK    3  A    between atoms: C_10  and  N_11
REMARK                            x       y       z     vdW  Elec       q    Type
REMARK                         _______ _______ _______ _____ _____    ______ ____
ROOT
ATOM      1  C   UNL     1      -8.174  -2.817 128.081  0.00  0.00    +0.000 C 
ATOM      2  C   UNL     1      -7.981  -2.323 126.644  0.00  0.00    +0.000 C 
ATOM      3  C   UNL     1      -8.296  -0.813 126.551  0.00  0.00    +0.000 C 
ATOM      4  C   UNL     1      -8.105  -0.313 125.111  0.00  0.00    +0.000 C 
ATOM      5  C   UNL     1      -9.051  -1.085 124.176  0.00  0.00    +0.000 C 
ATOM      6  C   UNL     1      -8.748  -2.599 124.233  0.00  0.00    +0.000 C 
ATOM      7  C   UNL     1      -9.693  -3.364 123.303  0.00  0.00    +0.000 C 
ATOM      8  C   UNL     1      -8.927  -3.087 125.690  0.00  0.00    +0.000 C 
ATOM      9  C   UNL     1      -7.279  -2.830 123.810  0.00  0.00    +0.000 C 
ATOM     10  C   UNL     1      -6.321  -2.060 124.744  0.00  0.00    +0.000 C 
ATOM     11  C   UNL     1      -6.649  -0.555 124.676  0.00  0.00    +0.000 C 
ATOM     12  C   UNL     1      -6.521  -2.557 126.191  0.00  0.00    +0.000 C 
ENDROOT
BRANCH  10  13
ATOM     13  N   UNL     1      -4.933  -2.280 124.338  0.00  0.00    +0.000 NA
ATOM     14  H   UNL     1      -4.840  -3.200 123.908  0.00  0.00    +0.000 HD
ATOM     15  H   UNL     1      -4.329  -2.290 125.160  0.00  0.00    +0.000 HD
ENDBRANCH  10  13
TORSDOF 1
ENDMDL
