MODEL 1
REMARK VINA RESULT:      -6.3      0.000      0.000
REMARK  Name = Menadiol diphosphate
REMARK  9 active torsions:
REMARK  status: ('A' for Active; 'I' for Inactive)
REMARK    1  A    between atoms: C_1  and  C_2
REMARK    2  A    between atoms: C_3  and  O_4
REMARK    3  A    between atoms: O_4  and  P_5
REMARK    4  A    between atoms: P_5  and  O_6
REMARK    5  A    between atoms: P_5  and  O_7
REMARK    6  A    between atoms: C_15  and  O_16
REMARK    7  A    between atoms: O_16  and  P_17
REMARK    8  A    between atoms: P_17  and  O_18
REMARK    9  A    between atoms: P_17  and  O_19
REMARK                            x       y       z     vdW  Elec       q    Type
REMARK                         _______ _______ _______ _____ _____    ______ ____
ROOT
ATOM      1  C   UNL     1      -8.352   2.298 126.709  0.00  0.00    +0.000 C 
ATOM      2  C   UNL     1      -7.692   2.879 125.473  0.00  0.00    +0.000 A 
ATOM      3  C   UNL     1      -8.050   2.824 124.113  0.00  0.00    +0.000 A 
ATOM      4  C   UNL     1      -7.151   3.322 123.115  0.00  0.00    +0.000 A 
ATOM      5  C   UNL     1      -7.493   3.391 121.750  0.00  0.00    +0.000 A 
ATOM      6  C   UNL     1      -6.633   3.928 120.790  0.00  0.00    +0.000 A 
ATOM      7  C   UNL     1      -5.366   4.370 121.166  0.00  0.00    +0.000 A 
ATOM      8  C   UNL     1      -4.967   4.266 122.496  0.00  0.00    +0.000 A 
ATOM      9  C   UNL     1      -5.831   3.783 123.497  0.00  0.00    +0.000 A 
ATOM     10  C   UNL     1      -5.469   3.769 124.851  0.00  0.00    +0.000 A 
ATOM     11  C   UNL     1      -6.439   3.431 125.794  0.00  0.00    +0.000 A 
ENDROOT
BRANCH   3  12
ATOM     12  O   UNL     1      -9.262   2.293 123.636  0.00  0.00    +0.000 OA
BRANCH  12  13
ATOM     13  P   UNL     1      -9.381   0.572 123.512  0.00  0.00    +0.000 P 
ATOM     14  O   UNL     1      -9.487  -0.969 123.402  0.00  0.00    +0.000 OA
BRANCH  13  15
ATOM     15  O   UNL     1     -10.635   0.775 124.551  0.00  0.00    +0.000 OA
ATOM     16  H   UNL     1     -11.263   1.403 124.150  0.00  0.00    +0.000 HD
ENDBRANCH  13  15
BRANCH  13  17
ATOM     17  O   UNL     1     -10.283   0.861 122.160  0.00  0.00    +0.000 OA
ATOM     18  H   UNL     1     -10.873   1.631 122.259  0.00  0.00    +0.000 HD
ENDBRANCH  13  17
ENDBRANCH  12  13
ENDBRANCH   3  12
BRANCH  10  19
ATOM     19  O   UNL     1      -4.134   3.987 125.252  0.00  0.00    +0.000 OA
BRANCH  19  20
ATOM     20  P   UNL     1      -3.614   3.576 126.849  0.00  0.00    +0.000 P 
ATOM     21  O   UNL     1      -3.148   3.208 128.280  0.00  0.00    +0.000 OA
BRANCH  20  22
ATOM     22  O   UNL     1      -3.528   1.995 126.374  0.00  0.00    +0.000 OA
ATOM     23  H   UNL     1      -3.512   1.871 125.414  0.00  0.00    +0.000 HD
ENDBRANCH  20  22
BRANCH  20  24
ATOM     24  O   UNL     1      -2.098   3.922 126.316  0.00  0.00    +0.000 OA
ATOM     25  H   UNL     1      -1.433   3.305 126.664  0.00  0.00    +0.000 HD
ENDBRANCH  20  24
ENDBRANCH  19  20
ENDBRANCH  10  19
TORSDOF 8
ENDMDL
MODEL 2
REMARK VINA RESULT:      -6.2      4.438      5.826
REMARK  Name = Menadiol diphosphate
REMARK  9 active torsions:
REMARK  status: ('A' for Active; 'I' for Inactive)
REMARK    1  A    between atoms: C_1  and  C_2
REMARK    2  A    between atoms: C_3  and  O_4
REMARK    3  A    between atoms: O_4  and  P_5
REMARK    4  A    between atoms: P_5  and  O_6
REMARK    5  A    between atoms: P_5  and  O_7
REMARK    6  A    between atoms: C_15  and  O_16
REMARK    7  A    between atoms: O_16  and  P_17
REMARK    8  A    between atoms: P_17  and  O_18
REMARK    9  A    between atoms: P_17  and  O_19
REMARK                            x       y       z     vdW  Elec       q    Type
REMARK                         _______ _______ _______ _____ _____    ______ ____
ROOT
ATOM      1  C   UNL     1      -5.524   1.919 126.136  0.00  0.00    +0.000 C 
ATOM      2  C   UNL     1      -6.237   0.695 125.593  0.00  0.00    +0.000 A 
ATOM      3  C   UNL     1      -7.231   0.559 124.605  0.00  0.00    +0.000 A 
ATOM      4  C   UNL     1      -7.864  -0.710 124.396  0.00  0.00    +0.000 A 
ATOM      5  C   UNL     1      -8.788  -0.937 123.357  0.00  0.00    +0.000 A 
ATOM      6  C   UNL     1      -9.360  -2.189 123.125  0.00  0.00    +0.000 A 
ATOM      7  C   UNL     1      -9.057  -3.254 123.971  0.00  0.00    +0.000 A 
ATOM      8  C   UNL     1      -8.192  -3.059 125.044  0.00  0.00    +0.000 A 
ATOM      9  C   UNL     1      -7.556  -1.823 125.271  0.00  0.00    +0.000 A 
ATOM     10  C   UNL     1      -6.610  -1.648 126.290  0.00  0.00    +0.000 A 
ATOM     11  C   UNL     1      -5.906  -0.447 126.344  0.00  0.00    +0.000 A 
ENDROOT
BRANCH   3  12
ATOM     12  O   UNL     1      -7.676   1.609 123.781  0.00  0.00    +0.000 OA
BRANCH  12  13
ATOM     13  P   UNL     1      -8.268   3.034 124.562  0.00  0.00    +0.000 P 
ATOM     14  O   UNL     1      -8.798   4.310 125.260  0.00  0.00    +0.000 OA
BRANCH  13  15
ATOM     15  O   UNL     1      -8.372   3.601 123.025  0.00  0.00    +0.000 OA
ATOM     16  H   UNL     1      -9.289   3.480 122.718  0.00  0.00    +0.000 HD
ENDBRANCH  13  15
BRANCH  13  17
ATOM     17  O   UNL     1      -9.739   2.286 124.525  0.00  0.00    +0.000 OA
ATOM     18  H   UNL     1      -9.962   1.852 125.368  0.00  0.00    +0.000 HD
ENDBRANCH  13  17
ENDBRANCH  12  13
ENDBRANCH   3  12
BRANCH  10  19
ATOM     19  O   UNL     1      -6.441  -2.616 127.303  0.00  0.00    +0.000 OA
BRANCH  19  20
ATOM     20  P   UNL     1      -7.177  -2.407 128.855  0.00  0.00    +0.000 P 
ATOM     21  O   UNL     1      -7.836  -2.220 130.244  0.00  0.00    +0.000 OA
BRANCH  20  22
ATOM     22  O   UNL     1      -8.164  -3.689 128.517  0.00  0.00    +0.000 OA
ATOM     23  H   UNL     1      -9.098  -3.535 128.722  0.00  0.00    +0.000 HD
ENDBRANCH  20  22
BRANCH  20  24
ATOM     24  O   UNL     1      -5.966  -3.362 129.425  0.00  0.00    +0.000 OA
ATOM     25  H   UNL     1      -6.291  -4.051 130.027  0.00  0.00    +0.000 HD
ENDBRANCH  20  24
ENDBRANCH  19  20
ENDBRANCH  10  19
TORSDOF 8
ENDMDL
MODEL 3
REMARK VINA RESULT:      -6.1      4.203      4.887
REMARK  Name = Menadiol diphosphate
REMARK  9 active torsions:
REMARK  status: ('A' for Active; 'I' for Inactive)
REMARK    1  A    between atoms: C_1  and  C_2
REMARK    2  A    between atoms: C_3  and  O_4
REMARK    3  A    between atoms: O_4  and  P_5
REMARK    4  A    between atoms: P_5  and  O_6
REMARK    5  A    between atoms: P_5  and  O_7
REMARK    6  A    between atoms: C_15  and  O_16
REMARK    7  A    between atoms: O_16  and  P_17
REMARK    8  A    between atoms: P_17  and  O_18
REMARK    9  A    between atoms: P_17  and  O_19
REMARK                            x       y       z     vdW  Elec       q    Type
REMARK                         _______ _______ _______ _____ _____    ______ ____
ROOT
ATOM      1  C   UNL     1      -7.440   2.018 127.327  0.00  0.00    +0.000 C 
ATOM      2  C   UNL     1      -6.883   0.941 126.415  0.00  0.00    +0.000 A 
ATOM      3  C   UNL     1      -7.107   0.668 125.053  0.00  0.00    +0.000 A 
ATOM      4  C   UNL     1      -6.577  -0.528 124.465  0.00  0.00    +0.000 A 
ATOM      5  C   UNL     1      -6.677  -0.808 123.089  0.00  0.00    +0.000 A 
ATOM      6  C   UNL     1      -6.111  -1.947 122.514  0.00  0.00    +0.000 A 
ATOM      7  C   UNL     1      -5.464  -2.880 123.322  0.00  0.00    +0.000 A 
ATOM      8  C   UNL     1      -5.393  -2.670 124.697  0.00  0.00    +0.000 A 
ATOM      9  C   UNL     1      -5.904  -1.504 125.298  0.00  0.00    +0.000 A 
ATOM     10  C   UNL     1      -5.748  -1.242 126.666  0.00  0.00    +0.000 A 
ATOM     11  C   UNL     1      -6.134   0.006 127.152  0.00  0.00    +0.000 A 
ENDROOT
BRANCH   3  12
ATOM     12  O   UNL     1      -7.843   1.500 124.190  0.00  0.00    +0.000 OA
BRANCH  12  13
ATOM     13  P   UNL     1      -9.564   1.335 124.205  0.00  0.00    +0.000 P 
ATOM     14  O   UNL     1     -11.106   1.188 124.220  0.00  0.00    +0.000 OA
BRANCH  13  15
ATOM     15  O   UNL     1      -9.521   2.924 124.614  0.00  0.00    +0.000 OA
ATOM     16  H   UNL     1     -10.333   3.347 124.278  0.00  0.00    +0.000 HD
ENDBRANCH  13  15
BRANCH  13  17
ATOM     17  O   UNL     1      -9.477   1.616 122.581  0.00  0.00    +0.000 OA
ATOM     18  H   UNL     1      -8.710   2.165 122.335  0.00  0.00    +0.000 HD
ENDBRANCH  13  17
ENDBRANCH  12  13
ENDBRANCH   3  12
BRANCH  10  19
ATOM     19  O   UNL     1      -5.310  -2.246 127.557  0.00  0.00    +0.000 OA
BRANCH  19  20
ATOM     20  P   UNL     1      -5.265  -1.955 129.261  0.00  0.00    +0.000 P 
ATOM     21  O   UNL     1      -5.224  -1.695 130.787  0.00  0.00    +0.000 OA
BRANCH  20  22
ATOM     22  O   UNL     1      -5.500  -3.572 129.505  0.00  0.00    +0.000 OA
ATOM     23  H   UNL     1      -5.430  -4.108 128.702  0.00  0.00    +0.000 HD
ENDBRANCH  20  22
BRANCH  20  24
ATOM     24  O   UNL     1      -3.634  -2.112 129.123  0.00  0.00    +0.000 OA
ATOM     25  H   UNL     1      -3.158  -1.325 129.437  0.00  0.00    +0.000 HD
ENDBRANCH  20  24
ENDBRANCH  19  20
ENDBRANCH  10  19
TORSDOF 8
ENDMDL
MODEL 4
REMARK VINA RESULT:      -6.0      3.245      5.747
REMARK  Name = Menadiol diphosphate
REMARK  9 active torsions:
REMARK  status: ('A' for Active; 'I' for Inactive)
REMARK    1  A    between atoms: C_1  and  C_2
REMARK    2  A    between atoms: C_3  and  O_4
REMARK    3  A    between atoms: O_4  and  P_5
REMARK    4  A    between atoms: P_5  and  O_6
REMARK    5  A    between atoms: P_5  and  O_7
REMARK    6  A    between atoms: C_15  and  O_16
REMARK    7  A    between atoms: O_16  and  P_17
REMARK    8  A    between atoms: P_17  and  O_18
REMARK    9  A    between atoms: P_17  and  O_19
REMARK                            x       y       z     vdW  Elec       q    Type
REMARK                         _______ _______ _______ _____ _____    ______ ____
ROOT
ATOM      1  C   UNL     1      -4.964   1.333 126.485  0.00  0.00    +0.000 C 
ATOM      2  C   UNL     1      -6.053   1.121 125.450  0.00  0.00    +0.000 A 
ATOM      3  C   UNL     1      -6.922   2.027 124.814  0.00  0.00    +0.000 A 
ATOM      4  C   UNL     1      -7.985   1.538 123.986  0.00  0.00    +0.000 A 
ATOM      5  C   UNL     1      -8.822   2.392 123.242  0.00  0.00    +0.000 A 
ATOM      6  C   UNL     1      -9.822   1.908 122.395  0.00  0.00    +0.000 A 
ATOM      7  C   UNL     1     -10.049   0.536 122.309  0.00  0.00    +0.000 A 
ATOM      8  C   UNL     1      -9.282  -0.340 123.072  0.00  0.00    +0.000 A 
ATOM      9  C   UNL     1      -8.230   0.113 123.891  0.00  0.00    +0.000 A 
ATOM     10  C   UNL     1      -7.392  -0.770 124.585  0.00  0.00    +0.000 A 
ATOM     11  C   UNL     1      -6.275  -0.252 125.239  0.00  0.00    +0.000 A 
ENDROOT
BRANCH   3  12
ATOM     12  O   UNL     1      -6.833   3.426 124.935  0.00  0.00    +0.000 OA
BRANCH  12  13
ATOM     13  P   UNL     1      -7.643   4.159 126.276  0.00  0.00    +0.000 P 
ATOM     14  O   UNL     1      -8.368   4.816 127.476  0.00  0.00    +0.000 OA
BRANCH  13  15
ATOM     15  O   UNL     1      -6.208   4.930 126.475  0.00  0.00    +0.000 OA
ATOM     16  H   UNL     1      -6.259   5.791 126.020  0.00  0.00    +0.000 HD
ENDBRANCH  13  15
BRANCH  13  17
ATOM     17  O   UNL     1      -8.220   5.240 125.169  0.00  0.00    +0.000 OA
ATOM     18  H   UNL     1      -8.110   4.933 124.251  0.00  0.00    +0.000 HD
ENDBRANCH  13  17
ENDBRANCH  12  13
ENDBRANCH   3  12
BRANCH  10  19
ATOM     19  O   UNL     1      -7.718  -2.138 124.712  0.00  0.00    +0.000 OA
BRANCH  19  20
ATOM     20  P   UNL     1      -8.295  -2.771 126.215  0.00  0.00    +0.000 P 
ATOM     21  O   UNL     1      -8.812  -3.338 127.560  0.00  0.00    +0.000 OA
BRANCH  20  22
ATOM     22  O   UNL     1      -9.836  -2.425 125.725  0.00  0.00    +0.000 OA
ATOM     23  H   UNL     1      -9.930  -2.305 124.769  0.00  0.00    +0.000 HD
ENDBRANCH  20  22
BRANCH  20  24
ATOM     24  O   UNL     1      -8.279  -4.235 125.466  0.00  0.00    +0.000 OA
ATOM     25  H   UNL     1      -7.887  -4.930 126.020  0.00  0.00    +0.000 HD
ENDBRANCH  20  24
ENDBRANCH  19  20
ENDBRANCH  10  19
TORSDOF 8
ENDMDL
MODEL 5
REMARK VINA RESULT:      -6.0      4.523      5.968
REMARK  Name = Menadiol diphosphate
REMARK  9 active torsions:
REMARK  status: ('A' for Active; 'I' for Inactive)
REMARK    1  A    between atoms: C_1  and  C_2
REMARK    2  A    between atoms: C_3  and  O_4
REMARK    3  A    between atoms: O_4  and  P_5
REMARK    4  A    between atoms: P_5  and  O_6
REMARK    5  A    between atoms: P_5  and  O_7
REMARK    6  A    between atoms: C_15  and  O_16
REMARK    7  A    between atoms: O_16  and  P_17
REMARK    8  A    between atoms: P_17  and  O_18
REMARK    9  A    between atoms: P_17  and  O_19
REMARK                            x       y       z     vdW  Elec       q    Type
REMARK                         _______ _______ _______ _____ _____    ______ ____
ROOT
ATOM      1  C   UNL     1      -8.326   1.835 128.072  0.00  0.00    +0.000 C 
ATOM      2  C   UNL     1      -8.260   0.594 127.202  0.00  0.00    +0.000 A 
ATOM      3  C   UNL     1      -8.776   0.328 125.920  0.00  0.00    +0.000 A 
ATOM      4  C   UNL     1      -8.716  -1.001 125.385  0.00  0.00    +0.000 A 
ATOM      5  C   UNL     1      -9.119  -1.310 124.071  0.00  0.00    +0.000 A 
ATOM      6  C   UNL     1      -9.007  -2.596 123.538  0.00  0.00    +0.000 A 
ATOM      7  C   UNL     1      -8.529  -3.635 124.334  0.00  0.00    +0.000 A 
ATOM      8  C   UNL     1      -8.174  -3.383 125.656  0.00  0.00    +0.000 A 
ATOM      9  C   UNL     1      -8.222  -2.088 126.206  0.00  0.00    +0.000 A 
ATOM     10  C   UNL     1      -7.772  -1.812 127.504  0.00  0.00    +0.000 A 
ATOM     11  C   UNL     1      -7.699  -0.481 127.913  0.00  0.00    +0.000 A 
ENDROOT
BRANCH   3  12
ATOM     12  O   UNL     1      -9.376   1.295 125.092  0.00  0.00    +0.000 OA
BRANCH  12  13
ATOM     13  P   UNL     1      -8.326   2.383 124.253  0.00  0.00    +0.000 P 
ATOM     14  O   UNL     1      -7.386   3.358 123.501  0.00  0.00    +0.000 OA
BRANCH  13  15
ATOM     15  O   UNL     1      -9.446   2.243 123.062  0.00  0.00    +0.000 OA
ATOM     16  H   UNL     1     -10.067   2.990 123.139  0.00  0.00    +0.000 HD
ENDBRANCH  13  15
BRANCH  13  17
ATOM     17  O   UNL     1      -9.137   3.578 125.054  0.00  0.00    +0.000 OA
ATOM     18  H   UNL     1      -8.599   4.381 125.176  0.00  0.00    +0.000 HD
ENDBRANCH  13  17
ENDBRANCH  12  13
ENDBRANCH   3  12
BRANCH  10  19
ATOM     19  O   UNL     1      -7.498  -2.852 128.418  0.00  0.00    +0.000 OA
BRANCH  19  20
ATOM     20  P   UNL     1      -6.383  -2.613 129.718  0.00  0.00    +0.000 P 
ATOM     21  O   UNL     1      -5.383  -2.399 130.882  0.00  0.00    +0.000 OA
BRANCH  20  22
ATOM     22  O   UNL     1      -6.444  -4.237 130.019  0.00  0.00    +0.000 OA
ATOM     23  H   UNL     1      -6.501  -4.785 129.223  0.00  0.00    +0.000 HD
ENDBRANCH  20  22
BRANCH  20  24
ATOM     24  O   UNL     1      -5.207  -2.768 128.579  0.00  0.00    +0.000 OA
ATOM     25  H   UNL     1      -4.378  -3.115 128.947  0.00  0.00    +0.000 HD
ENDBRANCH  20  24
ENDBRANCH  19  20
ENDBRANCH  10  19
TORSDOF 8
ENDMDL
MODEL 6
REMARK VINA RESULT:      -5.9      3.711      5.888
REMARK  Name = Menadiol diphosphate
REMARK  9 active torsions:
REMARK  status: ('A' for Active; 'I' for Inactive)
REMARK    1  A    between atoms: C_1  and  C_2
REMARK    2  A    between atoms: C_3  and  O_4
REMARK    3  A    between atoms: O_4  and  P_5
REMARK    4  A    between atoms: P_5  and  O_6
REMARK    5  A    between atoms: P_5  and  O_7
REMARK    6  A    between atoms: C_15  and  O_16
REMARK    7  A    between atoms: O_16  and  P_17
REMARK    8  A    between atoms: P_17  and  O_18
REMARK    9  A    between atoms: P_17  and  O_19
REMARK                            x       y       z     vdW  Elec       q    Type
REMARK                         _______ _______ _______ _____ _____    ______ ____
ROOT
ATOM      1  C   UNL     1      -7.847   1.503 124.984  0.00  0.00    +0.000 C 
ATOM      2  C   UNL     1      -7.785   0.272 125.868  0.00  0.00    +0.000 A 
ATOM      3  C   UNL     1      -8.536  -0.919 125.859  0.00  0.00    +0.000 A 
ATOM      4  C   UNL     1      -8.387  -1.867 126.923  0.00  0.00    +0.000 A 
ATOM      5  C   UNL     1      -9.030  -3.120 126.920  0.00  0.00    +0.000 A 
ATOM      6  C   UNL     1      -8.839  -4.062 127.933  0.00  0.00    +0.000 A 
ATOM      7  C   UNL     1      -8.026  -3.750 129.021  0.00  0.00    +0.000 A 
ATOM      8  C   UNL     1      -7.417  -2.500 129.092  0.00  0.00    +0.000 A 
ATOM      9  C   UNL     1      -7.546  -1.551 128.060  0.00  0.00    +0.000 A 
ATOM     10  C   UNL     1      -6.856  -0.331 128.079  0.00  0.00    +0.000 A 
ATOM     11  C   UNL     1      -6.906   0.479 126.946  0.00  0.00    +0.000 A 
ENDROOT
BRANCH   3  12
ATOM     12  O   UNL     1      -9.461  -1.263 124.856  0.00  0.00    +0.000 OA
BRANCH  12  13
ATOM     13  P   UNL     1      -8.826  -1.789 123.336  0.00  0.00    +0.000 P 
ATOM     14  O   UNL     1      -8.257  -2.260 121.975  0.00  0.00    +0.000 OA
BRANCH  13  15
ATOM     15  O   UNL     1      -9.917  -3.001 123.516  0.00  0.00    +0.000 OA
ATOM     16  H   UNL     1      -9.465  -3.756 123.936  0.00  0.00    +0.000 HD
ENDBRANCH  13  15
BRANCH  13  17
ATOM     17  O   UNL     1      -9.908  -0.738 122.667  0.00  0.00    +0.000 OA
ATOM     18  H   UNL     1      -9.736  -0.571 121.722  0.00  0.00    +0.000 HD
ENDBRANCH  13  17
ENDBRANCH  12  13
ENDBRANCH   3  12
BRANCH  10  19
ATOM     19  O   UNL     1      -6.211   0.124 129.249  0.00  0.00    +0.000 OA
BRANCH  19  20
ATOM     20  P   UNL     1      -4.987   1.343 129.165  0.00  0.00    +0.000 P 
ATOM     21  O   UNL     1      -3.891   2.434 129.090  0.00  0.00    +0.000 OA
BRANCH  20  22
ATOM     22  O   UNL     1      -5.327   1.740 130.733  0.00  0.00    +0.000 OA
ATOM     23  H   UNL     1      -6.141   1.342 131.074  0.00  0.00    +0.000 HD
ENDBRANCH  20  22
BRANCH  20  24
ATOM     24  O   UNL     1      -3.939   0.150 129.590  0.00  0.00    +0.000 OA
ATOM     25  H   UNL     1      -3.145   0.137 129.030  0.00  0.00    +0.000 HD
ENDBRANCH  20  24
ENDBRANCH  19  20
ENDBRANCH  10  19
TORSDOF 8
ENDMDL
MODEL 7
REMARK VINA RESULT:      -5.9      3.102      6.834
REMARK  Name = Menadiol diphosphate
REMARK  9 active torsions:
REMARK  status: ('A' for Active; 'I' for Inactive)
REMARK    1  A    between atoms: C_1  and  C_2
REMARK    2  A    between atoms: C_3  and  O_4
REMARK    3  A    between atoms: O_4  and  P_5
REMARK    4  A    between atoms: P_5  and  O_6
REMARK    5  A    between atoms: P_5  and  O_7
REMARK    6  A    between atoms: C_15  and  O_16
REMARK    7  A    between atoms: O_16  and  P_17
REMARK    8  A    between atoms: P_17  and  O_18
REMARK    9  A    between atoms: P_17  and  O_19
REMARK                            x       y       z     vdW  Elec       q    Type
REMARK                         _______ _______ _______ _____ _____    ______ ____
ROOT
ATOM      1  C   UNL     1      -7.134   2.054 123.113  0.00  0.00    +0.000 C 
ATOM      2  C   UNL     1      -7.359   1.494 124.504  0.00  0.00    +0.000 A 
ATOM      3  C   UNL     1      -7.117   2.042 125.778  0.00  0.00    +0.000 A 
ATOM      4  C   UNL     1      -7.265   1.227 126.948  0.00  0.00    +0.000 A 
ATOM      5  C   UNL     1      -7.139   1.740 128.254  0.00  0.00    +0.000 A 
ATOM      6  C   UNL     1      -7.338   0.954 129.390  0.00  0.00    +0.000 A 
ATOM      7  C   UNL     1      -7.622  -0.404 129.249  0.00  0.00    +0.000 A 
ATOM      8  C   UNL     1      -7.698  -0.964 127.977  0.00  0.00    +0.000 A 
ATOM      9  C   UNL     1      -7.559  -0.186 126.812  0.00  0.00    +0.000 A 
ATOM     10  C   UNL     1      -7.733  -0.726 125.530  0.00  0.00    +0.000 A 
ATOM     11  C   UNL     1      -7.742   0.142 124.439  0.00  0.00    +0.000 A 
ENDROOT
BRANCH   3  12
ATOM     12  O   UNL     1      -6.719   3.372 126.005  0.00  0.00    +0.000 OA
BRANCH  12  13
ATOM     13  P   UNL     1      -7.946   4.589 125.941  0.00  0.00    +0.000 P 
ATOM     14  O   UNL     1      -9.044   5.680 125.884  0.00  0.00    +0.000 OA
BRANCH  13  15
ATOM     15  O   UNL     1      -7.435   4.913 127.467  0.00  0.00    +0.000 OA
ATOM     16  H   UNL     1      -7.889   4.301 128.075  0.00  0.00    +0.000 HD
ENDBRANCH  13  15
BRANCH  13  17
ATOM     17  O   UNL     1      -6.796   5.527 125.217  0.00  0.00    +0.000 OA
ATOM     18  H   UNL     1      -6.417   5.111 124.421  0.00  0.00    +0.000 HD
ENDBRANCH  13  17
ENDBRANCH  12  13
ENDBRANCH   3  12
BRANCH  10  19
ATOM     19  O   UNL     1      -7.793  -2.121 125.328  0.00  0.00    +0.000 OA
BRANCH  19  20
ATOM     20  P   UNL     1      -8.952  -2.806 124.242  0.00  0.00    +0.000 P 
ATOM     21  O   UNL     1      -9.989  -3.420 123.270  0.00  0.00    +0.000 OA
BRANCH  20  22
ATOM     22  O   UNL     1      -8.350  -4.302 124.604  0.00  0.00    +0.000 OA
ATOM     23  H   UNL     1      -8.307  -4.493 125.552  0.00  0.00    +0.000 HD
ENDBRANCH  20  22
BRANCH  20  24
ATOM     24  O   UNL     1      -9.979  -2.799 125.525  0.00  0.00    +0.000 OA
ATOM     25  H   UNL     1     -10.569  -3.572 125.531  0.00  0.00    +0.000 HD
ENDBRANCH  20  24
ENDBRANCH  19  20
ENDBRANCH  10  19
TORSDOF 8
ENDMDL
MODEL 8
REMARK VINA RESULT:      -5.8      2.245      3.108
REMARK  Name = Menadiol diphosphate
REMARK  9 active torsions:
REMARK  status: ('A' for Active; 'I' for Inactive)
REMARK    1  A    between atoms: C_1  and  C_2
REMARK    2  A    between atoms: C_3  and  O_4
REMARK    3  A    between atoms: O_4  and  P_5
REMARK    4  A    between atoms: P_5  and  O_6
REMARK    5  A    between atoms: P_5  and  O_7
REMARK    6  A    between atoms: C_15  and  O_16
REMARK    7  A    between atoms: O_16  and  P_17
REMARK    8  A    between atoms: P_17  and  O_18
REMARK    9  A    between atoms: P_17  and  O_19
REMARK                            x       y       z     vdW  Elec       q    Type
REMARK                         _______ _______ _______ _____ _____    ______ ____
ROOT
ATOM      1  C   UNL     1      -7.620  -0.771 127.801  0.00  0.00    +0.000 C 
ATOM      2  C   UNL     1      -7.837   0.192 126.650  0.00  0.00    +0.000 A 
ATOM      3  C   UNL     1      -8.632   0.095 125.493  0.00  0.00    +0.000 A 
ATOM      4  C   UNL     1      -8.529   1.091 124.467  0.00  0.00    +0.000 A 
ATOM      5  C   UNL     1      -9.368   1.107 123.336  0.00  0.00    +0.000 A 
ATOM      6  C   UNL     1      -9.299   2.111 122.367  0.00  0.00    +0.000 A 
ATOM      7  C   UNL     1      -8.337   3.113 122.478  0.00  0.00    +0.000 A 
ATOM      8  C   UNL     1      -7.449   3.101 123.551  0.00  0.00    +0.000 A 
ATOM      9  C   UNL     1      -7.530   2.136 124.573  0.00  0.00    +0.000 A 
ATOM     10  C   UNL     1      -6.704   2.178 125.705  0.00  0.00    +0.000 A 
ATOM     11  C   UNL     1      -6.959   1.286 126.746  0.00  0.00    +0.000 A 
ENDROOT
BRANCH   3  12
ATOM     12  O   UNL     1      -9.549  -0.943 125.248  0.00  0.00    +0.000 OA
BRANCH  12  13
ATOM     13  P   UNL     1      -8.902  -2.494 124.839  0.00  0.00    +0.000 P 
ATOM     14  O   UNL     1      -8.322  -3.883 124.474  0.00  0.00    +0.000 OA
BRANCH  13  15
ATOM     15  O   UNL     1     -10.160  -3.044 125.738  0.00  0.00    +0.000 OA
ATOM     16  H   UNL     1     -10.983  -2.684 125.360  0.00  0.00    +0.000 HD
ENDBRANCH  13  15
BRANCH  13  17
ATOM     17  O   UNL     1      -9.784  -2.353 123.451  0.00  0.00    +0.000 OA
ATOM     18  H   UNL     1     -10.308  -3.151 123.255  0.00  0.00    +0.000 HD
ENDBRANCH  13  17
ENDBRANCH  12  13
ENDBRANCH   3  12
BRANCH  10  19
ATOM     19  O   UNL     1      -5.577   3.025 125.755  0.00  0.00    +0.000 OA
BRANCH  19  20
ATOM     20  P   UNL     1      -5.406   4.193 127.018  0.00  0.00    +0.000 P 
ATOM     21  O   UNL     1      -5.253   5.240 128.149  0.00  0.00    +0.000 OA
BRANCH  20  22
ATOM     22  O   UNL     1      -3.834   4.409 126.555  0.00  0.00    +0.000 OA
ATOM     23  H   UNL     1      -3.191   3.940 127.106  0.00  0.00    +0.000 HD
ENDBRANCH  20  22
BRANCH  20  24
ATOM     24  O   UNL     1      -5.981   5.280 125.927  0.00  0.00    +0.000 OA
ATOM     25  H   UNL     1      -6.700   5.825 126.289  0.00  0.00    +0.000 HD
ENDBRANCH  20  24
ENDBRANCH  19  20
ENDBRANCH  10  19
TORSDOF 8
ENDMDL
MODEL 9
REMARK VINA RESULT:      -5.8      1.970      6.118
REMARK  Name = Menadiol diphosphate
REMARK  9 active torsions:
REMARK  status: ('A' for Active; 'I' for Inactive)
REMARK    1  A    between atoms: C_1  and  C_2
REMARK    2  A    between atoms: C_3  and  O_4
REMARK    3  A    between atoms: O_4  and  P_5
REMARK    4  A    between atoms: P_5  and  O_6
REMARK    5  A    between atoms: P_5  and  O_7
REMARK    6  A    between atoms: C_15  and  O_16
REMARK    7  A    between atoms: O_16  and  P_17
REMARK    8  A    between atoms: P_17  and  O_18
REMARK    9  A    between atoms: P_17  and  O_19
REMARK                            x       y       z     vdW  Elec       q    Type
REMARK                         _______ _______ _______ _____ _____    ______ ____
ROOT
ATOM      1  C   UNL     1      -5.466  -0.002 127.912  0.00  0.00    +0.000 C 
ATOM      2  C   UNL     1      -5.674   0.699 126.583  0.00  0.00    +0.000 A 
ATOM      3  C   UNL     1      -5.422   2.024 126.181  0.00  0.00    +0.000 A 
ATOM      4  C   UNL     1      -5.871   2.481 124.898  0.00  0.00    +0.000 A 
ATOM      5  C   UNL     1      -5.561   3.759 124.396  0.00  0.00    +0.000 A 
ATOM      6  C   UNL     1      -5.954   4.178 123.123  0.00  0.00    +0.000 A 
ATOM      7  C   UNL     1      -6.726   3.335 122.326  0.00  0.00    +0.000 A 
ATOM      8  C   UNL     1      -7.103   2.085 122.808  0.00  0.00    +0.000 A 
ATOM      9  C   UNL     1      -6.675   1.611 124.063  0.00  0.00    +0.000 A 
ATOM     10  C   UNL     1      -6.969   0.316 124.511  0.00  0.00    +0.000 A 
ATOM     11  C   UNL     1      -6.371  -0.132 125.688  0.00  0.00    +0.000 A 
ENDROOT
BRANCH   3  12
ATOM     12  O   UNL     1      -4.747   2.975 126.968  0.00  0.00    +0.000 OA
BRANCH  12  13
ATOM     13  P   UNL     1      -3.019   2.982 126.896  0.00  0.00    +0.000 P 
ATOM     14  O   UNL     1      -1.471   2.990 126.831  0.00  0.00    +0.000 OA
BRANCH  13  15
ATOM     15  O   UNL     1      -3.199   4.556 127.326  0.00  0.00    +0.000 OA
ATOM     16  H   UNL     1      -3.784   4.593 128.105  0.00  0.00    +0.000 HD
ENDBRANCH  13  15
BRANCH  13  17
ATOM     17  O   UNL     1      -3.081   2.415 128.445  0.00  0.00    +0.000 OA
ATOM     18  H   UNL     1      -2.849   1.471 128.510  0.00  0.00    +0.000 HD
ENDBRANCH  13  17
ENDBRANCH  12  13
ENDBRANCH   3  12
BRANCH  10  19
ATOM     19  O   UNL     1      -7.927  -0.484 123.852  0.00  0.00    +0.000 OA
BRANCH  19  20
ATOM     20  P   UNL     1      -8.907  -1.599 124.741  0.00  0.00    +0.000 P 
ATOM     21  O   UNL     1      -9.785  -2.596 125.535  0.00  0.00    +0.000 OA
BRANCH  20  22
ATOM     22  O   UNL     1      -9.864  -0.332 125.200  0.00  0.00    +0.000 OA
ATOM     23  H   UNL     1     -10.814  -0.508 125.132  0.00  0.00    +0.000 HD
ENDBRANCH  20  22
BRANCH  20  24
ATOM     24  O   UNL     1      -9.717  -1.827 123.328  0.00  0.00    +0.000 OA
ATOM     25  H   UNL     1     -10.679  -1.744 123.435  0.00  0.00    +0.000 HD
ENDBRANCH  20  24
ENDBRANCH  19  20
ENDBRANCH  10  19
TORSDOF 8
ENDMDL
