MODEL 1
REMARK VINA RESULT:      -6.8      0.000      0.000
REMARK  Name = Menadione
REMARK  1 active torsions:
REMARK  status: ('A' for Active; 'I' for Inactive)
REMARK    1  A    between atoms: C_1  and  C_2
REMARK                            x       y       z     vdW  Elec       q    Type
REMARK                         _______ _______ _______ _____ _____    ______ ____
ROOT
ATOM      1  C   UNL     1      -8.883   5.990 132.381  0.00  0.00    +0.000 C 
ATOM      2  C   UNL     1     -10.038   6.371 131.510  0.00  0.00    +0.000 C 
ATOM      3  C   UNL     1     -11.277   6.545 131.985  0.00  0.00    +0.000 C 
ATOM      4  C   UNL     1     -12.403   6.974 131.135  0.00  0.00    +0.000 C 
ATOM      5  O   UNL     1     -13.505   7.175 131.628  0.00  0.00    +0.000 OA
ATOM      6  C   UNL     1     -12.146   7.153 129.695  0.00  0.00    +0.000 A 
ATOM      7  C   UNL     1     -13.197   7.523 128.846  0.00  0.00    +0.000 A 
ATOM      8  C   UNL     1     -12.967   7.663 127.477  0.00  0.00    +0.000 A 
ATOM      9  C   UNL     1     -11.691   7.449 126.957  0.00  0.00    +0.000 A 
ATOM     10  C   UNL     1     -10.640   7.097 127.805  0.00  0.00    +0.000 A 
ATOM     11  C   UNL     1     -10.868   6.945 129.179  0.00  0.00    +0.000 A 
ATOM     12  C   UNL     1      -9.749   6.560 130.063  0.00  0.00    +0.000 C 
ATOM     13  O   UNL     1      -8.622   6.392 129.613  0.00  0.00    +0.000 OA
ENDROOT
TORSDOF 0
ENDMDL
MODEL 2
REMARK VINA RESULT:      -6.5      0.974      3.802
REMARK  Name = Menadione
REMARK  1 active torsions:
REMARK  status: ('A' for Active; 'I' for Inactive)
REMARK    1  A    between atoms: C_1  and  C_2
REMARK                            x       y       z     vdW  Elec       q    Type
REMARK                         _______ _______ _______ _____ _____    ______ ____
ROOT
ATOM      1  C   UNL     1     -12.396   7.317 126.915  0.00  0.00    +0.000 C 
ATOM      2  C   UNL     1     -12.011   7.103 128.345  0.00  0.00    +0.000 C 
ATOM      3  C   UNL     1     -12.870   7.261 129.358  0.00  0.00    +0.000 C 
ATOM      4  C   UNL     1     -12.504   6.996 130.762  0.00  0.00    +0.000 C 
ATOM      5  O   UNL     1     -13.342   7.101 131.647  0.00  0.00    +0.000 OA
ATOM      6  C   UNL     1     -11.112   6.602 131.045  0.00  0.00    +0.000 A 
ATOM      7  C   UNL     1     -10.713   6.378 132.369  0.00  0.00    +0.000 A 
ATOM      8  C   UNL     1      -9.390   6.035 132.647  0.00  0.00    +0.000 A 
ATOM      9  C   UNL     1      -8.469   5.902 131.607  0.00  0.00    +0.000 A 
ATOM     10  C   UNL     1      -8.871   6.108 130.287  0.00  0.00    +0.000 A 
ATOM     11  C   UNL     1     -10.196   6.463 130.004  0.00  0.00    +0.000 A 
ATOM     12  C   UNL     1     -10.605   6.691 128.603  0.00  0.00    +0.000 C 
ATOM     13  O   UNL     1      -9.804   6.554 127.685  0.00  0.00    +0.000 OA
ENDROOT
TORSDOF 0
ENDMDL
MODEL 3
REMARK VINA RESULT:      -6.2      8.433     10.650
REMARK  Name = Menadione
REMARK  1 active torsions:
REMARK  status: ('A' for Active; 'I' for Inactive)
REMARK    1  A    between atoms: C_1  and  C_2
REMARK                            x       y       z     vdW  Elec       q    Type
REMARK                         _______ _______ _______ _____ _____    ______ ____
ROOT
ATOM      1  C   UNL     1      -7.448   4.585 118.388  0.00  0.00    +0.000 C 
ATOM      2  C   UNL     1      -6.984   4.312 119.783  0.00  0.00    +0.000 C 
ATOM      3  C   UNL     1      -5.733   4.553 120.191  0.00  0.00    +0.000 C 
ATOM      4  C   UNL     1      -5.292   4.335 121.581  0.00  0.00    +0.000 C 
ATOM      5  O   UNL     1      -4.151   4.624 121.918  0.00  0.00    +0.000 OA
ATOM      6  C   UNL     1      -6.268   3.770 122.530  0.00  0.00    +0.000 A 
ATOM      7  C   UNL     1      -5.878   3.512 123.850  0.00  0.00    +0.000 A 
ATOM      8  C   UNL     1      -6.789   2.948 124.745  0.00  0.00    +0.000 A 
ATOM      9  C   UNL     1      -8.087   2.655 124.330  0.00  0.00    +0.000 A 
ATOM     10  C   UNL     1      -8.480   2.928 123.019  0.00  0.00    +0.000 A 
ATOM     11  C   UNL     1      -7.567   3.484 122.114  0.00  0.00    +0.000 A 
ATOM     12  C   UNL     1      -7.993   3.756 120.726  0.00  0.00    +0.000 C 
ATOM     13  O   UNL     1      -9.139   3.520 120.363  0.00  0.00    +0.000 OA
ENDROOT
TORSDOF 0
ENDMDL
MODEL 4
REMARK VINA RESULT:      -6.1      1.333      4.581
REMARK  Name = Menadione
REMARK  1 active torsions:
REMARK  status: ('A' for Active; 'I' for Inactive)
REMARK    1  A    between atoms: C_1  and  C_2
REMARK                            x       y       z     vdW  Elec       q    Type
REMARK                         _______ _______ _______ _____ _____    ______ ____
ROOT
ATOM      1  C   UNL     1     -13.490   9.312 128.474  0.00  0.00    +0.000 C 
ATOM      2  C   UNL     1     -12.398   8.326 128.743  0.00  0.00    +0.000 C 
ATOM      3  C   UNL     1     -11.597   7.851 127.782  0.00  0.00    +0.000 C 
ATOM      4  C   UNL     1     -10.486   6.922 128.058  0.00  0.00    +0.000 C 
ATOM      5  O   UNL     1      -9.746   6.560 127.153  0.00  0.00    +0.000 OA
ATOM      6  C   UNL     1     -10.306   6.460 129.446  0.00  0.00    +0.000 A 
ATOM      7  C   UNL     1      -9.287   5.547 129.744  0.00  0.00    +0.000 A 
ATOM      8  C   UNL     1      -9.131   5.082 131.051  0.00  0.00    +0.000 A 
ATOM      9  C   UNL     1      -9.980   5.536 132.060  0.00  0.00    +0.000 A 
ATOM     10  C   UNL     1     -10.985   6.459 131.766  0.00  0.00    +0.000 A 
ATOM     11  C   UNL     1     -11.151   6.921 130.454  0.00  0.00    +0.000 A 
ATOM     12  C   UNL     1     -12.228   7.888 130.155  0.00  0.00    +0.000 C 
ATOM     13  O   UNL     1     -12.962   8.305 131.043  0.00  0.00    +0.000 OA
ENDROOT
TORSDOF 0
ENDMDL
MODEL 5
REMARK VINA RESULT:      -5.8      0.957      2.852
REMARK  Name = Menadione
REMARK  1 active torsions:
REMARK  status: ('A' for Active; 'I' for Inactive)
REMARK    1  A    between atoms: C_1  and  C_2
REMARK                            x       y       z     vdW  Elec       q    Type
REMARK                         _______ _______ _______ _____ _____    ______ ____
ROOT
ATOM      1  C   UNL     1      -9.820   5.687 132.776  0.00  0.00    +0.000 C 
ATOM      2  C   UNL     1     -10.215   5.981 131.363  0.00  0.00    +0.000 C 
ATOM      3  C   UNL     1      -9.390   5.793 130.327  0.00  0.00    +0.000 C 
ATOM      4  C   UNL     1      -9.798   6.031 128.930  0.00  0.00    +0.000 C 
ATOM      5  O   UNL     1      -9.025   5.790 128.012  0.00  0.00    +0.000 OA
ATOM      6  C   UNL     1     -11.153   6.558 128.692  0.00  0.00    +0.000 A 
ATOM      7  C   UNL     1     -11.567   6.835 127.383  0.00  0.00    +0.000 A 
ATOM      8  C   UNL     1     -12.838   7.363 127.153  0.00  0.00    +0.000 A 
ATOM      9  C   UNL     1     -13.700   7.603 128.223  0.00  0.00    +0.000 A 
ATOM     10  C   UNL     1     -13.293   7.311 129.526  0.00  0.00    +0.000 A 
ATOM     11  C   UNL     1     -12.015   6.790 129.762  0.00  0.00    +0.000 A 
ATOM     12  C   UNL     1     -11.593   6.498 131.148  0.00  0.00    +0.000 C 
ATOM     13  O   UNL     1     -12.355   6.687 132.089  0.00  0.00    +0.000 OA
ENDROOT
TORSDOF 0
ENDMDL
MODEL 6
REMARK VINA RESULT:      -5.7     10.584     11.642
REMARK  Name = Menadione
REMARK  1 active torsions:
REMARK  status: ('A' for Active; 'I' for Inactive)
REMARK    1  A    between atoms: C_1  and  C_2
REMARK                            x       y       z     vdW  Elec       q    Type
REMARK                         _______ _______ _______ _____ _____    ______ ____
ROOT
ATOM      1  C   UNL     1      -7.528  -2.053 122.550  0.00  0.00    +0.000 C 
ATOM      2  C   UNL     1      -7.322  -2.123 124.030  0.00  0.00    +0.000 C 
ATOM      3  C   UNL     1      -6.297  -1.525 124.648  0.00  0.00    +0.000 C 
ATOM      4  C   UNL     1      -6.126  -1.548 126.112  0.00  0.00    +0.000 C 
ATOM      5  O   UNL     1      -5.203  -0.938 126.634  0.00  0.00    +0.000 OA
ATOM      6  C   UNL     1      -7.100  -2.320 126.905  0.00  0.00    +0.000 A 
ATOM      7  C   UNL     1      -6.952  -2.400 128.295  0.00  0.00    +0.000 A 
ATOM      8  C   UNL     1      -7.853  -3.154 129.048  0.00  0.00    +0.000 A 
ATOM      9  C   UNL     1      -8.907  -3.816 128.418  0.00  0.00    +0.000 A 
ATOM     10  C   UNL     1      -9.064  -3.723 127.035  0.00  0.00    +0.000 A 
ATOM     11  C   UNL     1      -8.156  -2.975 126.274  0.00  0.00    +0.000 A 
ATOM     12  C   UNL     1      -8.328  -2.895 124.809  0.00  0.00    +0.000 C 
ATOM     13  O   UNL     1      -9.265  -3.458 124.255  0.00  0.00    +0.000 OA
ENDROOT
TORSDOF 0
ENDMDL
MODEL 7
REMARK VINA RESULT:      -5.6     10.718     11.065
REMARK  Name = Menadione
REMARK  1 active torsions:
REMARK  status: ('A' for Active; 'I' for Inactive)
REMARK    1  A    between atoms: C_1  and  C_2
REMARK                            x       y       z     vdW  Elec       q    Type
REMARK                         _______ _______ _______ _____ _____    ______ ____
ROOT
ATOM      1  C   UNL     1      -7.019  -2.993 129.507  0.00  0.00    +0.000 C 
ATOM      2  C   UNL     1      -7.380  -2.875 128.060  0.00  0.00    +0.000 C 
ATOM      3  C   UNL     1      -8.616  -3.099 127.600  0.00  0.00    +0.000 C 
ATOM      4  C   UNL     1      -8.983  -2.928 126.182  0.00  0.00    +0.000 C 
ATOM      5  O   UNL     1     -10.140  -3.091 125.821  0.00  0.00    +0.000 OA
ATOM      6  C   UNL     1      -7.914  -2.555 125.238  0.00  0.00    +0.000 A 
ATOM      7  C   UNL     1      -8.212  -2.420 123.876  0.00  0.00    +0.000 A 
ATOM      8  C   UNL     1      -7.199  -2.098 122.972  0.00  0.00    +0.000 A 
ATOM      9  C   UNL     1      -5.895  -1.897 123.426  0.00  0.00    +0.000 A 
ATOM     10  C   UNL     1      -5.602  -2.015 124.785  0.00  0.00    +0.000 A 
ATOM     11  C   UNL     1      -6.614  -2.348 125.695  0.00  0.00    +0.000 A 
ATOM     12  C   UNL     1      -6.287  -2.482 127.129  0.00  0.00    +0.000 C 
ATOM     13  O   UNL     1      -5.148  -2.286 127.535  0.00  0.00    +0.000 OA
ENDROOT
TORSDOF 0
ENDMDL
MODEL 8
REMARK VINA RESULT:      -5.6      8.104      9.972
REMARK  Name = Menadione
REMARK  1 active torsions:
REMARK  status: ('A' for Active; 'I' for Inactive)
REMARK    1  A    between atoms: C_1  and  C_2
REMARK                            x       y       z     vdW  Elec       q    Type
REMARK                         _______ _______ _______ _____ _____    ______ ____
ROOT
ATOM      1  C   UNL     1      -5.647   4.985 119.379  0.00  0.00    +0.000 C 
ATOM      2  C   UNL     1      -6.211   4.407 120.638  0.00  0.00    +0.000 C 
ATOM      3  C   UNL     1      -7.418   3.832 120.694  0.00  0.00    +0.000 C 
ATOM      4  C   UNL     1      -7.950   3.214 121.922  0.00  0.00    +0.000 C 
ATOM      5  O   UNL     1      -9.036   2.650 121.908  0.00  0.00    +0.000 OA
ATOM      6  C   UNL     1      -7.130   3.299 123.144  0.00  0.00    +0.000 A 
ATOM      7  C   UNL     1      -7.615   2.759 124.341  0.00  0.00    +0.000 A 
ATOM      8  C   UNL     1      -6.857   2.863 125.508  0.00  0.00    +0.000 A 
ATOM      9  C   UNL     1      -5.613   3.493 125.479  0.00  0.00    +0.000 A 
ATOM     10  C   UNL     1      -5.122   4.017 124.282  0.00  0.00    +0.000 A 
ATOM     11  C   UNL     1      -5.884   3.923 123.111  0.00  0.00    +0.000 A 
ATOM     12  C   UNL     1      -5.357   4.493 121.853  0.00  0.00    +0.000 C 
ATOM     13  O   UNL     1      -4.256   5.028 121.819  0.00  0.00    +0.000 OA
ENDROOT
TORSDOF 0
ENDMDL
MODEL 9
REMARK VINA RESULT:      -5.6      2.848      4.432
REMARK  Name = Menadione
REMARK  1 active torsions:
REMARK  status: ('A' for Active; 'I' for Inactive)
REMARK    1  A    between atoms: C_1  and  C_2
REMARK                            x       y       z     vdW  Elec       q    Type
REMARK                         _______ _______ _______ _____ _____    ______ ____
ROOT
ATOM      1  C   UNL     1      -4.392   6.404 132.372  0.00  0.00    +0.000 C 
ATOM      2  C   UNL     1      -5.873   6.212 132.443  0.00  0.00    +0.000 C 
ATOM      3  C   UNL     1      -6.468   5.525 133.426  0.00  0.00    +0.000 C 
ATOM      4  C   UNL     1      -7.933   5.383 133.525  0.00  0.00    +0.000 C 
ATOM      5  O   UNL     1      -8.432   4.793 134.474  0.00  0.00    +0.000 OA
ATOM      6  C   UNL     1      -8.754   5.977 132.454  0.00  0.00    +0.000 A 
ATOM      7  C   UNL     1     -10.146   5.832 132.490  0.00  0.00    +0.000 A 
ATOM      8  C   UNL     1     -10.927   6.365 131.464  0.00  0.00    +0.000 A 
ATOM      9  C   UNL     1     -10.322   7.052 130.411  0.00  0.00    +0.000 A 
ATOM     10  C   UNL     1      -8.936   7.211 130.384  0.00  0.00    +0.000 A 
ATOM     11  C   UNL     1      -8.148   6.669 131.407  0.00  0.00    +0.000 A 
ATOM     12  C   UNL     1      -6.680   6.833 131.359  0.00  0.00    +0.000 C 
ATOM     13  O   UNL     1      -6.148   7.455 130.447  0.00  0.00    +0.000 OA
ENDROOT
TORSDOF 0
ENDMDL
