MODEL 1
REMARK VINA RESULT:      -5.6      0.000      0.000
REMARK  Name = Menthol
REMARK  5 active torsions:
REMARK  status: ('A' for Active; 'I' for Inactive)
REMARK    1  A    between atoms: C_1  and  C_2
REMARK    2  A    between atoms: C_2  and  C_3
REMARK    3  A    between atoms: C_2  and  C_4
REMARK    4  A    between atoms: C_7  and  C_8
REMARK    5  A    between atoms: C_10  and  O_11
REMARK                            x       y       z     vdW  Elec       q    Type
REMARK                         _______ _______ _______ _____ _____    ______ ____
ROOT
ATOM      1  C   UNL     1     -10.709   6.395 129.670  0.00  0.00    +0.000 C 
ATOM      2  C   UNL     1     -12.195   6.404 130.078  0.00  0.00    +0.000 C 
ATOM      3  C   UNL     1     -12.648   7.820 130.371  0.00  0.00    +0.000 C 
ATOM      4  C   UNL     1     -12.289   8.797 129.219  0.00  0.00    +0.000 C 
ATOM      5  C   UNL     1     -13.418   8.666 128.201  0.00  0.00    +0.000 C 
ATOM      6  C   UNL     1     -10.928   8.613 128.483  0.00  0.00    +0.000 C 
ATOM      7  C   UNL     1     -10.486   7.163 128.353  0.00  0.00    +0.000 C 
ENDROOT
BRANCH   1   9
ATOM      8  C   UNL     1     -10.097   6.025 132.115  0.00  0.00    +0.000 C 
ATOM      9  C   UNL     1      -9.816   6.873 130.878  0.00  0.00    +0.000 C 
ATOM     10  C   UNL     1      -8.270   6.915 130.786  0.00  0.00    +0.000 C 
ENDBRANCH   1   9
BRANCH   7  11
ATOM     11  O   UNL     1     -11.149   6.553 127.247  0.00  0.00    +0.000 OA
ATOM     12  H   UNL     1     -11.931   6.058 127.565  0.00  0.00    +0.000 HD
ENDBRANCH   7  11
TORSDOF 2
ENDMDL
MODEL 2
REMARK VINA RESULT:      -5.1      1.570      4.226
REMARK  Name = Menthol
REMARK  5 active torsions:
REMARK  status: ('A' for Active; 'I' for Inactive)
REMARK    1  A    between atoms: C_1  and  C_2
REMARK    2  A    between atoms: C_2  and  C_3
REMARK    3  A    between atoms: C_2  and  C_4
REMARK    4  A    between atoms: C_7  and  C_8
REMARK    5  A    between atoms: C_10  and  O_11
REMARK                            x       y       z     vdW  Elec       q    Type
REMARK                         _______ _______ _______ _____ _____    ______ ____
ROOT
ATOM      1  C   UNL     1     -10.821   6.398 129.571  0.00  0.00    +0.000 C 
ATOM      2  C   UNL     1      -9.303   6.132 129.560  0.00  0.00    +0.000 C 
ATOM      3  C   UNL     1      -8.654   6.749 130.782  0.00  0.00    +0.000 C 
ATOM      4  C   UNL     1      -9.373   6.334 132.095  0.00  0.00    +0.000 C 
ATOM      5  C   UNL     1      -8.777   4.984 132.482  0.00  0.00    +0.000 C 
ATOM      6  C   UNL     1     -10.926   6.211 132.087  0.00  0.00    +0.000 C 
ATOM      7  C   UNL     1     -11.500   5.711 130.770  0.00  0.00    +0.000 C 
ENDROOT
BRANCH   1   9
ATOM      8  C   UNL     1     -10.640   8.462 128.087  0.00  0.00    +0.000 C 
ATOM      9  C   UNL     1     -11.095   7.946 129.449  0.00  0.00    +0.000 C 
ATOM     10  C   UNL     1     -12.516   8.541 129.628  0.00  0.00    +0.000 C 
ENDBRANCH   1   9
BRANCH   7  11
ATOM     11  O   UNL     1     -11.402   4.288 130.709  0.00  0.00    +0.000 OA
ATOM     12  H   UNL     1     -10.756   4.032 130.021  0.00  0.00    +0.000 HD
ENDBRANCH   7  11
TORSDOF 2
ENDMDL
MODEL 3
REMARK VINA RESULT:      -5.1     10.306     11.395
REMARK  Name = Menthol
REMARK  5 active torsions:
REMARK  status: ('A' for Active; 'I' for Inactive)
REMARK    1  A    between atoms: C_1  and  C_2
REMARK    2  A    between atoms: C_2  and  C_3
REMARK    3  A    between atoms: C_2  and  C_4
REMARK    4  A    between atoms: C_7  and  C_8
REMARK    5  A    between atoms: C_10  and  O_11
REMARK                            x       y       z     vdW  Elec       q    Type
REMARK                         _______ _______ _______ _____ _____    ______ ____
ROOT
ATOM      1  C   UNL     1      -8.589  -2.080 126.161  0.00  0.00    +0.000 C 
ATOM      2  C   UNL     1      -7.500  -1.054 125.792  0.00  0.00    +0.000 C 
ATOM      3  C   UNL     1      -6.245  -1.766 125.329  0.00  0.00    +0.000 C 
ATOM      4  C   UNL     1      -6.546  -2.814 124.222  0.00  0.00    +0.000 C 
ATOM      5  C   UNL     1      -6.567  -2.034 122.911  0.00  0.00    +0.000 C 
ATOM      6  C   UNL     1      -7.855  -3.652 124.326  0.00  0.00    +0.000 C 
ATOM      7  C   UNL     1      -9.028  -2.895 124.930  0.00  0.00    +0.000 C 
ENDROOT
BRANCH   1   9
ATOM      8  C   UNL     1      -7.831  -2.040 128.593  0.00  0.00    +0.000 C 
ATOM      9  C   UNL     1      -8.121  -2.941 127.396  0.00  0.00    +0.000 C 
ATOM     10  C   UNL     1      -8.997  -4.079 127.977  0.00  0.00    +0.000 C 
ENDBRANCH   1   9
BRANCH   7  11
ATOM     11  O   UNL     1      -9.645  -2.083 123.931  0.00  0.00    +0.000 OA
ATOM     12  H   UNL     1     -10.042  -2.654 123.243  0.00  0.00    +0.000 HD
ENDBRANCH   7  11
TORSDOF 2
ENDMDL
MODEL 4
REMARK VINA RESULT:      -4.9     10.085     11.129
REMARK  Name = Menthol
REMARK  5 active torsions:
REMARK  status: ('A' for Active; 'I' for Inactive)
REMARK    1  A    between atoms: C_1  and  C_2
REMARK    2  A    between atoms: C_2  and  C_3
REMARK    3  A    between atoms: C_2  and  C_4
REMARK    4  A    between atoms: C_7  and  C_8
REMARK    5  A    between atoms: C_10  and  O_11
REMARK                            x       y       z     vdW  Elec       q    Type
REMARK                         _______ _______ _______ _____ _____    ______ ____
ROOT
ATOM      1  C   UNL     1      -7.460  -1.535 126.164  0.00  0.00    +0.000 C 
ATOM      2  C   UNL     1      -6.851  -1.938 124.807  0.00  0.00    +0.000 C 
ATOM      3  C   UNL     1      -7.212  -3.372 124.476  0.00  0.00    +0.000 C 
ATOM      4  C   UNL     1      -8.738  -3.632 124.602  0.00  0.00    +0.000 C 
ATOM      5  C   UNL     1      -9.341  -3.192 123.272  0.00  0.00    +0.000 C 
ATOM      6  C   UNL     1      -9.518  -2.940 125.759  0.00  0.00    +0.000 C 
ATOM      7  C   UNL     1      -8.999  -1.555 126.114  0.00  0.00    +0.000 C 
ENDROOT
BRANCH   1   9
ATOM      8  C   UNL     1      -5.388  -1.950 127.589  0.00  0.00    +0.000 C 
ATOM      9  C   UNL     1      -6.821  -2.400 127.318  0.00  0.00    +0.000 C 
ATOM     10  C   UNL     1      -7.466  -2.490 128.724  0.00  0.00    +0.000 C 
ENDBRANCH   1   9
BRANCH   7  11
ATOM     11  O   UNL     1      -9.527  -0.593 125.202  0.00  0.00    +0.000 OA
ATOM     12  H   UNL     1      -9.826   0.198 125.695  0.00  0.00    +0.000 HD
ENDBRANCH   7  11
TORSDOF 2
ENDMDL
MODEL 5
REMARK VINA RESULT:      -4.9     10.544     11.899
REMARK  Name = Menthol
REMARK  5 active torsions:
REMARK  status: ('A' for Active; 'I' for Inactive)
REMARK    1  A    between atoms: C_1  and  C_2
REMARK    2  A    between atoms: C_2  and  C_3
REMARK    3  A    between atoms: C_2  and  C_4
REMARK    4  A    between atoms: C_7  and  C_8
REMARK    5  A    between atoms: C_10  and  O_11
REMARK                            x       y       z     vdW  Elec       q    Type
REMARK                         _______ _______ _______ _____ _____    ______ ____
ROOT
ATOM      1  C   UNL     1      -8.528  -1.945 123.923  0.00  0.00    +0.000 C 
ATOM      2  C   UNL     1      -7.720  -2.098 122.619  0.00  0.00    +0.000 C 
ATOM      3  C   UNL     1      -6.311  -1.574 122.812  0.00  0.00    +0.000 C 
ATOM      4  C   UNL     1      -5.631  -2.183 124.069  0.00  0.00    +0.000 C 
ATOM      5  C   UNL     1      -5.053  -3.521 123.616  0.00  0.00    +0.000 C 
ATOM      6  C   UNL     1      -6.494  -2.416 125.343  0.00  0.00    +0.000 C 
ATOM      7  C   UNL     1      -7.935  -2.808 125.052  0.00  0.00    +0.000 C 
ENDROOT
BRANCH   1   9
ATOM      8  C   UNL     1      -9.512   0.290 123.193  0.00  0.00    +0.000 C 
ATOM      9  C   UNL     1      -8.698  -0.417 124.273  0.00  0.00    +0.000 C 
ATOM     10  C   UNL     1      -9.341   0.050 125.604  0.00  0.00    +0.000 C 
ENDBRANCH   1   9
BRANCH   7  11
ATOM     11  O   UNL     1      -8.008  -4.204 124.766  0.00  0.00    +0.000 OA
ATOM     12  H   UNL     1      -8.497  -4.343 123.930  0.00  0.00    +0.000 HD
ENDBRANCH   7  11
TORSDOF 2
ENDMDL
MODEL 6
REMARK VINA RESULT:      -4.8      1.958      2.762
REMARK  Name = Menthol
REMARK  5 active torsions:
REMARK  status: ('A' for Active; 'I' for Inactive)
REMARK    1  A    between atoms: C_1  and  C_2
REMARK    2  A    between atoms: C_2  and  C_3
REMARK    3  A    between atoms: C_2  and  C_4
REMARK    4  A    between atoms: C_7  and  C_8
REMARK    5  A    between atoms: C_10  and  O_11
REMARK                            x       y       z     vdW  Elec       q    Type
REMARK                         _______ _______ _______ _____ _____    ______ ____
ROOT
ATOM      1  C   UNL     1     -10.643   6.419 130.562  0.00  0.00    +0.000 C 
ATOM      2  C   UNL     1     -10.082   7.610 129.762  0.00  0.00    +0.000 C 
ATOM      3  C   UNL     1     -10.560   7.549 128.325  0.00  0.00    +0.000 C 
ATOM      4  C   UNL     1     -12.101   7.377 128.232  0.00  0.00    +0.000 C 
ATOM      5  C   UNL     1     -12.680   8.784 128.345  0.00  0.00    +0.000 C 
ATOM      6  C   UNL     1     -12.813   6.459 129.270  0.00  0.00    +0.000 C 
ATOM      7  C   UNL     1     -12.180   6.482 130.653  0.00  0.00    +0.000 C 
ENDROOT
BRANCH   1   9
ATOM      8  C   UNL     1      -8.554   5.011 130.186  0.00  0.00    +0.000 C 
ATOM      9  C   UNL     1     -10.066   5.068 129.991  0.00  0.00    +0.000 C 
ATOM     10  C   UNL     1     -10.568   3.689 130.489  0.00  0.00    +0.000 C 
ENDBRANCH   1   9
BRANCH   7  11
ATOM     11  O   UNL     1     -12.636   7.625 131.374  0.00  0.00    +0.000 OA
ATOM     12  H   UNL     1     -13.156   8.204 130.780  0.00  0.00    +0.000 HD
ENDBRANCH   7  11
TORSDOF 2
ENDMDL
MODEL 7
REMARK VINA RESULT:      -4.7      9.748     11.056
REMARK  Name = Menthol
REMARK  5 active torsions:
REMARK  status: ('A' for Active; 'I' for Inactive)
REMARK    1  A    between atoms: C_1  and  C_2
REMARK    2  A    between atoms: C_2  and  C_3
REMARK    3  A    between atoms: C_2  and  C_4
REMARK    4  A    between atoms: C_7  and  C_8
REMARK    5  A    between atoms: C_10  and  O_11
REMARK                            x       y       z     vdW  Elec       q    Type
REMARK                         _______ _______ _______ _____ _____    ______ ____
ROOT
ATOM      1  C   UNL     1      -8.185  -0.411 124.016  0.00  0.00    +0.000 C 
ATOM      2  C   UNL     1      -8.045  -0.984 125.439  0.00  0.00    +0.000 C 
ATOM      3  C   UNL     1      -9.119  -2.021 125.694  0.00  0.00    +0.000 C 
ATOM      4  C   UNL     1      -9.175  -3.091 124.570  0.00  0.00    +0.000 C 
ATOM      5  C   UNL     1      -8.114  -4.126 124.934  0.00  0.00    +0.000 C 
ATOM      6  C   UNL     1      -8.945  -2.637 123.098  0.00  0.00    +0.000 C 
ATOM      7  C   UNL     1      -7.949  -1.497 122.950  0.00  0.00    +0.000 C 
ENDROOT
BRANCH   1   9
ATOM      8  C   UNL     1      -9.464   1.720 124.579  0.00  0.00    +0.000 C 
ATOM      9  C   UNL     1      -9.551   0.366 123.882  0.00  0.00    +0.000 C 
ATOM     10  C   UNL     1     -10.177   0.687 122.500  0.00  0.00    +0.000 C 
ENDBRANCH   1   9
BRANCH   7  11
ATOM     11  O   UNL     1      -6.618  -2.011 122.982  0.00  0.00    +0.000 OA
ATOM     12  H   UNL     1      -6.487  -2.535 123.798  0.00  0.00    +0.000 HD
ENDBRANCH   7  11
TORSDOF 2
ENDMDL
MODEL 8
REMARK VINA RESULT:      -4.6     10.499     11.446
REMARK  Name = Menthol
REMARK  5 active torsions:
REMARK  status: ('A' for Active; 'I' for Inactive)
REMARK    1  A    between atoms: C_1  and  C_2
REMARK    2  A    between atoms: C_2  and  C_3
REMARK    3  A    between atoms: C_2  and  C_4
REMARK    4  A    between atoms: C_7  and  C_8
REMARK    5  A    between atoms: C_10  and  O_11
REMARK                            x       y       z     vdW  Elec       q    Type
REMARK                         _______ _______ _______ _____ _____    ______ ____
ROOT
ATOM      1  C   UNL     1      -7.349  -2.994 124.439  0.00  0.00    +0.000 C 
ATOM      2  C   UNL     1      -7.352  -2.485 125.893  0.00  0.00    +0.000 C 
ATOM      3  C   UNL     1      -7.211  -0.977 125.921  0.00  0.00    +0.000 C 
ATOM      4  C   UNL     1      -8.240  -0.279 124.990  0.00  0.00    +0.000 C 
ATOM      5  C   UNL     1      -9.520  -0.156 125.811  0.00  0.00    +0.000 C 
ATOM      6  C   UNL     1      -8.583  -0.947 123.625  0.00  0.00    +0.000 C 
ATOM      7  C   UNL     1      -8.569  -2.468 123.660  0.00  0.00    +0.000 C 
ENDROOT
BRANCH   1   9
ATOM      8  C   UNL     1      -5.037  -3.911 123.885  0.00  0.00    +0.000 C 
ATOM      9  C   UNL     1      -5.953  -2.696 123.768  0.00  0.00    +0.000 C 
ATOM     10  C   UNL     1      -5.835  -2.269 122.283  0.00  0.00    +0.000 C 
ENDBRANCH   1   9
BRANCH   7  11
ATOM     11  O   UNL     1      -9.803  -2.951 124.190  0.00  0.00    +0.000 OA
ATOM     12  H   UNL     1      -9.731  -3.041 125.161  0.00  0.00    +0.000 HD
ENDBRANCH   7  11
TORSDOF 2
ENDMDL
MODEL 9
REMARK VINA RESULT:      -4.5      7.512      8.712
REMARK  Name = Menthol
REMARK  5 active torsions:
REMARK  status: ('A' for Active; 'I' for Inactive)
REMARK    1  A    between atoms: C_1  and  C_2
REMARK    2  A    between atoms: C_2  and  C_3
REMARK    3  A    between atoms: C_2  and  C_4
REMARK    4  A    between atoms: C_7  and  C_8
REMARK    5  A    between atoms: C_10  and  O_11
REMARK                            x       y       z     vdW  Elec       q    Type
REMARK                         _______ _______ _______ _____ _____    ______ ____
ROOT
ATOM      1  C   UNL     1      -3.867   4.926 128.462  0.00  0.00    +0.000 C 
ATOM      2  C   UNL     1      -4.307   4.829 129.935  0.00  0.00    +0.000 C 
ATOM      3  C   UNL     1      -3.101   4.905 130.849  0.00  0.00    +0.000 C 
ATOM      4  C   UNL     1      -2.201   6.129 130.523  0.00  0.00    +0.000 C 
ATOM      5  C   UNL     1      -2.820   7.305 131.271  0.00  0.00    +0.000 C 
ATOM      6  C   UNL     1      -2.004   6.532 129.031  0.00  0.00    +0.000 C 
ATOM      7  C   UNL     1      -3.227   6.294 128.159  0.00  0.00    +0.000 C 
ENDROOT
BRANCH   1   9
ATOM      8  C   UNL     1      -3.806   2.397 128.155  0.00  0.00    +0.000 C 
ATOM      9  C   UNL     1      -2.981   3.678 128.082  0.00  0.00    +0.000 C 
ATOM     10  C   UNL     1      -2.245   3.583 126.722  0.00  0.00    +0.000 C 
ENDBRANCH   1   9
BRANCH   7  11
ATOM     11  O   UNL     1      -4.149   7.373 128.314  0.00  0.00    +0.000 OA
ATOM     12  H   UNL     1      -3.909   7.900 129.102  0.00  0.00    +0.000 HD
ENDBRANCH   7  11
TORSDOF 2
ENDMDL
