MODEL 1
REMARK VINA RESULT:      -8.1      0.000      0.000
REMARK  Name = Menthyl salicylate
REMARK  8 active torsions:
REMARK  status: ('A' for Active; 'I' for Inactive)
REMARK    1  A    between atoms: C_1  and  C_2
REMARK    2  A    between atoms: C_2  and  C_3
REMARK    3  A    between atoms: C_2  and  C_4
REMARK    4  A    between atoms: C_7  and  C_8
REMARK    5  A    between atoms: C_10  and  O_11
REMARK    6  A    between atoms: O_11  and  C_12
REMARK    7  A    between atoms: C_12  and  C_14
REMARK    8  A    between atoms: C_19  and  O_20
REMARK                            x       y       z     vdW  Elec       q    Type
REMARK                         _______ _______ _______ _____ _____    ______ ____
ROOT
ATOM      1  O   UNL     1      -8.112   0.969 124.057  0.00  0.00    +0.000 OA
ENDROOT
BRANCH   1   8
ATOM      2  C   UNL     1      -6.308  -1.025 124.285  0.00  0.00    +0.000 C 
ATOM      3  C   UNL     1      -6.136  -1.414 125.939  0.00  0.00    +0.000 C 
ATOM      4  C   UNL     1      -7.670  -2.473 126.293  0.00  0.00    +0.000 C 
ATOM      5  C   UNL     1      -8.916  -1.243 125.255  0.00  0.00    +0.000 C 
ATOM      6  C   UNL     1      -8.865   0.534 126.365  0.00  0.00    +0.000 C 
ATOM      7  C   UNL     1      -8.853  -1.185 123.730  0.00  0.00    +0.000 C 
ATOM      8  C   UNL     1      -7.673  -0.341 123.601  0.00  0.00    +0.000 C 
BRANCH   2  10
ATOM      9  C   UNL     1      -4.826  -3.128 123.863  0.00  0.00    +0.000 C 
ATOM     10  C   UNL     1      -6.149  -2.406 123.615  0.00  0.00    +0.000 C 
ATOM     11  C   UNL     1      -6.186  -2.153 122.129  0.00  0.00    +0.000 C 
ENDBRANCH   2  10
ENDBRANCH   1   8
BRANCH   1  12
ATOM     12  C   UNL     1      -8.446   2.134 123.248  0.00  0.00    +0.000 C 
ATOM     13  O   UNL     1      -9.622   2.048 122.825  0.00  0.00    +0.000 OA
BRANCH  12  14
ATOM     14  C   UNL     1      -7.131   3.013 122.184  0.00  0.00    +0.000 A 
ATOM     15  C   UNL     1      -6.109   3.580 122.769  0.00  0.00    +0.000 A 
ATOM     16  C   UNL     1      -5.385   4.268 121.779  0.00  0.00    +0.000 A 
ATOM     17  C   UNL     1      -5.613   4.404 120.271  0.00  0.00    +0.000 A 
ATOM     18  C   UNL     1      -6.789   4.231 119.617  0.00  0.00    +0.000 A 
ATOM     19  C   UNL     1      -7.579   3.937 120.683  0.00  0.00    +0.000 A 
BRANCH  19  20
ATOM     20  O   UNL     1      -9.305   3.533 120.257  0.00  0.00    +0.000 OA
ATOM     21  H   UNL     1      -9.554   2.445 120.470  0.00  0.00    +0.000 HD
ENDBRANCH  19  20
ENDBRANCH  12  14
ENDBRANCH   1  12
TORSDOF 5
ENDMDL
MODEL 2
REMARK VINA RESULT:      -7.9      1.182      2.119
REMARK  Name = Menthyl salicylate
REMARK  8 active torsions:
REMARK  status: ('A' for Active; 'I' for Inactive)
REMARK    1  A    between atoms: C_1  and  C_2
REMARK    2  A    between atoms: C_2  and  C_3
REMARK    3  A    between atoms: C_2  and  C_4
REMARK    4  A    between atoms: C_7  and  C_8
REMARK    5  A    between atoms: C_10  and  O_11
REMARK    6  A    between atoms: O_11  and  C_12
REMARK    7  A    between atoms: C_12  and  C_14
REMARK    8  A    between atoms: C_19  and  O_20
REMARK                            x       y       z     vdW  Elec       q    Type
REMARK                         _______ _______ _______ _____ _____    ______ ____
ROOT
ATOM      1  O   UNL     1      -8.034   0.871 123.237  0.00  0.00    +0.000 OA
ENDROOT
BRANCH   1   8
ATOM      2  C   UNL     1      -7.673  -0.711 125.393  0.00  0.00    +0.000 C 
ATOM      3  C   UNL     1      -9.022  -1.747 125.539  0.00  0.00    +0.000 C 
ATOM      4  C   UNL     1      -8.679  -3.083 124.235  0.00  0.00    +0.000 C 
ATOM      5  C   UNL     1      -8.077  -1.739 122.831  0.00  0.00    +0.000 C 
ATOM      6  C   UNL     1      -9.819  -0.637 122.447  0.00  0.00    +0.000 C 
ATOM      7  C   UNL     1      -6.741  -1.014 122.975  0.00  0.00    +0.000 C 
ATOM      8  C   UNL     1      -7.145  -0.023 123.963  0.00  0.00    +0.000 C 
BRANCH   2  10
ATOM      9  C   UNL     1      -6.656  -2.192 127.283  0.00  0.00    +0.000 C 
ATOM     10  C   UNL     1      -6.521  -1.619 125.874  0.00  0.00    +0.000 C 
ATOM     11  C   UNL     1      -5.294  -0.742 125.923  0.00  0.00    +0.000 C 
ENDBRANCH   2  10
ENDBRANCH   1   8
BRANCH   1  12
ATOM     12  C   UNL     1      -7.980   2.325 123.164  0.00  0.00    +0.000 C 
ATOM     13  O   UNL     1      -9.105   2.817 123.409  0.00  0.00    +0.000 OA
BRANCH  12  14
ATOM     14  C   UNL     1      -6.817   3.213 121.942  0.00  0.00    +0.000 A 
ATOM     15  C   UNL     1      -5.749   3.813 122.396  0.00  0.00    +0.000 A 
ATOM     16  C   UNL     1      -5.160   4.499 121.319  0.00  0.00    +0.000 A 
ATOM     17  C   UNL     1      -5.563   4.602 119.844  0.00  0.00    +0.000 A 
ATOM     18  C   UNL     1      -6.801   4.390 119.333  0.00  0.00    +0.000 A 
ATOM     19  C   UNL     1      -7.456   4.098 120.488  0.00  0.00    +0.000 A 
BRANCH  19  20
ATOM     20  O   UNL     1      -9.209   3.648 120.270  0.00  0.00    +0.000 OA
ATOM     21  H   UNL     1      -9.366   2.961 119.378  0.00  0.00    +0.000 HD
ENDBRANCH  19  20
ENDBRANCH  12  14
ENDBRANCH   1  12
TORSDOF 5
ENDMDL
MODEL 3
REMARK VINA RESULT:      -7.4      1.815      3.381
REMARK  Name = Menthyl salicylate
REMARK  8 active torsions:
REMARK  status: ('A' for Active; 'I' for Inactive)
REMARK    1  A    between atoms: C_1  and  C_2
REMARK    2  A    between atoms: C_2  and  C_3
REMARK    3  A    between atoms: C_2  and  C_4
REMARK    4  A    between atoms: C_7  and  C_8
REMARK    5  A    between atoms: C_10  and  O_11
REMARK    6  A    between atoms: O_11  and  C_12
REMARK    7  A    between atoms: C_12  and  C_14
REMARK    8  A    between atoms: C_19  and  O_20
REMARK                            x       y       z     vdW  Elec       q    Type
REMARK                         _______ _______ _______ _____ _____    ______ ____
ROOT
ATOM      1  O   UNL     1      -7.446   0.030 126.760  0.00  0.00    +0.000 OA
ENDROOT
BRANCH   1   8
ATOM      2  C   UNL     1      -8.159  -1.593 124.725  0.00  0.00    +0.000 C 
ATOM      3  C   UNL     1      -6.867  -1.667 123.611  0.00  0.00    +0.000 C 
ATOM      4  C   UNL     1      -5.660  -2.877 124.436  0.00  0.00    +0.000 C 
ATOM      5  C   UNL     1      -5.888  -2.049 126.280  0.00  0.00    +0.000 C 
ATOM      6  C   UNL     1      -5.093  -0.124 126.039  0.00  0.00    +0.000 C 
ATOM      7  C   UNL     1      -7.188  -2.238 127.059  0.00  0.00    +0.000 C 
ATOM      8  C   UNL     1      -7.999  -1.254 126.355  0.00  0.00    +0.000 C 
BRANCH   2  10
ATOM      9  C   UNL     1      -9.560  -3.353 123.407  0.00  0.00    +0.000 C 
ATOM     10  C   UNL     1      -8.730  -3.025 124.646  0.00  0.00    +0.000 C 
ATOM     11  C   UNL     1      -9.686  -3.154 125.806  0.00  0.00    +0.000 C 
ENDBRANCH   2  10
ENDBRANCH   1   8
BRANCH   1  12
ATOM     12  C   UNL     1      -7.925   1.361 126.414  0.00  0.00    +0.000 C 
ATOM     13  O   UNL     1      -9.037   1.578 126.947  0.00  0.00    +0.000 OA
BRANCH  12  14
ATOM     14  C   UNL     1      -7.530   2.148 124.723  0.00  0.00    +0.000 A 
ATOM     15  C   UNL     1      -6.528   2.981 124.622  0.00  0.00    +0.000 A 
ATOM     16  C   UNL     1      -6.551   3.515 123.321  0.00  0.00    +0.000 A 
ATOM     17  C   UNL     1      -7.490   3.255 122.139  0.00  0.00    +0.000 A 
ATOM     18  C   UNL     1      -8.751   2.762 122.208  0.00  0.00    +0.000 A 
ATOM     19  C   UNL     1      -8.844   2.615 123.556  0.00  0.00    +0.000 A 
BRANCH  19  20
ATOM     20  O   UNL     1     -10.407   1.872 124.130  0.00  0.00    +0.000 OA
ATOM     21  H   UNL     1     -10.456   1.803 125.264  0.00  0.00    +0.000 HD
ENDBRANCH  19  20
ENDBRANCH  12  14
ENDBRANCH   1  12
TORSDOF 5
ENDMDL
MODEL 4
REMARK VINA RESULT:      -7.4      1.162      1.416
REMARK  Name = Menthyl salicylate
REMARK  8 active torsions:
REMARK  status: ('A' for Active; 'I' for Inactive)
REMARK    1  A    between atoms: C_1  and  C_2
REMARK    2  A    between atoms: C_2  and  C_3
REMARK    3  A    between atoms: C_2  and  C_4
REMARK    4  A    between atoms: C_7  and  C_8
REMARK    5  A    between atoms: C_10  and  O_11
REMARK    6  A    between atoms: O_11  and  C_12
REMARK    7  A    between atoms: C_12  and  C_14
REMARK    8  A    between atoms: C_19  and  O_20
REMARK                            x       y       z     vdW  Elec       q    Type
REMARK                         _______ _______ _______ _____ _____    ______ ____
ROOT
ATOM      1  O   UNL     1      -7.761   1.231 124.587  0.00  0.00    +0.000 OA
ENDROOT
BRANCH   1   8
ATOM      2  C   UNL     1      -7.066  -1.377 124.570  0.00  0.00    +0.000 C 
ATOM      3  C   UNL     1      -5.905  -1.637 125.793  0.00  0.00    +0.000 C 
ATOM      4  C   UNL     1      -6.955  -1.707 127.373  0.00  0.00    +0.000 C 
ATOM      5  C   UNL     1      -8.104  -0.117 126.832  0.00  0.00    +0.000 C 
ATOM      6  C   UNL     1      -6.738   1.474 126.818  0.00  0.00    +0.000 C 
ATOM      7  C   UNL     1      -9.125  -0.247 125.705  0.00  0.00    +0.000 C 
ATOM      8  C   UNL     1      -8.207  -0.154 124.579  0.00  0.00    +0.000 C 
BRANCH   2  10
ATOM      9  C   UNL     1      -7.059  -3.978 124.385  0.00  0.00    +0.000 C 
ATOM     10  C   UNL     1      -7.864  -2.698 124.602  0.00  0.00    +0.000 C 
ATOM     11  C   UNL     1      -8.820  -2.633 123.437  0.00  0.00    +0.000 C 
ENDBRANCH   2  10
ENDBRANCH   1   8
BRANCH   1  12
ATOM     12  C   UNL     1      -8.149   2.303 123.680  0.00  0.00    +0.000 C 
ATOM     13  O   UNL     1      -9.331   2.145 123.297  0.00  0.00    +0.000 OA
BRANCH  12  14
ATOM     14  C   UNL     1      -6.885   3.113 122.504  0.00  0.00    +0.000 A 
ATOM     15  C   UNL     1      -5.856   3.742 123.005  0.00  0.00    +0.000 A 
ATOM     16  C   UNL     1      -5.177   4.358 121.939  0.00  0.00    +0.000 A 
ATOM     17  C   UNL     1      -5.456   4.364 120.432  0.00  0.00    +0.000 A 
ATOM     18  C   UNL     1      -6.648   4.118 119.834  0.00  0.00    +0.000 A 
ATOM     19  C   UNL     1      -7.398   3.901 120.948  0.00  0.00    +0.000 A 
BRANCH  19  20
ATOM     20  O   UNL     1      -9.129   3.434 120.614  0.00  0.00    +0.000 OA
ATOM     21  H   UNL     1      -9.865   4.118 121.145  0.00  0.00    +0.000 HD
ENDBRANCH  19  20
ENDBRANCH  12  14
ENDBRANCH   1  12
TORSDOF 5
ENDMDL
MODEL 5
REMARK VINA RESULT:      -7.3      8.728     10.105
REMARK  Name = Menthyl salicylate
REMARK  8 active torsions:
REMARK  status: ('A' for Active; 'I' for Inactive)
REMARK    1  A    between atoms: C_1  and  C_2
REMARK    2  A    between atoms: C_2  and  C_3
REMARK    3  A    between atoms: C_2  and  C_4
REMARK    4  A    between atoms: C_7  and  C_8
REMARK    5  A    between atoms: C_10  and  O_11
REMARK    6  A    between atoms: O_11  and  C_12
REMARK    7  A    between atoms: C_12  and  C_14
REMARK    8  A    between atoms: C_19  and  O_20
REMARK                            x       y       z     vdW  Elec       q    Type
REMARK                         _______ _______ _______ _____ _____    ______ ____
ROOT
ATOM      1  O   UNL     1      -8.844   5.478 130.363  0.00  0.00    +0.000 OA
ENDROOT
BRANCH   1   8
ATOM      2  C   UNL     1      -7.700   3.375 131.609  0.00  0.00    +0.000 C 
ATOM      3  C   UNL     1      -6.086   3.781 131.987  0.00  0.00    +0.000 C 
ATOM      4  C   UNL     1      -6.268   4.870 133.531  0.00  0.00    +0.000 C 
ATOM      5  C   UNL     1      -7.842   5.909 132.768  0.00  0.00    +0.000 C 
ATOM      6  C   UNL     1      -7.000   6.922 131.137  0.00  0.00    +0.000 C 
ATOM      7  C   UNL     1      -9.210   5.246 132.623  0.00  0.00    +0.000 C 
ATOM      8  C   UNL     1      -8.943   4.478 131.415  0.00  0.00    +0.000 C 
BRANCH   2  10
ATOM      9  C   UNL     1      -7.258   1.246 133.047  0.00  0.00    +0.000 C 
ATOM     10  C   UNL     1      -8.100   2.499 132.815  0.00  0.00    +0.000 C 
ATOM     11  C   UNL     1      -9.488   1.991 132.517  0.00  0.00    +0.000 C 
ENDBRANCH   2  10
ENDBRANCH   1   8
BRANCH   1  12
ATOM     12  C   UNL     1      -9.897   5.956 129.478  0.00  0.00    +0.000 C 
ATOM     13  O   UNL     1      -9.474   6.043 128.302  0.00  0.00    +0.000 OA
BRANCH  12  14
ATOM     14  C   UNL     1     -11.224   7.182 130.088  0.00  0.00    +0.000 A 
ATOM     15  C   UNL     1     -12.029   6.826 131.053  0.00  0.00    +0.000 A 
ATOM     16  C   UNL     1     -12.986   7.846 131.203  0.00  0.00    +0.000 A 
ATOM     17  C   UNL     1     -13.167   9.178 130.467  0.00  0.00    +0.000 A 
ATOM     18  C   UNL     1     -12.693   9.486 129.235  0.00  0.00    +0.000 A 
ATOM     19  C   UNL     1     -12.083   8.306 128.945  0.00  0.00    +0.000 A 
BRANCH  19  20
ATOM     20  O   UNL     1     -11.201   8.281 127.349  0.00  0.00    +0.000 OA
ATOM     21  H   UNL     1     -10.519   9.182 127.224  0.00  0.00    +0.000 HD
ENDBRANCH  19  20
ENDBRANCH  12  14
ENDBRANCH   1  12
TORSDOF 5
ENDMDL
MODEL 6
REMARK VINA RESULT:      -7.2      7.273      9.075
REMARK  Name = Menthyl salicylate
REMARK  8 active torsions:
REMARK  status: ('A' for Active; 'I' for Inactive)
REMARK    1  A    between atoms: C_1  and  C_2
REMARK    2  A    between atoms: C_2  and  C_3
REMARK    3  A    between atoms: C_2  and  C_4
REMARK    4  A    between atoms: C_7  and  C_8
REMARK    5  A    between atoms: C_10  and  O_11
REMARK    6  A    between atoms: O_11  and  C_12
REMARK    7  A    between atoms: C_12  and  C_14
REMARK    8  A    between atoms: C_19  and  O_20
REMARK                            x       y       z     vdW  Elec       q    Type
REMARK                         _______ _______ _______ _____ _____    ______ ____
ROOT
ATOM      1  O   UNL     1      -9.243   4.995 131.647  0.00  0.00    +0.000 OA
ENDROOT
BRANCH   1   8
ATOM      2  C   UNL     1      -7.569   3.323 130.349  0.00  0.00    +0.000 C 
ATOM      3  C   UNL     1      -6.966   2.183 131.467  0.00  0.00    +0.000 C 
ATOM      4  C   UNL     1      -8.401   0.954 131.642  0.00  0.00    +0.000 C 
ATOM      5  C   UNL     1      -9.811   2.417 131.741  0.00  0.00    +0.000 C 
ATOM      6  C   UNL     1      -9.347   3.406 133.530  0.00  0.00    +0.000 C 
ATOM      7  C   UNL     1     -10.173   3.230 130.500  0.00  0.00    +0.000 C 
ATOM      8  C   UNL     1      -9.027   4.129 130.498  0.00  0.00    +0.000 C 
BRANCH   2  10
ATOM      9  C   UNL     1      -6.426   1.727 128.633  0.00  0.00    +0.000 C 
ATOM     10  C   UNL     1      -7.685   2.478 129.063  0.00  0.00    +0.000 C 
ATOM     11  C   UNL     1      -7.961   3.455 127.947  0.00  0.00    +0.000 C 
ENDBRANCH   2  10
ENDBRANCH   1   8
BRANCH   1  12
ATOM     12  C   UNL     1      -9.891   6.300 131.678  0.00  0.00    +0.000 C 
ATOM     13  O   UNL     1     -10.470   6.474 132.775  0.00  0.00    +0.000 OA
BRANCH  12  14
ATOM     14  C   UNL     1     -10.621   7.082 130.100  0.00  0.00    +0.000 A 
ATOM     15  C   UNL     1      -9.845   7.778 129.313  0.00  0.00    +0.000 A 
ATOM     16  C   UNL     1     -10.658   8.352 128.319  0.00  0.00    +0.000 A 
ATOM     17  C   UNL     1     -12.166   8.256 128.067  0.00  0.00    +0.000 A 
ATOM     18  C   UNL     1     -13.115   7.931 128.979  0.00  0.00    +0.000 A 
ATOM     19  C   UNL     1     -12.310   7.754 130.061  0.00  0.00    +0.000 A 
BRANCH  19  20
ATOM     20  O   UNL     1     -13.178   7.205 131.568  0.00  0.00    +0.000 OA
ATOM     21  H   UNL     1     -14.292   7.422 131.522  0.00  0.00    +0.000 HD
ENDBRANCH  19  20
ENDBRANCH  12  14
ENDBRANCH   1  12
TORSDOF 5
ENDMDL
MODEL 7
REMARK VINA RESULT:      -7.2      6.710      8.834
REMARK  Name = Menthyl salicylate
REMARK  8 active torsions:
REMARK  status: ('A' for Active; 'I' for Inactive)
REMARK    1  A    between atoms: C_1  and  C_2
REMARK    2  A    between atoms: C_2  and  C_3
REMARK    3  A    between atoms: C_2  and  C_4
REMARK    4  A    between atoms: C_7  and  C_8
REMARK    5  A    between atoms: C_10  and  O_11
REMARK    6  A    between atoms: O_11  and  C_12
REMARK    7  A    between atoms: C_12  and  C_14
REMARK    8  A    between atoms: C_19  and  O_20
REMARK                            x       y       z     vdW  Elec       q    Type
REMARK                         _______ _______ _______ _____ _____    ______ ____
ROOT
ATOM      1  O   UNL     1      -8.425   4.417 131.278  0.00  0.00    +0.000 OA
ENDROOT
BRANCH   1   8
ATOM      2  C   UNL     1      -7.647   2.078 130.179  0.00  0.00    +0.000 C 
ATOM      3  C   UNL     1      -7.447   0.932 131.427  0.00  0.00    +0.000 C 
ATOM      4  C   UNL     1      -9.229   0.403 131.813  0.00  0.00    +0.000 C 
ATOM      5  C   UNL     1      -9.943   2.307 131.747  0.00  0.00    +0.000 C 
ATOM      6  C   UNL     1      -8.986   3.232 133.367  0.00  0.00    +0.000 C 
ATOM      7  C   UNL     1     -10.059   3.045 130.416  0.00  0.00    +0.000 C 
ATOM      8  C   UNL     1      -8.658   3.409 130.255  0.00  0.00    +0.000 C 
BRANCH   2  10
ATOM      9  C   UNL     1      -7.320   0.017 128.617  0.00  0.00    +0.000 C 
ATOM     10  C   UNL     1      -8.188   1.204 129.027  0.00  0.00    +0.000 C 
ATOM     11  C   UNL     1      -8.231   2.099 127.813  0.00  0.00    +0.000 C 
ENDBRANCH   2  10
ENDBRANCH   1   8
BRANCH   1  12
ATOM     12  C   UNL     1      -8.582   5.861 131.167  0.00  0.00    +0.000 C 
ATOM     13  O   UNL     1      -7.716   6.449 131.853  0.00  0.00    +0.000 OA
BRANCH  12  14
ATOM     14  C   UNL     1     -10.301   6.656 130.949  0.00  0.00    +0.000 A 
ATOM     15  C   UNL     1     -11.210   6.479 131.871  0.00  0.00    +0.000 A 
ATOM     16  C   UNL     1     -12.408   7.043 131.396  0.00  0.00    +0.000 A 
ATOM     17  C   UNL     1     -12.734   7.770 130.088  0.00  0.00    +0.000 A 
ATOM     18  C   UNL     1     -12.047   7.675 128.922  0.00  0.00    +0.000 A 
ATOM     19  C   UNL     1     -11.090   6.793 129.317  0.00  0.00    +0.000 A 
BRANCH  19  20
ATOM     20  O   UNL     1      -9.840   6.416 128.044  0.00  0.00    +0.000 OA
ATOM     21  H   UNL     1      -9.792   5.305 127.810  0.00  0.00    +0.000 HD
ENDBRANCH  19  20
ENDBRANCH  12  14
ENDBRANCH   1  12
TORSDOF 5
ENDMDL
MODEL 8
REMARK VINA RESULT:      -7.0      4.511      8.628
REMARK  Name = Menthyl salicylate
REMARK  8 active torsions:
REMARK  status: ('A' for Active; 'I' for Inactive)
REMARK    1  A    between atoms: C_1  and  C_2
REMARK    2  A    between atoms: C_2  and  C_3
REMARK    3  A    between atoms: C_2  and  C_4
REMARK    4  A    between atoms: C_7  and  C_8
REMARK    5  A    between atoms: C_10  and  O_11
REMARK    6  A    between atoms: O_11  and  C_12
REMARK    7  A    between atoms: C_12  and  C_14
REMARK    8  A    between atoms: C_19  and  O_20
REMARK                            x       y       z     vdW  Elec       q    Type
REMARK                         _______ _______ _______ _____ _____    ______ ____
ROOT
ATOM      1  O   UNL     1      -6.943  -2.480 127.691  0.00  0.00    +0.000 OA
ENDROOT
BRANCH   1   8
ATOM      2  C   UNL     1      -6.708  -2.614 125.006  0.00  0.00    +0.000 C 
ATOM      3  C   UNL     1      -7.610  -3.953 124.449  0.00  0.00    +0.000 C 
ATOM      4  C   UNL     1      -9.395  -3.308 124.475  0.00  0.00    +0.000 C 
ATOM      5  C   UNL     1      -9.179  -2.408 126.287  0.00  0.00    +0.000 C 
ATOM      6  C   UNL     1      -8.865  -4.022 127.587  0.00  0.00    +0.000 C 
ATOM      7  C   UNL     1      -8.330  -1.146 126.429  0.00  0.00    +0.000 C 
ATOM      8  C   UNL     1      -7.017  -1.776 126.420  0.00  0.00    +0.000 C 
BRANCH   2  10
ATOM      9  C   UNL     1      -6.174  -1.900 122.557  0.00  0.00    +0.000 C 
ATOM     10  C   UNL     1      -6.907  -1.598 123.862  0.00  0.00    +0.000 C 
ATOM     11  C   UNL     1      -6.317  -0.300 124.354  0.00  0.00    +0.000 C 
ENDBRANCH   2  10
ENDBRANCH   1   8
BRANCH   1  12
ATOM     12  C   UNL     1      -5.884  -2.419 128.690  0.00  0.00    +0.000 C 
ATOM     13  O   UNL     1      -4.761  -2.417 128.136  0.00  0.00    +0.000 OA
BRANCH  12  14
ATOM     14  C   UNL     1      -6.083  -3.243 130.397  0.00  0.00    +0.000 A 
ATOM     15  C   UNL     1      -7.081  -2.894 131.164  0.00  0.00    +0.000 A 
ATOM     16  C   UNL     1      -6.907  -3.539 132.402  0.00  0.00    +0.000 A 
ATOM     17  C   UNL     1      -5.825  -4.503 132.897  0.00  0.00    +0.000 A 
ATOM     18  C   UNL     1      -4.572  -4.632 132.394  0.00  0.00    +0.000 A 
ATOM     19  C   UNL     1      -4.644  -3.691 131.415  0.00  0.00    +0.000 A 
BRANCH  19  20
ATOM     20  O   UNL     1      -3.149  -3.561 130.379  0.00  0.00    +0.000 OA
ATOM     21  H   UNL     1      -2.630  -2.558 130.502  0.00  0.00    +0.000 HD
ENDBRANCH  19  20
ENDBRANCH  12  14
ENDBRANCH   1  12
TORSDOF 5
ENDMDL
MODEL 9
REMARK VINA RESULT:      -7.0      7.963      9.440
REMARK  Name = Menthyl salicylate
REMARK  8 active torsions:
REMARK  status: ('A' for Active; 'I' for Inactive)
REMARK    1  A    between atoms: C_1  and  C_2
REMARK    2  A    between atoms: C_2  and  C_3
REMARK    3  A    between atoms: C_2  and  C_4
REMARK    4  A    between atoms: C_7  and  C_8
REMARK    5  A    between atoms: C_10  and  O_11
REMARK    6  A    between atoms: O_11  and  C_12
REMARK    7  A    between atoms: C_12  and  C_14
REMARK    8  A    between atoms: C_19  and  O_20
REMARK                            x       y       z     vdW  Elec       q    Type
REMARK                         _______ _______ _______ _____ _____    ______ ____
ROOT
ATOM      1  O   UNL     1      -9.516   4.384 131.413  0.00  0.00    +0.000 OA
ENDROOT
BRANCH   1   8
ATOM      2  C   UNL     1      -7.246   2.952 131.690  0.00  0.00    +0.000 C 
ATOM      3  C   UNL     1      -6.139   3.864 132.615  0.00  0.00    +0.000 C 
ATOM      4  C   UNL     1      -6.762   3.621 134.391  0.00  0.00    +0.000 C 
ATOM      5  C   UNL     1      -8.714   3.872 133.877  0.00  0.00    +0.000 C 
ATOM      6  C   UNL     1      -8.787   5.868 133.242  0.00  0.00    +0.000 C 
ATOM      7  C   UNL     1      -9.449   2.797 133.079  0.00  0.00    +0.000 C 
ATOM      8  C   UNL     1      -8.909   3.108 131.762  0.00  0.00    +0.000 C 
BRANCH   2  10
ATOM      9  C   UNL     1      -5.508   1.024 131.931  0.00  0.00    +0.000 C 
ATOM     10  C   UNL     1      -6.938   1.512 132.153  0.00  0.00    +0.000 C 
ATOM     11  C   UNL     1      -7.798   0.611 131.302  0.00  0.00    +0.000 C 
ENDBRANCH   2  10
ENDBRANCH   1   8
BRANCH   1  12
ATOM     12  C   UNL     1     -10.789   4.618 130.744  0.00  0.00    +0.000 C 
ATOM     13  O   UNL     1     -11.110   3.622 130.055  0.00  0.00    +0.000 OA
BRANCH  12  14
ATOM     14  C   UNL     1     -11.299   6.361 130.163  0.00  0.00    +0.000 A 
ATOM     15  C   UNL     1     -12.492   6.807 130.450  0.00  0.00    +0.000 A 
ATOM     16  C   UNL     1     -12.653   8.038 129.787  0.00  0.00    +0.000 A 
ATOM     17  C   UNL     1     -11.701   8.834 128.889  0.00  0.00    +0.000 A 
ATOM     18  C   UNL     1     -10.643   8.338 128.200  0.00  0.00    +0.000 A 
ATOM     19  C   UNL     1     -10.751   7.033 128.565  0.00  0.00    +0.000 A 
BRANCH  19  20
ATOM     20  O   UNL     1      -9.432   5.954 127.914  0.00  0.00    +0.000 OA
ATOM     21  H   UNL     1      -9.841   5.153 127.219  0.00  0.00    +0.000 HD
ENDBRANCH  19  20
ENDBRANCH  12  14
ENDBRANCH   1  12
TORSDOF 5
ENDMDL
