MODEL 1
REMARK VINA RESULT:      -6.9      0.000      0.000
REMARK  Name = Meperidine
REMARK  6 active torsions:
REMARK  status: ('A' for Active; 'I' for Inactive)
REMARK    1  A    between atoms: C_1  and  C_2
REMARK    2  A    between atoms: C_2  and  O_3
REMARK    3  A    between atoms: O_3  and  C_4
REMARK    4  A    between atoms: C_4  and  C_6
REMARK    5  A    between atoms: C_6  and  C_13
REMARK    6  A    between atoms: N_9  and  C_10
REMARK                            x       y       z     vdW  Elec       q    Type
REMARK                         _______ _______ _______ _____ _____    ______ ____
ROOT
ATOM      1  C   UNL     1     -10.675   6.542 130.381  0.00  0.00    +0.000 C 
ATOM      2  C   UNL     1      -9.282   7.260 130.396  0.00  0.00    +0.000 C 
ATOM      3  C   UNL     1      -8.316   6.410 131.302  0.00  0.00    +0.000 C 
ATOM      4  N   UNL     1      -8.788   6.357 132.693  0.00  0.00    +0.000 NA
ATOM      5  C   UNL     1      -7.922   5.525 133.524  0.00  0.00    +0.000 C 
ATOM      6  C   UNL     1     -10.120   5.778 132.784  0.00  0.00    +0.000 C 
ATOM      7  C   UNL     1     -11.062   6.479 131.872  0.00  0.00    +0.000 C 
ENDROOT
BRANCH   1   8
ATOM      8  C   UNL     1     -11.924   7.181 129.700  0.00  0.00    +0.000 A 
ATOM      9  C   UNL     1     -12.855   6.394 128.952  0.00  0.00    +0.000 A 
ATOM     10  C   UNL     1     -13.706   6.929 127.995  0.00  0.00    +0.000 A 
ATOM     11  C   UNL     1     -13.776   8.300 127.865  0.00  0.00    +0.000 A 
ATOM     12  C   UNL     1     -12.978   9.110 128.679  0.00  0.00    +0.000 A 
ATOM     13  C   UNL     1     -12.053   8.563 129.582  0.00  0.00    +0.000 A 
ENDBRANCH   1   8
BRANCH   1  14
ATOM     14  C   UNL     1     -10.256   5.234 129.609  0.00  0.00    +0.000 C 
ATOM     15  O   UNL     1      -9.504   5.266 128.638  0.00  0.00    +0.000 OA
BRANCH  14  16
ATOM     16  O   UNL     1     -10.754   4.054 130.056  0.00  0.00    +0.000 OA
BRANCH  16  18
ATOM     17  C   UNL     1      -9.851   2.363 131.521  0.00  0.00    +0.000 C 
ATOM     18  C   UNL     1      -9.669   3.114 130.230  0.00  0.00    +0.000 C 
ENDBRANCH  16  18
ENDBRANCH  14  16
ENDBRANCH   1  14
TORSDOF 4
ENDMDL
MODEL 2
REMARK VINA RESULT:      -6.9      9.071     11.200
REMARK  Name = Meperidine
REMARK  6 active torsions:
REMARK  status: ('A' for Active; 'I' for Inactive)
REMARK    1  A    between atoms: C_1  and  C_2
REMARK    2  A    between atoms: C_2  and  O_3
REMARK    3  A    between atoms: O_3  and  C_4
REMARK    4  A    between atoms: C_4  and  C_6
REMARK    5  A    between atoms: C_6  and  C_13
REMARK    6  A    between atoms: N_9  and  C_10
REMARK                            x       y       z     vdW  Elec       q    Type
REMARK                         _______ _______ _______ _____ _____    ______ ____
ROOT
ATOM      1  C   UNL     1      -8.173  -2.019 125.195  0.00  0.00    +0.000 C 
ATOM      2  C   UNL     1      -9.084  -2.654 124.088  0.00  0.00    +0.000 C 
ATOM      3  C   UNL     1      -9.239  -1.597 122.932  0.00  0.00    +0.000 C 
ATOM      4  N   UNL     1      -9.919  -0.381 123.402  0.00  0.00    +0.000 NA
ATOM      5  C   UNL     1     -10.017   0.622 122.344  0.00  0.00    +0.000 C 
ATOM      6  C   UNL     1      -9.193   0.249 124.495  0.00  0.00    +0.000 C 
ATOM      7  C   UNL     1      -8.927  -0.731 125.582  0.00  0.00    +0.000 C 
ENDROOT
BRANCH   1   8
ATOM      8  C   UNL     1      -7.921  -2.727 126.561  0.00  0.00    +0.000 A 
ATOM      9  C   UNL     1      -8.879  -3.627 127.127  0.00  0.00    +0.000 A 
ATOM     10  C   UNL     1      -8.922  -3.938 128.479  0.00  0.00    +0.000 A 
ATOM     11  C   UNL     1      -7.905  -3.489 129.294  0.00  0.00    +0.000 A 
ATOM     12  C   UNL     1      -6.874  -2.718 128.746  0.00  0.00    +0.000 A 
ATOM     13  C   UNL     1      -6.881  -2.331 127.397  0.00  0.00    +0.000 A 
ENDBRANCH   1   8
BRANCH   1  14
ATOM     14  C   UNL     1      -6.829  -1.942 124.377  0.00  0.00    +0.000 C 
ATOM     15  O   UNL     1      -6.189  -0.898 124.276  0.00  0.00    +0.000 OA
BRANCH  14  16
ATOM     16  O   UNL     1      -6.390  -3.079 123.780  0.00  0.00    +0.000 OA
BRANCH  16  18
ATOM     17  C   UNL     1      -4.446  -4.504 123.702  0.00  0.00    +0.000 C 
ATOM     18  C   UNL     1      -4.944  -3.086 123.773  0.00  0.00    +0.000 C 
ENDBRANCH  16  18
ENDBRANCH  14  16
ENDBRANCH   1  14
TORSDOF 4
ENDMDL
MODEL 3
REMARK VINA RESULT:      -6.7      7.603      9.112
REMARK  Name = Meperidine
REMARK  6 active torsions:
REMARK  status: ('A' for Active; 'I' for Inactive)
REMARK    1  A    between atoms: C_1  and  C_2
REMARK    2  A    between atoms: C_2  and  O_3
REMARK    3  A    between atoms: O_3  and  C_4
REMARK    4  A    between atoms: C_4  and  C_6
REMARK    5  A    between atoms: C_6  and  C_13
REMARK    6  A    between atoms: N_9  and  C_10
REMARK                            x       y       z     vdW  Elec       q    Type
REMARK                         _______ _______ _______ _____ _____    ______ ____
ROOT
ATOM      1  C   UNL     1      -8.125   2.330 123.541  0.00  0.00    +0.000 C 
ATOM      2  C   UNL     1      -9.602   1.829 123.701  0.00  0.00    +0.000 C 
ATOM      3  C   UNL     1      -9.643   0.851 124.933  0.00  0.00    +0.000 C 
ATOM      4  N   UNL     1      -8.808  -0.337 124.707  0.00  0.00    +0.000 NA
ATOM      5  C   UNL     1      -8.803  -1.221 125.870  0.00  0.00    +0.000 C 
ATOM      6  C   UNL     1      -7.419   0.024 124.463  0.00  0.00    +0.000 C 
ATOM      7  C   UNL     1      -7.321   1.026 123.369  0.00  0.00    +0.000 C 
ENDROOT
BRANCH   1   8
ATOM      8  C   UNL     1      -7.679   3.204 122.329  0.00  0.00    +0.000 A 
ATOM      9  C   UNL     1      -8.603   3.607 121.314  0.00  0.00    +0.000 A 
ATOM     10  C   UNL     1      -8.210   3.992 120.039  0.00  0.00    +0.000 A 
ATOM     11  C   UNL     1      -6.865   4.150 119.781  0.00  0.00    +0.000 A 
ATOM     12  C   UNL     1      -5.936   3.897 120.794  0.00  0.00    +0.000 A 
ATOM     13  C   UNL     1      -6.331   3.421 122.054  0.00  0.00    +0.000 A 
ENDBRANCH   1   8
BRANCH   1  14
ATOM     14  C   UNL     1      -8.016   3.166 124.871  0.00  0.00    +0.000 C 
ATOM     15  O   UNL     1      -8.830   4.041 125.158  0.00  0.00    +0.000 OA
BRANCH  14  16
ATOM     16  O   UNL     1      -6.984   2.886 125.707  0.00  0.00    +0.000 OA
BRANCH  16  18
ATOM     17  C   UNL     1      -4.835   3.929 125.374  0.00  0.00    +0.000 C 
ATOM     18  C   UNL     1      -6.219   4.091 125.940  0.00  0.00    +0.000 C 
ENDBRANCH  16  18
ENDBRANCH  14  16
ENDBRANCH   1  14
TORSDOF 4
ENDMDL
MODEL 4
REMARK VINA RESULT:      -6.4      1.401      1.728
REMARK  Name = Meperidine
REMARK  6 active torsions:
REMARK  status: ('A' for Active; 'I' for Inactive)
REMARK    1  A    between atoms: C_1  and  C_2
REMARK    2  A    between atoms: C_2  and  O_3
REMARK    3  A    between atoms: O_3  and  C_4
REMARK    4  A    between atoms: C_4  and  C_6
REMARK    5  A    between atoms: C_6  and  C_13
REMARK    6  A    between atoms: N_9  and  C_10
REMARK                            x       y       z     vdW  Elec       q    Type
REMARK                         _______ _______ _______ _____ _____    ______ ____
ROOT
ATOM      1  C   UNL     1      -9.990   6.406 130.394  0.00  0.00    +0.000 C 
ATOM      2  C   UNL     1      -8.627   7.127 130.679  0.00  0.00    +0.000 C 
ATOM      3  C   UNL     1      -7.824   6.243 131.704  0.00  0.00    +0.000 C 
ATOM      4  N   UNL     1      -8.529   6.132 132.989  0.00  0.00    +0.000 NA
ATOM      5  C   UNL     1      -7.810   5.269 133.923  0.00  0.00    +0.000 C 
ATOM      6  C   UNL     1      -9.851   5.546 132.825  0.00  0.00    +0.000 C 
ATOM      7  C   UNL     1     -10.627   6.281 131.792  0.00  0.00    +0.000 C 
ENDROOT
BRANCH   1   8
ATOM      8  C   UNL     1     -11.108   7.069 129.534  0.00  0.00    +0.000 A 
ATOM      9  C   UNL     1     -12.457   6.591 129.560  0.00  0.00    +0.000 A 
ATOM     10  C   UNL     1     -13.368   6.833 128.540  0.00  0.00    +0.000 A 
ATOM     11  C   UNL     1     -13.016   7.704 127.532  0.00  0.00    +0.000 A 
ATOM     12  C   UNL     1     -11.751   8.300 127.547  0.00  0.00    +0.000 A 
ATOM     13  C   UNL     1     -10.800   7.984 128.530  0.00  0.00    +0.000 A 
ENDBRANCH   1   8
BRANCH   1  14
ATOM     14  C   UNL     1      -9.431   5.133 129.654  0.00  0.00    +0.000 C 
ATOM     15  O   UNL     1      -9.848   4.003 129.900  0.00  0.00    +0.000 OA
BRANCH  14  16
ATOM     16  O   UNL     1      -8.464   5.321 128.721  0.00  0.00    +0.000 OA
BRANCH  16  18
ATOM     17  C   UNL     1      -6.357   4.166 128.936  0.00  0.00    +0.000 C 
ATOM     18  C   UNL     1      -7.786   4.067 128.476  0.00  0.00    +0.000 C 
ENDBRANCH  16  18
ENDBRANCH  14  16
ENDBRANCH   1  14
TORSDOF 4
ENDMDL
MODEL 5
REMARK VINA RESULT:      -6.4      1.574      5.012
REMARK  Name = Meperidine
REMARK  6 active torsions:
REMARK  status: ('A' for Active; 'I' for Inactive)
REMARK    1  A    between atoms: C_1  and  C_2
REMARK    2  A    between atoms: C_2  and  O_3
REMARK    3  A    between atoms: O_3  and  C_4
REMARK    4  A    between atoms: C_4  and  C_6
REMARK    5  A    between atoms: C_6  and  C_13
REMARK    6  A    between atoms: N_9  and  C_10
REMARK                            x       y       z     vdW  Elec       q    Type
REMARK                         _______ _______ _______ _____ _____    ______ ____
ROOT
ATOM      1  C   UNL     1      -9.854   6.250 130.758  0.00  0.00    +0.000 C 
ATOM      2  C   UNL     1     -11.356   6.353 131.192  0.00  0.00    +0.000 C 
ATOM      3  C   UNL     1     -12.227   6.441 129.883  0.00  0.00    +0.000 C 
ATOM      4  N   UNL     1     -11.918   7.653 129.111  0.00  0.00    +0.000 NA
ATOM      5  C   UNL     1     -12.687   7.709 127.870  0.00  0.00    +0.000 C 
ATOM      6  C   UNL     1     -10.516   7.698 128.724  0.00  0.00    +0.000 C 
ATOM      7  C   UNL     1      -9.638   7.520 129.911  0.00  0.00    +0.000 C 
ENDROOT
BRANCH   1   8
ATOM      8  C   UNL     1      -8.691   6.294 131.796  0.00  0.00    +0.000 A 
ATOM      9  C   UNL     1      -7.339   6.540 131.398  0.00  0.00    +0.000 A 
ATOM     10  C   UNL     1      -6.243   6.173 132.166  0.00  0.00    +0.000 A 
ATOM     11  C   UNL     1      -6.459   5.695 133.441  0.00  0.00    +0.000 A 
ATOM     12  C   UNL     1      -7.768   5.570 133.917  0.00  0.00    +0.000 A 
ATOM     13  C   UNL     1      -8.877   5.857 133.105  0.00  0.00    +0.000 A 
ENDBRANCH   1   8
BRANCH   1  14
ATOM     14  C   UNL     1      -9.905   4.833 130.072  0.00  0.00    +0.000 C 
ATOM     15  O   UNL     1      -9.404   4.626 128.970  0.00  0.00    +0.000 OA
BRANCH  14  16
ATOM     16  O   UNL     1     -10.525   3.831 130.745  0.00  0.00    +0.000 OA
BRANCH  16  18
ATOM     17  C   UNL     1      -9.639   2.301 132.386  0.00  0.00    +0.000 C 
ATOM     18  C   UNL     1      -9.592   2.745 130.949  0.00  0.00    +0.000 C 
ENDBRANCH  16  18
ENDBRANCH  14  16
ENDBRANCH   1  14
TORSDOF 4
ENDMDL
MODEL 6
REMARK VINA RESULT:      -6.3      1.772      3.023
REMARK  Name = Meperidine
REMARK  6 active torsions:
REMARK  status: ('A' for Active; 'I' for Inactive)
REMARK    1  A    between atoms: C_1  and  C_2
REMARK    2  A    between atoms: C_2  and  O_3
REMARK    3  A    between atoms: O_3  and  C_4
REMARK    4  A    between atoms: C_4  and  C_6
REMARK    5  A    between atoms: C_6  and  C_13
REMARK    6  A    between atoms: N_9  and  C_10
REMARK                            x       y       z     vdW  Elec       q    Type
REMARK                         _______ _______ _______ _____ _____    ______ ____
ROOT
ATOM      1  C   UNL     1      -9.830   6.002 130.865  0.00  0.00    +0.000 C 
ATOM      2  C   UNL     1      -9.720   5.881 132.424  0.00  0.00    +0.000 C 
ATOM      3  C   UNL     1      -8.974   4.533 132.747  0.00  0.00    +0.000 C 
ATOM      4  N   UNL     1      -9.739   3.368 132.278  0.00  0.00    +0.000 NA
ATOM      5  C   UNL     1      -9.024   2.119 132.530  0.00  0.00    +0.000 C 
ATOM      6  C   UNL     1      -9.970   3.424 130.842  0.00  0.00    +0.000 C 
ATOM      7  C   UNL     1     -10.586   4.722 130.459  0.00  0.00    +0.000 C 
ENDROOT
BRANCH   1   8
ATOM      8  C   UNL     1     -10.641   7.145 130.183  0.00  0.00    +0.000 A 
ATOM      9  C   UNL     1     -12.006   7.405 130.527  0.00  0.00    +0.000 A 
ATOM     10  C   UNL     1     -12.884   8.081 129.692  0.00  0.00    +0.000 A 
ATOM     11  C   UNL     1     -12.388   8.672 128.549  0.00  0.00    +0.000 A 
ATOM     12  C   UNL     1     -11.027   8.555 128.250  0.00  0.00    +0.000 A 
ATOM     13  C   UNL     1     -10.159   7.795 129.050  0.00  0.00    +0.000 A 
ENDBRANCH   1   8
BRANCH   1  14
ATOM     14  C   UNL     1      -8.298   6.163 130.534  0.00  0.00    +0.000 C 
ATOM     15  O   UNL     1      -7.752   5.507 129.651  0.00  0.00    +0.000 OA
BRANCH  14  16
ATOM     16  O   UNL     1      -7.589   7.064 131.261  0.00  0.00    +0.000 OA
BRANCH  16  18
ATOM     17  C   UNL     1      -5.619   6.222 132.369  0.00  0.00    +0.000 C 
ATOM     18  C   UNL     1      -6.176   6.802 131.098  0.00  0.00    +0.000 C 
ENDBRANCH  16  18
ENDBRANCH  14  16
ENDBRANCH   1  14
TORSDOF 4
ENDMDL
MODEL 7
REMARK VINA RESULT:      -6.1      7.946      9.919
REMARK  Name = Meperidine
REMARK  6 active torsions:
REMARK  status: ('A' for Active; 'I' for Inactive)
REMARK    1  A    between atoms: C_1  and  C_2
REMARK    2  A    between atoms: C_2  and  O_3
REMARK    3  A    between atoms: O_3  and  C_4
REMARK    4  A    between atoms: C_4  and  C_6
REMARK    5  A    between atoms: C_6  and  C_13
REMARK    6  A    between atoms: N_9  and  C_10
REMARK                            x       y       z     vdW  Elec       q    Type
REMARK                         _______ _______ _______ _____ _____    ______ ____
ROOT
ATOM      1  C   UNL     1      -8.382  -0.607 125.767  0.00  0.00    +0.000 C 
ATOM      2  C   UNL     1      -9.664   0.294 125.746  0.00  0.00    +0.000 C 
ATOM      3  C   UNL     1      -9.438   1.421 124.670  0.00  0.00    +0.000 C 
ATOM      4  N   UNL     1      -8.308   2.290 125.028  0.00  0.00    +0.000 NA
ATOM      5  C   UNL     1      -8.064   3.303 124.004  0.00  0.00    +0.000 C 
ATOM      6  C   UNL     1      -7.071   1.533 125.155  0.00  0.00    +0.000 C 
ATOM      7  C   UNL     1      -7.250   0.388 126.088  0.00  0.00    +0.000 C 
ENDROOT
BRANCH   1   8
ATOM      8  C   UNL     1      -8.189  -1.741 126.819  0.00  0.00    +0.000 A 
ATOM      9  C   UNL     1      -8.805  -3.023 126.661  0.00  0.00    +0.000 A 
ATOM     10  C   UNL     1      -9.031  -3.892 127.720  0.00  0.00    +0.000 A 
ATOM     11  C   UNL     1      -8.499  -3.584 128.954  0.00  0.00    +0.000 A 
ATOM     12  C   UNL     1      -7.770  -2.401 129.113  0.00  0.00    +0.000 A 
ATOM     13  C   UNL     1      -7.620  -1.481 128.063  0.00  0.00    +0.000 A 
ENDBRANCH   1   8
BRANCH   1  14
ATOM     14  C   UNL     1      -8.510  -1.231 124.326  0.00  0.00    +0.000 C 
ATOM     15  O   UNL     1      -9.576  -1.669 123.900  0.00  0.00    +0.000 OA
BRANCH  14  16
ATOM     16  O   UNL     1      -7.394  -1.269 123.555  0.00  0.00    +0.000 OA
BRANCH  16  18
ATOM     17  C   UNL     1      -5.376  -2.455 124.137  0.00  0.00    +0.000 C 
ATOM     18  C   UNL     1      -6.793  -2.581 123.650  0.00  0.00    +0.000 C 
ENDBRANCH  16  18
ENDBRANCH  14  16
ENDBRANCH   1  14
TORSDOF 4
ENDMDL
MODEL 8
REMARK VINA RESULT:      -6.0      1.912      2.753
REMARK  Name = Meperidine
REMARK  6 active torsions:
REMARK  status: ('A' for Active; 'I' for Inactive)
REMARK    1  A    between atoms: C_1  and  C_2
REMARK    2  A    between atoms: C_2  and  O_3
REMARK    3  A    between atoms: O_3  and  C_4
REMARK    4  A    between atoms: C_4  and  C_6
REMARK    5  A    between atoms: C_6  and  C_13
REMARK    6  A    between atoms: N_9  and  C_10
REMARK                            x       y       z     vdW  Elec       q    Type
REMARK                         _______ _______ _______ _____ _____    ______ ____
ROOT
ATOM      1  C   UNL     1      -9.393   5.774 130.614  0.00  0.00    +0.000 C 
ATOM      2  C   UNL     1      -8.571   4.966 129.551  0.00  0.00    +0.000 C 
ATOM      3  C   UNL     1      -7.263   4.445 130.255  0.00  0.00    +0.000 C 
ATOM      4  N   UNL     1      -6.411   5.557 130.702  0.00  0.00    +0.000 NA
ATOM      5  C   UNL     1      -5.223   5.076 131.401  0.00  0.00    +0.000 C 
ATOM      6  C   UNL     1      -7.112   6.424 131.637  0.00  0.00    +0.000 C 
ATOM      7  C   UNL     1      -8.410   6.873 131.066  0.00  0.00    +0.000 C 
ENDROOT
BRANCH   1   8
ATOM      8  C   UNL     1     -10.682   6.564 130.232  0.00  0.00    +0.000 A 
ATOM      9  C   UNL     1     -10.721   7.430 129.094  0.00  0.00    +0.000 A 
ATOM     10  C   UNL     1     -11.646   8.455 128.951  0.00  0.00    +0.000 A 
ATOM     11  C   UNL     1     -12.675   8.549 129.864  0.00  0.00    +0.000 A 
ATOM     12  C   UNL     1     -12.747   7.632 130.917  0.00  0.00    +0.000 A 
ATOM     13  C   UNL     1     -11.760   6.652 131.109  0.00  0.00    +0.000 A 
ENDBRANCH   1   8
BRANCH   1  14
ATOM     14  C   UNL     1      -9.760   4.586 131.580  0.00  0.00    +0.000 C 
ATOM     15  O   UNL     1     -10.210   3.522 131.160  0.00  0.00    +0.000 OA
BRANCH  14  16
ATOM     16  O   UNL     1      -9.559   4.771 132.909  0.00  0.00    +0.000 OA
BRANCH  16  18
ATOM     17  C   UNL     1      -7.785   3.464 133.889  0.00  0.00    +0.000 C 
ATOM     18  C   UNL     1      -9.244   3.501 133.525  0.00  0.00    +0.000 C 
ENDBRANCH  16  18
ENDBRANCH  14  16
ENDBRANCH   1  14
TORSDOF 4
ENDMDL
MODEL 9
REMARK VINA RESULT:      -5.9      2.095      3.305
REMARK  Name = Meperidine
REMARK  6 active torsions:
REMARK  status: ('A' for Active; 'I' for Inactive)
REMARK    1  A    between atoms: C_1  and  C_2
REMARK    2  A    between atoms: C_2  and  O_3
REMARK    3  A    between atoms: O_3  and  C_4
REMARK    4  A    between atoms: C_4  and  C_6
REMARK    5  A    between atoms: C_6  and  C_13
REMARK    6  A    between atoms: N_9  and  C_10
REMARK                            x       y       z     vdW  Elec       q    Type
REMARK                         _______ _______ _______ _____ _____    ______ ____
ROOT
ATOM      1  C   UNL     1      -9.604   5.829 130.517  0.00  0.00    +0.000 C 
ATOM      2  C   UNL     1     -10.183   4.483 131.074  0.00  0.00    +0.000 C 
ATOM      3  C   UNL     1      -8.997   3.451 131.159  0.00  0.00    +0.000 C 
ATOM      4  N   UNL     1      -8.438   3.162 129.830  0.00  0.00    +0.000 NA
ATOM      5  C   UNL     1      -7.303   2.245 129.913  0.00  0.00    +0.000 C 
ATOM      6  C   UNL     1      -7.942   4.368 129.185  0.00  0.00    +0.000 C 
ATOM      7  C   UNL     1      -8.992   5.422 129.162  0.00  0.00    +0.000 C 
ENDROOT
BRANCH   1   8
ATOM      8  C   UNL     1     -10.523   7.036 130.162  0.00  0.00    +0.000 A 
ATOM      9  C   UNL     1     -11.775   7.246 130.822  0.00  0.00    +0.000 A 
ATOM     10  C   UNL     1     -12.802   8.007 130.280  0.00  0.00    +0.000 A 
ATOM     11  C   UNL     1     -12.554   8.727 129.131  0.00  0.00    +0.000 A 
ATOM     12  C   UNL     1     -11.293   8.655 128.531  0.00  0.00    +0.000 A 
ATOM     13  C   UNL     1     -10.287   7.814 129.031  0.00  0.00    +0.000 A 
ENDBRANCH   1   8
BRANCH   1  14
ATOM     14  C   UNL     1      -8.674   6.204 131.733  0.00  0.00    +0.000 C 
ATOM     15  O   UNL     1      -7.515   6.579 131.573  0.00  0.00    +0.000 OA
BRANCH  14  16
ATOM     16  O   UNL     1      -9.199   6.104 132.980  0.00  0.00    +0.000 OA
BRANCH  16  18
ATOM     17  C   UNL     1      -8.388   4.473 134.562  0.00  0.00    +0.000 C 
ATOM     18  C   UNL     1      -8.140   5.811 133.921  0.00  0.00    +0.000 C 
ENDBRANCH  16  18
ENDBRANCH  14  16
ENDBRANCH   1  14
TORSDOF 4
ENDMDL
