MODEL 1
REMARK VINA RESULT:      -8.3      0.000      0.000
REMARK  Name = Mepenzolate
REMARK  8 active torsions:
REMARK  status: ('A' for Active; 'I' for Inactive)
REMARK    1  A    between atoms: C_1  and  N_2
REMARK    2  A    between atoms: N_2  and  C_3
REMARK    3  A    between atoms: C_7  and  O_9
REMARK    4  A    between atoms: O_9  and  C_10
REMARK    5  A    between atoms: C_10  and  C_12
REMARK    6  A    between atoms: C_12  and  O_13
REMARK    7  A    between atoms: C_12  and  C_14
REMARK    8  A    between atoms: C_12  and  C_20
REMARK                            x       y       z     vdW  Elec       q    Type
REMARK                         _______ _______ _______ _____ _____    ______ ____
ROOT
ATOM      1  C   UNL     1      -7.654   3.108 124.101  0.00  0.00    +0.000 C 
ENDROOT
BRANCH   1   2
ATOM      2  C   UNL     1      -6.387   3.018 125.014  0.00  0.00    +0.000 A 
ATOM      3  C   UNL     1      -5.586   4.139 125.307  0.00  0.00    +0.000 A 
ATOM      4  C   UNL     1      -4.383   4.027 126.015  0.00  0.00    +0.000 A 
ATOM      5  C   UNL     1      -3.950   2.796 126.483  0.00  0.00    +0.000 A 
ATOM      6  C   UNL     1      -4.720   1.679 126.245  0.00  0.00    +0.000 A 
ATOM      7  C   UNL     1      -5.927   1.808 125.565  0.00  0.00    +0.000 A 
ENDBRANCH   1   2
BRANCH   1   8
ATOM      8  C   UNL     1      -7.377   3.325 122.583  0.00  0.00    +0.000 A 
ATOM      9  C   UNL     1      -8.424   3.527 121.657  0.00  0.00    +0.000 A 
ATOM     10  C   UNL     1      -8.188   3.921 120.336  0.00  0.00    +0.000 A 
ATOM     11  C   UNL     1      -6.891   3.972 119.855  0.00  0.00    +0.000 A 
ATOM     12  C   UNL     1      -5.847   3.603 120.687  0.00  0.00    +0.000 A 
ATOM     13  C   UNL     1      -6.091   3.286 122.023  0.00  0.00    +0.000 A 
ENDBRANCH   1   8
BRANCH   1  14
ATOM     14  C   UNL     1      -8.566   1.835 124.371  0.00  0.00    +0.000 C 
ATOM     15  O   UNL     1      -9.386   1.688 125.264  0.00  0.00    +0.000 OA
BRANCH  14  16
ATOM     16  O   UNL     1      -8.389   0.829 123.434  0.00  0.00    +0.000 OA
BRANCH  16  23
ATOM     17  C   UNL     1      -5.673  -2.812 125.086  0.00  0.00    +0.000 C 
ATOM     18  N   UNL     1      -7.141  -2.413 124.919  0.00  0.00    +0.000 N 
ATOM     19  C   UNL     1      -7.807  -2.494 126.295  0.00  0.00    +0.000 C 
ATOM     20  C   UNL     1      -7.803  -3.342 123.907  0.00  0.00    +0.000 C 
ATOM     21  C   UNL     1      -9.214  -2.871 123.563  0.00  0.00    +0.000 C 
ATOM     22  C   UNL     1      -9.209  -1.437 123.033  0.00  0.00    +0.000 C 
ATOM     23  C   UNL     1      -8.544  -0.481 124.023  0.00  0.00    +0.000 C 
ATOM     24  C   UNL     1      -7.146  -0.986 124.401  0.00  0.00    +0.000 C 
ENDBRANCH  16  23
ENDBRANCH  14  16
ENDBRANCH   1  14
BRANCH   1  25
ATOM     25  O   UNL     1      -8.426   4.267 124.481  0.00  0.00    +0.000 OA
ATOM     26  H   UNL     1      -9.174   4.346 123.868  0.00  0.00    +0.000 HD
ENDBRANCH   1  25
TORSDOF 6
ENDMDL
MODEL 2
REMARK VINA RESULT:      -8.1      2.701      6.868
REMARK  Name = Mepenzolate
REMARK  8 active torsions:
REMARK  status: ('A' for Active; 'I' for Inactive)
REMARK    1  A    between atoms: C_1  and  N_2
REMARK    2  A    between atoms: N_2  and  C_3
REMARK    3  A    between atoms: C_7  and  O_9
REMARK    4  A    between atoms: O_9  and  C_10
REMARK    5  A    between atoms: C_10  and  C_12
REMARK    6  A    between atoms: C_12  and  O_13
REMARK    7  A    between atoms: C_12  and  C_14
REMARK    8  A    between atoms: C_12  and  C_20
REMARK                            x       y       z     vdW  Elec       q    Type
REMARK                         _______ _______ _______ _____ _____    ______ ____
ROOT
ATOM      1  C   UNL     1      -8.650  -1.954 125.210  0.00  0.00    +0.000 C 
ENDROOT
BRANCH   1   2
ATOM      2  C   UNL     1      -7.412  -2.310 124.324  0.00  0.00    +0.000 A 
ATOM      3  C   UNL     1      -6.270  -2.950 124.843  0.00  0.00    +0.000 A 
ATOM      4  C   UNL     1      -5.115  -3.147 124.076  0.00  0.00    +0.000 A 
ATOM      5  C   UNL     1      -5.068  -2.740 122.751  0.00  0.00    +0.000 A 
ATOM      6  C   UNL     1      -6.176  -2.139 122.194  0.00  0.00    +0.000 A 
ATOM      7  C   UNL     1      -7.326  -1.974 122.960  0.00  0.00    +0.000 A 
ENDBRANCH   1   2
BRANCH   1   8
ATOM      8  C   UNL     1      -8.564  -2.401 126.700  0.00  0.00    +0.000 A 
ATOM      9  C   UNL     1      -9.150  -3.603 127.152  0.00  0.00    +0.000 A 
ATOM     10  C   UNL     1      -8.913  -4.116 128.431  0.00  0.00    +0.000 A 
ATOM     11  C   UNL     1      -8.210  -3.363 129.354  0.00  0.00    +0.000 A 
ATOM     12  C   UNL     1      -7.776  -2.096 129.001  0.00  0.00    +0.000 A 
ATOM     13  C   UNL     1      -7.952  -1.628 127.699  0.00  0.00    +0.000 A 
ENDBRANCH   1   8
BRANCH   1  14
ATOM     14  C   UNL     1      -8.950  -0.400 125.062  0.00  0.00    +0.000 C 
ATOM     15  O   UNL     1      -9.958   0.196 125.409  0.00  0.00    +0.000 OA
BRANCH  14  16
ATOM     16  O   UNL     1      -7.897   0.307 124.502  0.00  0.00    +0.000 OA
BRANCH  16  23
ATOM     17  C   UNL     1      -6.365   4.861 125.028  0.00  0.00    +0.000 C 
ATOM     18  N   UNL     1      -6.431   3.540 125.797  0.00  0.00    +0.000 N 
ATOM     19  C   UNL     1      -7.165   3.801 127.114  0.00  0.00    +0.000 C 
ATOM     20  C   UNL     1      -5.015   3.018 126.024  0.00  0.00    +0.000 C 
ATOM     21  C   UNL     1      -5.032   1.612 126.619  0.00  0.00    +0.000 C 
ATOM     22  C   UNL     1      -5.813   0.641 125.733  0.00  0.00    +0.000 C 
ATOM     23  C   UNL     1      -7.235   1.140 125.480  0.00  0.00    +0.000 C 
ATOM     24  C   UNL     1      -7.213   2.571 124.927  0.00  0.00    +0.000 C 
ENDBRANCH  16  23
ENDBRANCH  14  16
ENDBRANCH   1  14
BRANCH   1  25
ATOM     25  O   UNL     1      -9.807  -2.655 124.705  0.00  0.00    +0.000 OA
ATOM     26  H   UNL     1      -9.717  -2.733 123.743  0.00  0.00    +0.000 HD
ENDBRANCH   1  25
TORSDOF 6
ENDMDL
MODEL 3
REMARK VINA RESULT:      -8.1      2.190      6.851
REMARK  Name = Mepenzolate
REMARK  8 active torsions:
REMARK  status: ('A' for Active; 'I' for Inactive)
REMARK    1  A    between atoms: C_1  and  N_2
REMARK    2  A    between atoms: N_2  and  C_3
REMARK    3  A    between atoms: C_7  and  O_9
REMARK    4  A    between atoms: O_9  and  C_10
REMARK    5  A    between atoms: C_10  and  C_12
REMARK    6  A    between atoms: C_12  and  O_13
REMARK    7  A    between atoms: C_12  and  C_14
REMARK    8  A    between atoms: C_12  and  C_20
REMARK                            x       y       z     vdW  Elec       q    Type
REMARK                         _______ _______ _______ _____ _____    ______ ____
ROOT
ATOM      1  C   UNL     1      -8.444  -1.849 125.161  0.00  0.00    +0.000 C 
ENDROOT
BRANCH   1   2
ATOM      2  C   UNL     1      -7.152  -2.201 124.354  0.00  0.00    +0.000 A 
ATOM      3  C   UNL     1      -7.007  -1.894 122.987  0.00  0.00    +0.000 A 
ATOM      4  C   UNL     1      -5.905  -2.329 122.241  0.00  0.00    +0.000 A 
ATOM      5  C   UNL     1      -4.890  -3.061 122.840  0.00  0.00    +0.000 A 
ATOM      6  C   UNL     1      -4.977  -3.355 124.183  0.00  0.00    +0.000 A 
ATOM      7  C   UNL     1      -6.063  -2.893 124.918  0.00  0.00    +0.000 A 
ENDBRANCH   1   2
BRANCH   1   8
ATOM      8  C   UNL     1      -8.473  -2.344 126.638  0.00  0.00    +0.000 A 
ATOM      9  C   UNL     1      -9.121  -3.543 127.009  0.00  0.00    +0.000 A 
ATOM     10  C   UNL     1      -8.987  -4.101 128.283  0.00  0.00    +0.000 A 
ATOM     11  C   UNL     1      -8.328  -3.398 129.277  0.00  0.00    +0.000 A 
ATOM     12  C   UNL     1      -7.836  -2.135 128.997  0.00  0.00    +0.000 A 
ATOM     13  C   UNL     1      -7.910  -1.622 127.702  0.00  0.00    +0.000 A 
ENDBRANCH   1   8
BRANCH   1  14
ATOM     14  C   UNL     1      -8.706  -0.286 125.044  0.00  0.00    +0.000 C 
ATOM     15  O   UNL     1      -9.772   0.274 124.841  0.00  0.00    +0.000 OA
BRANCH  14  16
ATOM     16  O   UNL     1      -7.562   0.474 125.238  0.00  0.00    +0.000 OA
BRANCH  16  23
ATOM     17  C   UNL     1      -5.906   2.750 121.309  0.00  0.00    +0.000 C 
ATOM     18  N   UNL     1      -6.819   2.984 122.514  0.00  0.00    +0.000 N 
ATOM     19  C   UNL     1      -8.193   3.405 121.986  0.00  0.00    +0.000 C 
ATOM     20  C   UNL     1      -6.201   4.050 123.415  0.00  0.00    +0.000 C 
ATOM     21  C   UNL     1      -6.976   4.186 124.723  0.00  0.00    +0.000 C 
ATOM     22  C   UNL     1      -7.052   2.852 125.467  0.00  0.00    +0.000 C 
ATOM     23  C   UNL     1      -7.661   1.760 124.588  0.00  0.00    +0.000 C 
ATOM     24  C   UNL     1      -6.908   1.661 123.254  0.00  0.00    +0.000 C 
ENDBRANCH  16  23
ENDBRANCH  14  16
ENDBRANCH   1  14
BRANCH   1  25
ATOM     25  O   UNL     1      -9.573  -2.511 124.553  0.00  0.00    +0.000 OA
ATOM     26  H   UNL     1     -10.111  -2.901 125.259  0.00  0.00    +0.000 HD
ENDBRANCH   1  25
TORSDOF 6
ENDMDL
MODEL 4
REMARK VINA RESULT:      -7.8      6.999      8.154
REMARK  Name = Mepenzolate
REMARK  8 active torsions:
REMARK  status: ('A' for Active; 'I' for Inactive)
REMARK    1  A    between atoms: C_1  and  N_2
REMARK    2  A    between atoms: N_2  and  C_3
REMARK    3  A    between atoms: C_7  and  O_9
REMARK    4  A    between atoms: O_9  and  C_10
REMARK    5  A    between atoms: C_10  and  C_12
REMARK    6  A    between atoms: C_12  and  O_13
REMARK    7  A    between atoms: C_12  and  C_14
REMARK    8  A    between atoms: C_12  and  C_20
REMARK                            x       y       z     vdW  Elec       q    Type
REMARK                         _______ _______ _______ _____ _____    ______ ____
ROOT
ATOM      1  C   UNL     1     -10.647   5.810 131.003  0.00  0.00    +0.000 C 
ENDROOT
BRANCH   1   2
ATOM      2  C   UNL     1      -9.191   6.098 131.495  0.00  0.00    +0.000 A 
ATOM      3  C   UNL     1      -8.270   6.846 130.736  0.00  0.00    +0.000 A 
ATOM      4  C   UNL     1      -6.931   6.988 131.121  0.00  0.00    +0.000 A 
ATOM      5  C   UNL     1      -6.469   6.414 132.296  0.00  0.00    +0.000 A 
ATOM      6  C   UNL     1      -7.345   5.701 133.085  0.00  0.00    +0.000 A 
ATOM      7  C   UNL     1      -8.679   5.591 132.704  0.00  0.00    +0.000 A 
ENDBRANCH   1   2
BRANCH   1   8
ATOM      8  C   UNL     1     -11.294   6.923 130.125  0.00  0.00    +0.000 A 
ATOM      9  C   UNL     1     -12.350   7.729 130.604  0.00  0.00    +0.000 A 
ATOM     10  C   UNL     1     -12.805   8.855 129.912  0.00  0.00    +0.000 A 
ATOM     11  C   UNL     1     -12.325   9.121 128.641  0.00  0.00    +0.000 A 
ATOM     12  C   UNL     1     -11.420   8.246 128.065  0.00  0.00    +0.000 A 
ATOM     13  C   UNL     1     -10.918   7.169 128.796  0.00  0.00    +0.000 A 
ENDBRANCH   1   8
BRANCH   1  14
ATOM     14  C   UNL     1     -10.671   4.390 130.290  0.00  0.00    +0.000 C 
ATOM     15  O   UNL     1     -11.612   3.616 130.212  0.00  0.00    +0.000 OA
BRANCH  14  16
ATOM     16  O   UNL     1      -9.469   4.068 129.678  0.00  0.00    +0.000 OA
BRANCH  16  23
ATOM     17  C   UNL     1      -6.817   1.078 132.397  0.00  0.00    +0.000 C 
ATOM     18  N   UNL     1      -7.799   1.052 131.224  0.00  0.00    +0.000 N 
ATOM     19  C   UNL     1      -8.951   0.116 131.598  0.00  0.00    +0.000 C 
ATOM     20  C   UNL     1      -7.068   0.586 129.967  0.00  0.00    +0.000 C 
ATOM     21  C   UNL     1      -7.953   0.722 128.730  0.00  0.00    +0.000 C 
ATOM     22  C   UNL     1      -8.442   2.159 128.550  0.00  0.00    +0.000 C 
ATOM     23  C   UNL     1      -9.172   2.659 129.796  0.00  0.00    +0.000 C 
ATOM     24  C   UNL     1      -8.296   2.475 131.042  0.00  0.00    +0.000 C 
ENDBRANCH  16  23
ENDBRANCH  14  16
ENDBRANCH   1  14
BRANCH   1  25
ATOM     25  O   UNL     1     -11.522   5.720 132.147  0.00  0.00    +0.000 OA
ATOM     26  H   UNL     1     -12.040   4.904 132.069  0.00  0.00    +0.000 HD
ENDBRANCH   1  25
TORSDOF 6
ENDMDL
MODEL 5
REMARK VINA RESULT:      -7.5      6.530      7.840
REMARK  Name = Mepenzolate
REMARK  8 active torsions:
REMARK  status: ('A' for Active; 'I' for Inactive)
REMARK    1  A    between atoms: C_1  and  N_2
REMARK    2  A    between atoms: N_2  and  C_3
REMARK    3  A    between atoms: C_7  and  O_9
REMARK    4  A    between atoms: O_9  and  C_10
REMARK    5  A    between atoms: C_10  and  C_12
REMARK    6  A    between atoms: C_12  and  O_13
REMARK    7  A    between atoms: C_12  and  C_14
REMARK    8  A    between atoms: C_12  and  C_20
REMARK                            x       y       z     vdW  Elec       q    Type
REMARK                         _______ _______ _______ _____ _____    ______ ____
ROOT
ATOM      1  C   UNL     1      -9.889   5.039 130.423  0.00  0.00    +0.000 C 
ENDROOT
BRANCH   1   2
ATOM      2  C   UNL     1      -9.393   4.815 131.889  0.00  0.00    +0.000 A 
ATOM      3  C   UNL     1      -8.900   5.865 132.689  0.00  0.00    +0.000 A 
ATOM      4  C   UNL     1      -8.336   5.636 133.950  0.00  0.00    +0.000 A 
ATOM      5  C   UNL     1      -8.272   4.353 134.473  0.00  0.00    +0.000 A 
ATOM      6  C   UNL     1      -8.772   3.302 133.737  0.00  0.00    +0.000 A 
ATOM      7  C   UNL     1      -9.355   3.547 132.498  0.00  0.00    +0.000 A 
ENDBRANCH   1   2
BRANCH   1   8
ATOM      8  C   UNL     1     -10.730   6.329 130.185  0.00  0.00    +0.000 A 
ATOM      9  C   UNL     1     -10.340   7.310 129.247  0.00  0.00    +0.000 A 
ATOM     10  C   UNL     1     -11.177   8.367 128.878  0.00  0.00    +0.000 A 
ATOM     11  C   UNL     1     -12.369   8.568 129.552  0.00  0.00    +0.000 A 
ATOM     12  C   UNL     1     -12.698   7.729 130.604  0.00  0.00    +0.000 A 
ATOM     13  C   UNL     1     -11.891   6.634 130.911  0.00  0.00    +0.000 A 
ENDBRANCH   1   8
BRANCH   1  14
ATOM     14  C   UNL     1      -8.642   4.943 129.444  0.00  0.00    +0.000 C 
ATOM     15  O   UNL     1      -7.539   5.444 129.597  0.00  0.00    +0.000 OA
BRANCH  14  16
ATOM     16  O   UNL     1      -8.887   4.162 128.325  0.00  0.00    +0.000 OA
BRANCH  16  23
ATOM     17  C   UNL     1      -6.945   1.320 124.931  0.00  0.00    +0.000 C 
ATOM     18  N   UNL     1      -6.870   1.585 126.435  0.00  0.00    +0.000 N 
ATOM     19  C   UNL     1      -5.412   1.899 126.782  0.00  0.00    +0.000 C 
ATOM     20  C   UNL     1      -7.387   0.363 127.189  0.00  0.00    +0.000 C 
ATOM     21  C   UNL     1      -7.509   0.645 128.684  0.00  0.00    +0.000 C 
ATOM     22  C   UNL     1      -8.414   1.848 128.952  0.00  0.00    +0.000 C 
ATOM     23  C   UNL     1      -7.927   3.088 128.204  0.00  0.00    +0.000 C 
ATOM     24  C   UNL     1      -7.760   2.785 126.710  0.00  0.00    +0.000 C 
ENDBRANCH  16  23
ENDBRANCH  14  16
ENDBRANCH   1  14
BRANCH   1  25
ATOM     25  O   UNL     1     -10.790   3.970 130.063  0.00  0.00    +0.000 OA
ATOM     26  H   UNL     1     -10.258   3.213 129.770  0.00  0.00    +0.000 HD
ENDBRANCH   1  25
TORSDOF 6
ENDMDL
MODEL 6
REMARK VINA RESULT:      -7.5      7.085      8.976
REMARK  Name = Mepenzolate
REMARK  8 active torsions:
REMARK  status: ('A' for Active; 'I' for Inactive)
REMARK    1  A    between atoms: C_1  and  N_2
REMARK    2  A    between atoms: N_2  and  C_3
REMARK    3  A    between atoms: C_7  and  O_9
REMARK    4  A    between atoms: O_9  and  C_10
REMARK    5  A    between atoms: C_10  and  C_12
REMARK    6  A    between atoms: C_12  and  O_13
REMARK    7  A    between atoms: C_12  and  C_14
REMARK    8  A    between atoms: C_12  and  C_20
REMARK                            x       y       z     vdW  Elec       q    Type
REMARK                         _______ _______ _______ _____ _____    ______ ____
ROOT
ATOM      1  C   UNL     1      -9.472   5.511 130.718  0.00  0.00    +0.000 C 
ENDROOT
BRANCH   1   2
ATOM      2  C   UNL     1     -10.616   6.572 130.615  0.00  0.00    +0.000 A 
ATOM      3  C   UNL     1     -11.684   6.624 131.532  0.00  0.00    +0.000 A 
ATOM      4  C   UNL     1     -12.772   7.489 131.358  0.00  0.00    +0.000 A 
ATOM      5  C   UNL     1     -12.818   8.357 130.277  0.00  0.00    +0.000 A 
ATOM      6  C   UNL     1     -11.778   8.361 129.374  0.00  0.00    +0.000 A 
ATOM      7  C   UNL     1     -10.692   7.516 129.574  0.00  0.00    +0.000 A 
ENDBRANCH   1   2
BRANCH   1   8
ATOM      8  C   UNL     1      -8.959   5.212 132.158  0.00  0.00    +0.000 A 
ATOM      9  C   UNL     1      -9.463   4.135 132.920  0.00  0.00    +0.000 A 
ATOM     10  C   UNL     1      -8.878   3.731 134.124  0.00  0.00    +0.000 A 
ATOM     11  C   UNL     1      -7.866   4.491 134.685  0.00  0.00    +0.000 A 
ATOM     12  C   UNL     1      -7.470   5.658 134.054  0.00  0.00    +0.000 A 
ATOM     13  C   UNL     1      -8.009   6.008 132.817  0.00  0.00    +0.000 A 
ENDBRANCH   1   8
BRANCH   1  14
ATOM     14  C   UNL     1      -9.929   4.195 129.955  0.00  0.00    +0.000 C 
ATOM     15  O   UNL     1     -11.002   3.620 130.046  0.00  0.00    +0.000 OA
BRANCH  14  16
ATOM     16  O   UNL     1      -8.970   3.715 129.076  0.00  0.00    +0.000 OA
BRANCH  16  23
ATOM     17  C   UNL     1      -6.157   0.675 131.568  0.00  0.00    +0.000 C 
ATOM     18  N   UNL     1      -7.303   0.664 130.555  0.00  0.00    +0.000 N 
ATOM     19  C   UNL     1      -8.449  -0.156 131.153  0.00  0.00    +0.000 C 
ATOM     20  C   UNL     1      -6.805   0.074 129.238  0.00  0.00    +0.000 C 
ATOM     21  C   UNL     1      -7.853   0.213 128.137  0.00  0.00    +0.000 C 
ATOM     22  C   UNL     1      -8.261   1.673 127.937  0.00  0.00    +0.000 C 
ATOM     23  C   UNL     1      -8.758   2.295 129.241  0.00  0.00    +0.000 C 
ATOM     24  C   UNL     1      -7.720   2.110 130.356  0.00  0.00    +0.000 C 
ENDBRANCH  16  23
ENDBRANCH  14  16
ENDBRANCH   1  14
BRANCH   1  25
ATOM     25  O   UNL     1      -8.304   6.011 130.032  0.00  0.00    +0.000 OA
ATOM     26  H   UNL     1      -8.534   6.859 129.622  0.00  0.00    +0.000 HD
ENDBRANCH   1  25
TORSDOF 6
ENDMDL
MODEL 7
REMARK VINA RESULT:      -7.5      3.501      7.122
REMARK  Name = Mepenzolate
REMARK  8 active torsions:
REMARK  status: ('A' for Active; 'I' for Inactive)
REMARK    1  A    between atoms: C_1  and  N_2
REMARK    2  A    between atoms: N_2  and  C_3
REMARK    3  A    between atoms: C_7  and  O_9
REMARK    4  A    between atoms: O_9  and  C_10
REMARK    5  A    between atoms: C_10  and  C_12
REMARK    6  A    between atoms: C_12  and  O_13
REMARK    7  A    between atoms: C_12  and  C_14
REMARK    8  A    between atoms: C_12  and  C_20
REMARK                            x       y       z     vdW  Elec       q    Type
REMARK                         _______ _______ _______ _____ _____    ______ ____
ROOT
ATOM      1  C   UNL     1      -7.947  -1.158 125.630  0.00  0.00    +0.000 C 
ENDROOT
BRANCH   1   2
ATOM      2  C   UNL     1      -6.982  -1.828 124.598  0.00  0.00    +0.000 A 
ATOM      3  C   UNL     1      -6.003  -2.767 124.978  0.00  0.00    +0.000 A 
ATOM      4  C   UNL     1      -5.057  -3.262 124.072  0.00  0.00    +0.000 A 
ATOM      5  C   UNL     1      -5.074  -2.862 122.743  0.00  0.00    +0.000 A 
ATOM      6  C   UNL     1      -6.036  -1.970 122.323  0.00  0.00    +0.000 A 
ATOM      7  C   UNL     1      -6.986  -1.508 123.228  0.00  0.00    +0.000 A 
ENDBRANCH   1   2
BRANCH   1   8
ATOM      8  C   UNL     1      -8.188  -1.957 126.946  0.00  0.00    +0.000 A 
ATOM      9  C   UNL     1      -8.899  -3.177 126.956  0.00  0.00    +0.000 A 
ATOM     10  C   UNL     1      -8.952  -4.002 128.084  0.00  0.00    +0.000 A 
ATOM     11  C   UNL     1      -8.427  -3.559 129.285  0.00  0.00    +0.000 A 
ATOM     12  C   UNL     1      -7.882  -2.288 129.356  0.00  0.00    +0.000 A 
ATOM     13  C   UNL     1      -7.768  -1.506 128.207  0.00  0.00    +0.000 A 
ENDBRANCH   1   8
BRANCH   1  14
ATOM     14  C   UNL     1      -7.445   0.324 125.908  0.00  0.00    +0.000 C 
ATOM     15  O   UNL     1      -8.129   1.327 126.033  0.00  0.00    +0.000 OA
BRANCH  14  16
ATOM     16  O   UNL     1      -6.068   0.415 126.049  0.00  0.00    +0.000 OA
BRANCH  16  23
ATOM     17  C   UNL     1      -2.433   3.564 126.529  0.00  0.00    +0.000 C 
ATOM     18  N   UNL     1      -3.797   3.231 127.136  0.00  0.00    +0.000 N 
ATOM     19  C   UNL     1      -4.666   4.488 127.052  0.00  0.00    +0.000 C 
ATOM     20  C   UNL     1      -3.606   2.763 128.577  0.00  0.00    +0.000 C 
ATOM     21  C   UNL     1      -4.914   2.240 129.167  0.00  0.00    +0.000 C 
ATOM     22  C   UNL     1      -5.494   1.107 128.320  0.00  0.00    +0.000 C 
ATOM     23  C   UNL     1      -5.690   1.543 126.868  0.00  0.00    +0.000 C 
ATOM     24  C   UNL     1      -4.385   2.111 126.296  0.00  0.00    +0.000 C 
ENDBRANCH  16  23
ENDBRANCH  14  16
ENDBRANCH   1  14
BRANCH   1  25
ATOM     25  O   UNL     1      -9.262  -1.053 125.045  0.00  0.00    +0.000 OA
ATOM     26  H   UNL     1      -9.163  -0.735 124.134  0.00  0.00    +0.000 HD
ENDBRANCH   1  25
TORSDOF 6
ENDMDL
MODEL 8
REMARK VINA RESULT:      -7.5      7.734      9.547
REMARK  Name = Mepenzolate
REMARK  8 active torsions:
REMARK  status: ('A' for Active; 'I' for Inactive)
REMARK    1  A    between atoms: C_1  and  N_2
REMARK    2  A    between atoms: N_2  and  C_3
REMARK    3  A    between atoms: C_7  and  O_9
REMARK    4  A    between atoms: O_9  and  C_10
REMARK    5  A    between atoms: C_10  and  C_12
REMARK    6  A    between atoms: C_12  and  O_13
REMARK    7  A    between atoms: C_12  and  C_14
REMARK    8  A    between atoms: C_12  and  C_20
REMARK                            x       y       z     vdW  Elec       q    Type
REMARK                         _______ _______ _______ _____ _____    ______ ____
ROOT
ATOM      1  C   UNL     1      -9.343   5.626 130.073  0.00  0.00    +0.000 C 
ENDROOT
BRANCH   1   2
ATOM      2  C   UNL     1      -9.463   4.454 131.101  0.00  0.00    +0.000 A 
ATOM      3  C   UNL     1      -9.014   4.566 132.431  0.00  0.00    +0.000 A 
ATOM      4  C   UNL     1      -9.003   3.473 133.306  0.00  0.00    +0.000 A 
ATOM      5  C   UNL     1      -9.471   2.233 132.895  0.00  0.00    +0.000 A 
ATOM      6  C   UNL     1      -9.949   2.089 131.611  0.00  0.00    +0.000 A 
ATOM      7  C   UNL     1      -9.979   3.190 130.761  0.00  0.00    +0.000 A 
ENDBRANCH   1   2
BRANCH   1   8
ATOM      8  C   UNL     1     -10.507   6.662 130.092  0.00  0.00    +0.000 A 
ATOM      9  C   UNL     1     -10.590   7.707 129.145  0.00  0.00    +0.000 A 
ATOM     10  C   UNL     1     -11.723   8.517 129.024  0.00  0.00    +0.000 A 
ATOM     11  C   UNL     1     -12.747   8.411 129.949  0.00  0.00    +0.000 A 
ATOM     12  C   UNL     1     -12.616   7.520 131.001  0.00  0.00    +0.000 A 
ATOM     13  C   UNL     1     -11.516   6.665 131.067  0.00  0.00    +0.000 A 
ENDBRANCH   1   8
BRANCH   1  14
ATOM     14  C   UNL     1      -7.921   6.314 130.249  0.00  0.00    +0.000 C 
ATOM     15  O   UNL     1      -7.679   7.393 130.766  0.00  0.00    +0.000 OA
BRANCH  14  16
ATOM     16  O   UNL     1      -6.877   5.535 129.774  0.00  0.00    +0.000 OA
BRANCH  16  23
ATOM     17  C   UNL     1      -2.134   6.339 129.307  0.00  0.00    +0.000 C 
ATOM     18  N   UNL     1      -3.193   6.109 130.386  0.00  0.00    +0.000 N 
ATOM     19  C   UNL     1      -3.138   7.292 131.356  0.00  0.00    +0.000 C 
ATOM     20  C   UNL     1      -2.917   4.781 131.087  0.00  0.00    +0.000 C 
ATOM     21  C   UNL     1      -4.050   4.414 132.042  0.00  0.00    +0.000 C 
ATOM     22  C   UNL     1      -5.394   4.355 131.316  0.00  0.00    +0.000 C 
ATOM     23  C   UNL     1      -5.696   5.668 130.597  0.00  0.00    +0.000 C 
ATOM     24  C   UNL     1      -4.533   6.056 129.674  0.00  0.00    +0.000 C 
ENDBRANCH  16  23
ENDBRANCH  14  16
ENDBRANCH   1  14
BRANCH   1  25
ATOM     25  O   UNL     1      -9.384   5.085 128.735  0.00  0.00    +0.000 OA
ATOM     26  H   UNL     1      -8.477   4.869 128.468  0.00  0.00    +0.000 HD
ENDBRANCH   1  25
TORSDOF 6
ENDMDL
MODEL 9
REMARK VINA RESULT:      -7.4      2.134      5.901
REMARK  Name = Mepenzolate
REMARK  8 active torsions:
REMARK  status: ('A' for Active; 'I' for Inactive)
REMARK    1  A    between atoms: C_1  and  N_2
REMARK    2  A    between atoms: N_2  and  C_3
REMARK    3  A    between atoms: C_7  and  O_9
REMARK    4  A    between atoms: O_9  and  C_10
REMARK    5  A    between atoms: C_10  and  C_12
REMARK    6  A    between atoms: C_12  and  O_13
REMARK    7  A    between atoms: C_12  and  C_14
REMARK    8  A    between atoms: C_12  and  C_20
REMARK                            x       y       z     vdW  Elec       q    Type
REMARK                         _______ _______ _______ _____ _____    ______ ____
ROOT
ATOM      1  C   UNL     1      -8.264   2.510 123.700  0.00  0.00    +0.000 C 
ENDROOT
BRANCH   1   2
ATOM      2  C   UNL     1      -7.792   3.146 122.352  0.00  0.00    +0.000 A 
ATOM      3  C   UNL     1      -8.694   3.516 121.335  0.00  0.00    +0.000 A 
ATOM      4  C   UNL     1      -8.257   3.961 120.081  0.00  0.00    +0.000 A 
ATOM      5  C   UNL     1      -6.903   4.084 119.807  0.00  0.00    +0.000 A 
ATOM      6  C   UNL     1      -5.988   3.764 120.785  0.00  0.00    +0.000 A 
ATOM      7  C   UNL     1      -6.436   3.349 122.035  0.00  0.00    +0.000 A 
ENDBRANCH   1   2
BRANCH   1   8
ATOM      8  C   UNL     1      -7.757   1.063 123.976  0.00  0.00    +0.000 A 
ATOM      9  C   UNL     1      -8.000   0.410 125.205  0.00  0.00    +0.000 A 
ATOM     10  C   UNL     1      -7.731  -0.949 125.396  0.00  0.00    +0.000 A 
ATOM     11  C   UNL     1      -7.063  -1.662 124.416  0.00  0.00    +0.000 A 
ATOM     12  C   UNL     1      -6.646  -1.006 123.270  0.00  0.00    +0.000 A 
ATOM     13  C   UNL     1      -6.988   0.330 123.059  0.00  0.00    +0.000 A 
ENDBRANCH   1   8
BRANCH   1  14
ATOM     14  C   UNL     1      -7.911   3.509 124.885  0.00  0.00    +0.000 C 
ATOM     15  O   UNL     1      -8.662   3.923 125.754  0.00  0.00    +0.000 OA
BRANCH  14  16
ATOM     16  O   UNL     1      -6.577   3.888 124.898  0.00  0.00    +0.000 OA
BRANCH  16  23
ATOM     17  C   UNL     1      -3.407   5.916 127.931  0.00  0.00    +0.000 C 
ATOM     18  N   UNL     1      -4.309   4.686 127.812  0.00  0.00    +0.000 N 
ATOM     19  C   UNL     1      -5.224   4.655 129.039  0.00  0.00    +0.000 C 
ATOM     20  C   UNL     1      -3.442   3.433 127.714  0.00  0.00    +0.000 C 
ATOM     21  C   UNL     1      -4.285   2.199 127.404  0.00  0.00    +0.000 C 
ATOM     22  C   UNL     1      -5.089   2.382 126.117  0.00  0.00    +0.000 C 
ATOM     23  C   UNL     1      -5.963   3.634 126.181  0.00  0.00    +0.000 C 
ATOM     24  C   UNL     1      -5.118   4.863 126.539  0.00  0.00    +0.000 C 
ENDBRANCH  16  23
ENDBRANCH  14  16
ENDBRANCH   1  14
BRANCH   1  25
ATOM     25  O   UNL     1      -9.701   2.374 123.679  0.00  0.00    +0.000 OA
ATOM     26  H   UNL     1     -10.054   2.772 124.490  0.00  0.00    +0.000 HD
ENDBRANCH   1  25
TORSDOF 6
ENDMDL
