MODEL 1
REMARK VINA RESULT:      -5.8      0.000      0.000
REMARK  Name = Mephenesin
REMARK  7 active torsions:
REMARK  status: ('A' for Active; 'I' for Inactive)
REMARK    1  A    between atoms: C_1  and  C_2
REMARK    2  A    between atoms: C_7  and  O_8
REMARK    3  A    between atoms: O_8  and  C_9
REMARK    4  A    between atoms: C_9  and  C_10
REMARK    5  A    between atoms: C_10  and  O_11
REMARK    6  A    between atoms: C_10  and  C_12
REMARK    7  A    between atoms: C_12  and  O_13
REMARK                            x       y       z     vdW  Elec       q    Type
REMARK                         _______ _______ _______ _____ _____    ______ ____
ROOT
ATOM      1  O   UNL     1      -8.861   3.025 121.719  0.00  0.00    +0.000 OA
ENDROOT
BRANCH   1   8
ATOM      2  C   UNL     1      -9.216   4.288 118.824  0.00  0.00    +0.000 C 
ATOM      3  C   UNL     1      -7.980   4.215 119.678  0.00  0.00    +0.000 A 
ATOM      4  C   UNL     1      -6.821   4.778 119.102  0.00  0.00    +0.000 A 
ATOM      5  C   UNL     1      -5.597   4.774 119.760  0.00  0.00    +0.000 A 
ATOM      6  C   UNL     1      -5.502   4.207 121.024  0.00  0.00    +0.000 A 
ATOM      7  C   UNL     1      -6.638   3.649 121.618  0.00  0.00    +0.000 A 
ATOM      8  C   UNL     1      -7.883   3.638 120.964  0.00  0.00    +0.000 A 
ENDBRANCH   1   8
BRANCH   1   9
ATOM      9  C   UNL     1      -8.543   2.717 123.068  0.00  0.00    +0.000 C 
BRANCH   9  10
ATOM     10  C   UNL     1      -9.334   1.549 123.656  0.00  0.00    +0.000 C 
BRANCH  10  11
ATOM     11  O   UNL     1     -10.311   2.019 124.588  0.00  0.00    +0.000 OA
ATOM     12  H   UNL     1     -11.189   1.754 124.265  0.00  0.00    +0.000 HD
ENDBRANCH  10  11
BRANCH  10  13
ATOM     13  C   UNL     1     -10.030   0.818 122.488  0.00  0.00    +0.000 C 
BRANCH  13  14
ATOM     14  O   UNL     1     -11.402   0.563 122.754  0.00  0.00    +0.000 OA
ATOM     15  H   UNL     1     -11.504   0.478 123.717  0.00  0.00    +0.000 HD
ENDBRANCH  13  14
ENDBRANCH  10  13
ENDBRANCH   9  10
ENDBRANCH   1   9
TORSDOF 6
ENDMDL
MODEL 2
REMARK VINA RESULT:      -5.6      8.366     10.385
REMARK  Name = Mephenesin
REMARK  7 active torsions:
REMARK  status: ('A' for Active; 'I' for Inactive)
REMARK    1  A    between atoms: C_1  and  C_2
REMARK    2  A    between atoms: C_7  and  O_8
REMARK    3  A    between atoms: O_8  and  C_9
REMARK    4  A    between atoms: C_9  and  C_10
REMARK    5  A    between atoms: C_10  and  O_11
REMARK    6  A    between atoms: C_10  and  C_12
REMARK    7  A    between atoms: C_12  and  O_13
REMARK                            x       y       z     vdW  Elec       q    Type
REMARK                         _______ _______ _______ _____ _____    ______ ____
ROOT
ATOM      1  O   UNL     1      -9.177   7.718 129.495  0.00  0.00    +0.000 OA
ENDROOT
BRANCH   1   8
ATOM      2  C   UNL     1      -6.421   7.060 130.935  0.00  0.00    +0.000 C 
ATOM      3  C   UNL     1      -7.818   6.702 131.361  0.00  0.00    +0.000 A 
ATOM      4  C   UNL     1      -7.908   5.964 132.561  0.00  0.00    +0.000 A 
ATOM      5  C   UNL     1      -9.128   5.545 133.076  0.00  0.00    +0.000 A 
ATOM      6  C   UNL     1     -10.300   5.862 132.404  0.00  0.00    +0.000 A 
ATOM      7  C   UNL     1     -10.238   6.598 131.216  0.00  0.00    +0.000 A 
ATOM      8  C   UNL     1      -9.012   7.024 130.676  0.00  0.00    +0.000 A 
ENDBRANCH   1   8
BRANCH   1   9
ATOM      9  C   UNL     1     -10.502   7.860 129.006  0.00  0.00    +0.000 C 
BRANCH   9  10
ATOM     10  C   UNL     1     -10.647   7.660 127.498  0.00  0.00    +0.000 C 
BRANCH  10  11
ATOM     11  O   UNL     1      -9.868   6.545 127.059  0.00  0.00    +0.000 OA
ATOM     12  H   UNL     1     -10.468   5.791 126.925  0.00  0.00    +0.000 HD
ENDBRANCH  10  11
BRANCH  10  13
ATOM     13  C   UNL     1     -12.140   7.409 127.199  0.00  0.00    +0.000 C 
BRANCH  13  14
ATOM     14  O   UNL     1     -12.329   6.576 126.064  0.00  0.00    +0.000 OA
ATOM     15  H   UNL     1     -13.060   6.950 125.542  0.00  0.00    +0.000 HD
ENDBRANCH  13  14
ENDBRANCH  10  13
ENDBRANCH   9  10
ENDBRANCH   1   9
TORSDOF 6
ENDMDL
MODEL 3
REMARK VINA RESULT:      -5.5      8.064      9.728
REMARK  Name = Mephenesin
REMARK  7 active torsions:
REMARK  status: ('A' for Active; 'I' for Inactive)
REMARK    1  A    between atoms: C_1  and  C_2
REMARK    2  A    between atoms: C_7  and  O_8
REMARK    3  A    between atoms: O_8  and  C_9
REMARK    4  A    between atoms: C_9  and  C_10
REMARK    5  A    between atoms: C_10  and  O_11
REMARK    6  A    between atoms: C_10  and  C_12
REMARK    7  A    between atoms: C_12  and  O_13
REMARK                            x       y       z     vdW  Elec       q    Type
REMARK                         _______ _______ _______ _____ _____    ______ ____
ROOT
ATOM      1  O   UNL     1     -11.780   5.360 129.317  0.00  0.00    +0.000 OA
ENDROOT
BRANCH   1   8
ATOM      2  C   UNL     1     -12.184   7.119 126.702  0.00  0.00    +0.000 C 
ATOM      3  C   UNL     1     -12.384   7.508 128.140  0.00  0.00    +0.000 A 
ATOM      4  C   UNL     1     -12.796   8.841 128.349  0.00  0.00    +0.000 A 
ATOM      5  C   UNL     1     -13.006   9.354 129.623  0.00  0.00    +0.000 A 
ATOM      6  C   UNL     1     -12.814   8.540 130.730  0.00  0.00    +0.000 A 
ATOM      7  C   UNL     1     -12.411   7.212 130.549  0.00  0.00    +0.000 A 
ATOM      8  C   UNL     1     -12.187   6.678 129.268  0.00  0.00    +0.000 A 
ENDBRANCH   1   8
BRANCH   1   9
ATOM      9  C   UNL     1     -11.164   4.917 130.517  0.00  0.00    +0.000 C 
BRANCH   9  10
ATOM     10  C   UNL     1      -9.799   4.256 130.323  0.00  0.00    +0.000 C 
BRANCH  10  11
ATOM     11  O   UNL     1      -9.904   3.124 129.457  0.00  0.00    +0.000 OA
ATOM     12  H   UNL     1     -10.114   3.445 128.563  0.00  0.00    +0.000 HD
ENDBRANCH  10  11
BRANCH  10  13
ATOM     13  C   UNL     1      -8.853   5.307 129.703  0.00  0.00    +0.000 C 
BRANCH  13  14
ATOM     14  O   UNL     1      -9.049   5.447 128.303  0.00  0.00    +0.000 OA
ATOM     15  H   UNL     1      -8.178   5.605 127.899  0.00  0.00    +0.000 HD
ENDBRANCH  13  14
ENDBRANCH  10  13
ENDBRANCH   9  10
ENDBRANCH   1   9
TORSDOF 6
ENDMDL
MODEL 4
REMARK VINA RESULT:      -5.5      9.261     10.847
REMARK  Name = Mephenesin
REMARK  7 active torsions:
REMARK  status: ('A' for Active; 'I' for Inactive)
REMARK    1  A    between atoms: C_1  and  C_2
REMARK    2  A    between atoms: C_7  and  O_8
REMARK    3  A    between atoms: O_8  and  C_9
REMARK    4  A    between atoms: C_9  and  C_10
REMARK    5  A    between atoms: C_10  and  O_11
REMARK    6  A    between atoms: C_10  and  C_12
REMARK    7  A    between atoms: C_12  and  O_13
REMARK                            x       y       z     vdW  Elec       q    Type
REMARK                         _______ _______ _______ _____ _____    ______ ____
ROOT
ATOM      1  O   UNL     1     -12.386   6.520 130.469  0.00  0.00    +0.000 OA
ENDROOT
BRANCH   1   8
ATOM      2  C   UNL     1     -13.168   6.979 127.423  0.00  0.00    +0.000 C 
ATOM      3  C   UNL     1     -13.159   7.969 128.555  0.00  0.00    +0.000 A 
ATOM      4  C   UNL     1     -13.540   9.282 128.205  0.00  0.00    +0.000 A 
ATOM      5  C   UNL     1     -13.565  10.312 129.137  0.00  0.00    +0.000 A 
ATOM      6  C   UNL     1     -13.213  10.053 130.454  0.00  0.00    +0.000 A 
ATOM      7  C   UNL     1     -12.837   8.759 130.827  0.00  0.00    +0.000 A 
ATOM      8  C   UNL     1     -12.799   7.705 129.896  0.00  0.00    +0.000 A 
ENDBRANCH   1   8
BRANCH   1   9
ATOM      9  C   UNL     1     -11.781   6.595 131.751  0.00  0.00    +0.000 C 
BRANCH   9  10
ATOM     10  C   UNL     1     -10.421   5.906 131.853  0.00  0.00    +0.000 C 
BRANCH  10  11
ATOM     11  O   UNL     1     -10.310   5.186 133.083  0.00  0.00    +0.000 OA
ATOM     12  H   UNL     1      -9.391   5.255 133.392  0.00  0.00    +0.000 HD
ENDBRANCH  10  11
BRANCH  10  13
ATOM     13  C   UNL     1     -10.298   4.933 130.661  0.00  0.00    +0.000 C 
BRANCH  13  14
ATOM     14  O   UNL     1     -11.229   3.862 130.741  0.00  0.00    +0.000 OA
ATOM     15  H   UNL     1     -11.797   3.907 129.953  0.00  0.00    +0.000 HD
ENDBRANCH  13  14
ENDBRANCH  10  13
ENDBRANCH   9  10
ENDBRANCH   1   9
TORSDOF 6
ENDMDL
MODEL 5
REMARK VINA RESULT:      -5.4      8.807     10.547
REMARK  Name = Mephenesin
REMARK  7 active torsions:
REMARK  status: ('A' for Active; 'I' for Inactive)
REMARK    1  A    between atoms: C_1  and  C_2
REMARK    2  A    between atoms: C_7  and  O_8
REMARK    3  A    between atoms: O_8  and  C_9
REMARK    4  A    between atoms: C_9  and  C_10
REMARK    5  A    between atoms: C_10  and  O_11
REMARK    6  A    between atoms: C_10  and  C_12
REMARK    7  A    between atoms: C_12  and  O_13
REMARK                            x       y       z     vdW  Elec       q    Type
REMARK                         _______ _______ _______ _____ _____    ______ ____
ROOT
ATOM      1  O   UNL     1      -9.875   7.227 130.467  0.00  0.00    +0.000 OA
ENDROOT
BRANCH   1   8
ATOM      2  C   UNL     1     -12.932   7.483 131.297  0.00  0.00    +0.000 C 
ATOM      3  C   UNL     1     -12.326   7.455 129.921  0.00  0.00    +0.000 A 
ATOM      4  C   UNL     1     -13.251   7.544 128.858  0.00  0.00    +0.000 A 
ATOM      5  C   UNL     1     -12.846   7.515 127.529  0.00  0.00    +0.000 A 
ATOM      6  C   UNL     1     -11.497   7.402 127.226  0.00  0.00    +0.000 A 
ATOM      7  C   UNL     1     -10.561   7.318 128.262  0.00  0.00    +0.000 A 
ATOM      8  C   UNL     1     -10.952   7.338 129.612  0.00  0.00    +0.000 A 
ENDBRANCH   1   8
BRANCH   1   9
ATOM      9  C   UNL     1      -9.506   5.919 130.879  0.00  0.00    +0.000 C 
BRANCH   9  10
ATOM     10  C   UNL     1      -9.204   5.785 132.371  0.00  0.00    +0.000 C 
BRANCH  10  11
ATOM     11  O   UNL     1     -10.178   6.485 133.149  0.00  0.00    +0.000 OA
ATOM     12  H   UNL     1     -10.015   6.287 134.087  0.00  0.00    +0.000 HD
ENDBRANCH  10  11
BRANCH  10  13
ATOM     13  C   UNL     1      -9.232   4.282 132.722  0.00  0.00    +0.000 C 
BRANCH  13  14
ATOM     14  O   UNL     1      -9.876   4.031 133.963  0.00  0.00    +0.000 OA
ATOM     15  H   UNL     1     -10.033   3.073 134.025  0.00  0.00    +0.000 HD
ENDBRANCH  13  14
ENDBRANCH  10  13
ENDBRANCH   9  10
ENDBRANCH   1   9
TORSDOF 6
ENDMDL
MODEL 6
REMARK VINA RESULT:      -5.4      9.695     11.040
REMARK  Name = Mephenesin
REMARK  7 active torsions:
REMARK  status: ('A' for Active; 'I' for Inactive)
REMARK    1  A    between atoms: C_1  and  C_2
REMARK    2  A    between atoms: C_7  and  O_8
REMARK    3  A    between atoms: O_8  and  C_9
REMARK    4  A    between atoms: C_9  and  C_10
REMARK    5  A    between atoms: C_10  and  O_11
REMARK    6  A    between atoms: C_10  and  C_12
REMARK    7  A    between atoms: C_12  and  O_13
REMARK                            x       y       z     vdW  Elec       q    Type
REMARK                         _______ _______ _______ _____ _____    ______ ____
ROOT
ATOM      1  O   UNL     1     -12.258   7.410 131.403  0.00  0.00    +0.000 OA
ENDROOT
BRANCH   1   8
ATOM      2  C   UNL     1     -13.121  10.310 130.434  0.00  0.00    +0.000 C 
ATOM      3  C   UNL     1     -13.110   9.021 129.660  0.00  0.00    +0.000 A 
ATOM      4  C   UNL     1     -13.555   9.120 128.324  0.00  0.00    +0.000 A 
ATOM      5  C   UNL     1     -13.617   8.013 127.487  0.00  0.00    +0.000 A 
ATOM      6  C   UNL     1     -13.228   6.770 127.965  0.00  0.00    +0.000 A 
ATOM      7  C   UNL     1     -12.777   6.647 129.283  0.00  0.00    +0.000 A 
ATOM      8  C   UNL     1     -12.713   7.755 130.147  0.00  0.00    +0.000 A 
ENDBRANCH   1   8
BRANCH   1   9
ATOM      9  C   UNL     1     -11.582   6.168 131.529  0.00  0.00    +0.000 C 
BRANCH   9  10
ATOM     10  C   UNL     1     -10.336   6.211 132.413  0.00  0.00    +0.000 C 
BRANCH  10  11
ATOM     11  O   UNL     1     -10.220   5.011 133.181  0.00  0.00    +0.000 OA
ATOM     12  H   UNL     1      -9.813   5.236 134.035  0.00  0.00    +0.000 HD
ENDBRANCH  10  11
BRANCH  10  13
ATOM     13  C   UNL     1      -9.109   6.364 131.488  0.00  0.00    +0.000 C 
BRANCH  13  14
ATOM     14  O   UNL     1      -9.340   7.295 130.439  0.00  0.00    +0.000 OA
ATOM     15  H   UNL     1      -9.908   6.860 129.780  0.00  0.00    +0.000 HD
ENDBRANCH  13  14
ENDBRANCH  10  13
ENDBRANCH   9  10
ENDBRANCH   1   9
TORSDOF 6
ENDMDL
MODEL 7
REMARK VINA RESULT:      -5.4      3.989      6.196
REMARK  Name = Mephenesin
REMARK  7 active torsions:
REMARK  status: ('A' for Active; 'I' for Inactive)
REMARK    1  A    between atoms: C_1  and  C_2
REMARK    2  A    between atoms: C_7  and  O_8
REMARK    3  A    between atoms: O_8  and  C_9
REMARK    4  A    between atoms: C_9  and  C_10
REMARK    5  A    between atoms: C_10  and  O_11
REMARK    6  A    between atoms: C_10  and  C_12
REMARK    7  A    between atoms: C_12  and  O_13
REMARK                            x       y       z     vdW  Elec       q    Type
REMARK                         _______ _______ _______ _____ _____    ______ ____
ROOT
ATOM      1  O   UNL     1      -9.291  -0.957 124.401  0.00  0.00    +0.000 OA
ENDROOT
BRANCH   1   8
ATOM      2  C   UNL     1      -8.480  -3.661 125.861  0.00  0.00    +0.000 C 
ATOM      3  C   UNL     1      -7.753  -2.921 124.772  0.00  0.00    +0.000 A 
ATOM      4  C   UNL     1      -6.540  -3.510 124.354  0.00  0.00    +0.000 A 
ATOM      5  C   UNL     1      -5.746  -2.937 123.368  0.00  0.00    +0.000 A 
ATOM      6  C   UNL     1      -6.151  -1.755 122.765  0.00  0.00    +0.000 A 
ATOM      7  C   UNL     1      -7.352  -1.155 123.157  0.00  0.00    +0.000 A 
ATOM      8  C   UNL     1      -8.165  -1.717 124.158  0.00  0.00    +0.000 A 
ENDBRANCH   1   8
BRANCH   1   9
ATOM      9  C   UNL     1      -9.098   0.317 124.995  0.00  0.00    +0.000 C 
BRANCH   9  10
ATOM     10  C   UNL     1      -9.995   1.421 124.436  0.00  0.00    +0.000 C 
BRANCH  10  11
ATOM     11  O   UNL     1      -9.526   2.709 124.843  0.00  0.00    +0.000 OA
ATOM     12  H   UNL     1      -8.554   2.683 124.866  0.00  0.00    +0.000 HD
ENDBRANCH  10  11
BRANCH  10  13
ATOM     13  C   UNL     1      -9.967   1.313 122.897  0.00  0.00    +0.000 C 
BRANCH  13  14
ATOM     14  O   UNL     1     -10.851   0.312 122.411  0.00  0.00    +0.000 OA
ATOM     15  H   UNL     1     -11.068   0.533 121.489  0.00  0.00    +0.000 HD
ENDBRANCH  13  14
ENDBRANCH  10  13
ENDBRANCH   9  10
ENDBRANCH   1   9
TORSDOF 6
ENDMDL
MODEL 8
REMARK VINA RESULT:      -5.3      0.910      2.151
REMARK  Name = Mephenesin
REMARK  7 active torsions:
REMARK  status: ('A' for Active; 'I' for Inactive)
REMARK    1  A    between atoms: C_1  and  C_2
REMARK    2  A    between atoms: C_7  and  O_8
REMARK    3  A    between atoms: O_8  and  C_9
REMARK    4  A    between atoms: C_9  and  C_10
REMARK    5  A    between atoms: C_10  and  O_11
REMARK    6  A    between atoms: C_10  and  C_12
REMARK    7  A    between atoms: C_12  and  O_13
REMARK                            x       y       z     vdW  Elec       q    Type
REMARK                         _______ _______ _______ _____ _____    ______ ____
ROOT
ATOM      1  O   UNL     1      -8.856   3.174 122.436  0.00  0.00    +0.000 OA
ENDROOT
BRANCH   1   8
ATOM      2  C   UNL     1      -5.745   3.707 122.061  0.00  0.00    +0.000 C 
ATOM      3  C   UNL     1      -6.857   3.857 121.059  0.00  0.00    +0.000 A 
ATOM      4  C   UNL     1      -6.456   4.307 119.783  0.00  0.00    +0.000 A 
ATOM      5  C   UNL     1      -7.369   4.511 118.755  0.00  0.00    +0.000 A 
ATOM      6  C   UNL     1      -8.716   4.262 118.977  0.00  0.00    +0.000 A 
ATOM      7  C   UNL     1      -9.137   3.809 120.231  0.00  0.00    +0.000 A 
ATOM      8  C   UNL     1      -8.229   3.604 121.285  0.00  0.00    +0.000 A 
ENDBRANCH   1   8
BRANCH   1   9
ATOM      9  C   UNL     1      -8.365   1.983 123.036  0.00  0.00    +0.000 C 
BRANCH   9  10
ATOM     10  C   UNL     1      -9.197   1.477 124.213  0.00  0.00    +0.000 C 
BRANCH  10  11
ATOM     11  O   UNL     1      -9.189   2.425 125.283  0.00  0.00    +0.000 OA
ATOM     12  H   UNL     1      -9.427   3.295 124.919  0.00  0.00    +0.000 HD
ENDBRANCH  10  11
BRANCH  10  13
ATOM     13  C   UNL     1     -10.641   1.264 123.710  0.00  0.00    +0.000 C 
BRANCH  13  14
ATOM     14  O   UNL     1     -10.685   0.523 122.499  0.00  0.00    +0.000 OA
ATOM     15  H   UNL     1      -9.879  -0.020 122.457  0.00  0.00    +0.000 HD
ENDBRANCH  13  14
ENDBRANCH  10  13
ENDBRANCH   9  10
ENDBRANCH   1   9
TORSDOF 6
ENDMDL
MODEL 9
REMARK VINA RESULT:      -5.2      3.616      6.126
REMARK  Name = Mephenesin
REMARK  7 active torsions:
REMARK  status: ('A' for Active; 'I' for Inactive)
REMARK    1  A    between atoms: C_1  and  C_2
REMARK    2  A    between atoms: C_7  and  O_8
REMARK    3  A    between atoms: O_8  and  C_9
REMARK    4  A    between atoms: C_9  and  C_10
REMARK    5  A    between atoms: C_10  and  O_11
REMARK    6  A    between atoms: C_10  and  C_12
REMARK    7  A    between atoms: C_12  and  O_13
REMARK                            x       y       z     vdW  Elec       q    Type
REMARK                         _______ _______ _______ _____ _____    ______ ____
ROOT
ATOM      1  O   UNL     1      -8.645  -0.209 123.863  0.00  0.00    +0.000 OA
ENDROOT
BRANCH   1   8
ATOM      2  C   UNL     1      -9.456  -3.274 123.653  0.00  0.00    +0.000 C 
ATOM      3  C   UNL     1      -8.108  -2.672 123.939  0.00  0.00    +0.000 A 
ATOM      4  C   UNL     1      -7.069  -3.603 124.153  0.00  0.00    +0.000 A 
ATOM      5  C   UNL     1      -5.771  -3.201 124.444  0.00  0.00    +0.000 A 
ATOM      6  C   UNL     1      -5.475  -1.847 124.524  0.00  0.00    +0.000 A 
ATOM      7  C   UNL     1      -6.486  -0.905 124.310  0.00  0.00    +0.000 A 
ATOM      8  C   UNL     1      -7.807  -1.293 124.021  0.00  0.00    +0.000 A 
ENDBRANCH   1   8
BRANCH   1   9
ATOM      9  C   UNL     1      -8.130   1.066 124.218  0.00  0.00    +0.000 C 
BRANCH   9  10
ATOM     10  C   UNL     1      -8.911   2.248 123.645  0.00  0.00    +0.000 C 
BRANCH  10  11
ATOM     11  O   UNL     1      -9.307   3.145 124.685  0.00  0.00    +0.000 OA
ATOM     12  H   UNL     1     -10.277   3.218 124.669  0.00  0.00    +0.000 HD
ENDBRANCH  10  11
BRANCH  10  13
ATOM     13  C   UNL     1      -7.990   2.978 122.644  0.00  0.00    +0.000 C 
BRANCH  13  14
ATOM     14  O   UNL     1      -8.721   3.778 121.725  0.00  0.00    +0.000 OA
ATOM     15  H   UNL     1      -8.954   4.607 122.178  0.00  0.00    +0.000 HD
ENDBRANCH  13  14
ENDBRANCH  10  13
ENDBRANCH   9  10
ENDBRANCH   1   9
TORSDOF 6
ENDMDL
