MODEL 1
REMARK VINA RESULT:      -5.9      0.000      0.000
REMARK  Name = Mephentermine
REMARK  6 active torsions:
REMARK  status: ('A' for Active; 'I' for Inactive)
REMARK    1  A    between atoms: C_1  and  N_2
REMARK    2  A    between atoms: N_2  and  C_3
REMARK    3  A    between atoms: C_3  and  C_4
REMARK    4  A    between atoms: C_3  and  C_5
REMARK    5  A    between atoms: C_3  and  C_6
REMARK    6  A    between atoms: C_6  and  C_7
REMARK                            x       y       z     vdW  Elec       q    Type
REMARK                         _______ _______ _______ _____ _____    ______ ____
ROOT
ATOM      1  C   UNL     1     -12.103   6.801 131.440  0.00  0.00    +0.000 C 
ENDROOT
BRANCH   1   2
ATOM      2  C   UNL     1     -12.547   7.351 130.092  0.00  0.00    +0.000 A 
ATOM      3  C   UNL     1     -13.001   6.521 129.062  0.00  0.00    +0.000 A 
ATOM      4  C   UNL     1     -13.536   7.081 127.894  0.00  0.00    +0.000 A 
ATOM      5  C   UNL     1     -13.703   8.462 127.790  0.00  0.00    +0.000 A 
ATOM      6  C   UNL     1     -13.239   9.291 128.797  0.00  0.00    +0.000 A 
ATOM      7  C   UNL     1     -12.583   8.737 129.892  0.00  0.00    +0.000 A 
ENDBRANCH   1   2
BRANCH   1   8
ATOM      8  C   UNL     1     -10.631   6.219 131.458  0.00  0.00    +0.000 C 
ATOM      9  C   UNL     1      -9.759   7.071 130.512  0.00  0.00    +0.000 C 
ATOM     10  C   UNL     1     -10.602   4.742 131.008  0.00  0.00    +0.000 C 
BRANCH   8  12
ATOM     11  C   UNL     1      -8.783   5.715 133.037  0.00  0.00    +0.000 C 
ATOM     12  N   UNL     1     -10.113   6.295 132.851  0.00  0.00    +0.000 NA
ATOM     13  H   UNL     1     -10.091   7.268 133.154  0.00  0.00    +0.000 HD
ENDBRANCH   8  12
ENDBRANCH   1   8
TORSDOF 3
ENDMDL
MODEL 2
REMARK VINA RESULT:      -5.6      1.021      2.125
REMARK  Name = Mephentermine
REMARK  6 active torsions:
REMARK  status: ('A' for Active; 'I' for Inactive)
REMARK    1  A    between atoms: C_1  and  N_2
REMARK    2  A    between atoms: N_2  and  C_3
REMARK    3  A    between atoms: C_3  and  C_4
REMARK    4  A    between atoms: C_3  and  C_5
REMARK    5  A    between atoms: C_3  and  C_6
REMARK    6  A    between atoms: C_6  and  C_7
REMARK                            x       y       z     vdW  Elec       q    Type
REMARK                         _______ _______ _______ _____ _____    ______ ____
ROOT
ATOM      1  C   UNL     1     -12.176   6.830 131.498  0.00  0.00    +0.000 C 
ENDROOT
BRANCH   1   2
ATOM      2  C   UNL     1     -12.774   7.517 130.279  0.00  0.00    +0.000 A 
ATOM      3  C   UNL     1     -12.723   8.904 130.104  0.00  0.00    +0.000 A 
ATOM      4  C   UNL     1     -13.156   9.476 128.900  0.00  0.00    +0.000 A 
ATOM      5  C   UNL     1     -13.552   8.662 127.838  0.00  0.00    +0.000 A 
ATOM      6  C   UNL     1     -13.623   7.290 128.009  0.00  0.00    +0.000 A 
ATOM      7  C   UNL     1     -13.324   6.739 129.251  0.00  0.00    +0.000 A 
ENDBRANCH   1   2
BRANCH   1   8
ATOM      8  C   UNL     1     -10.828   6.051 131.215  0.00  0.00    +0.000 C 
ATOM      9  C   UNL     1     -10.017   5.987 132.525  0.00  0.00    +0.000 C 
ATOM     10  C   UNL     1      -9.994   6.744 130.116  0.00  0.00    +0.000 C 
BRANCH   8  12
ATOM     11  C   UNL     1     -10.014   3.836 130.443  0.00  0.00    +0.000 C 
ATOM     12  N   UNL     1     -11.169   4.679 130.748  0.00  0.00    +0.000 NA
ATOM     13  H   UNL     1     -11.738   4.211 131.453  0.00  0.00    +0.000 HD
ENDBRANCH   8  12
ENDBRANCH   1   8
TORSDOF 3
ENDMDL
MODEL 3
REMARK VINA RESULT:      -5.4     10.611     12.129
REMARK  Name = Mephentermine
REMARK  6 active torsions:
REMARK  status: ('A' for Active; 'I' for Inactive)
REMARK    1  A    between atoms: C_1  and  N_2
REMARK    2  A    between atoms: N_2  and  C_3
REMARK    3  A    between atoms: C_3  and  C_4
REMARK    4  A    between atoms: C_3  and  C_5
REMARK    5  A    between atoms: C_3  and  C_6
REMARK    6  A    between atoms: C_6  and  C_7
REMARK                            x       y       z     vdW  Elec       q    Type
REMARK                         _______ _______ _______ _____ _____    ______ ____
ROOT
ATOM      1  C   UNL     1      -8.890  -1.754 125.255  0.00  0.00    +0.000 C 
ENDROOT
BRANCH   1   2
ATOM      2  C   UNL     1      -8.484  -2.361 126.590  0.00  0.00    +0.000 A 
ATOM      3  C   UNL     1      -7.571  -1.737 127.446  0.00  0.00    +0.000 A 
ATOM      4  C   UNL     1      -7.339  -2.259 128.726  0.00  0.00    +0.000 A 
ATOM      5  C   UNL     1      -8.083  -3.346 129.187  0.00  0.00    +0.000 A 
ATOM      6  C   UNL     1      -8.974  -3.982 128.339  0.00  0.00    +0.000 A 
ATOM      7  C   UNL     1      -9.099  -3.544 127.024  0.00  0.00    +0.000 A 
ENDBRANCH   1   2
BRANCH   1   8
ATOM      8  C   UNL     1      -8.374  -2.550 123.989  0.00  0.00    +0.000 C 
ATOM      9  C   UNL     1      -9.552  -3.359 123.408  0.00  0.00    +0.000 C 
ATOM     10  C   UNL     1      -7.215  -3.503 124.354  0.00  0.00    +0.000 C 
BRANCH   8  12
ATOM     11  C   UNL     1      -6.479  -1.756 122.595  0.00  0.00    +0.000 C 
ATOM     12  N   UNL     1      -7.875  -1.568 122.988  0.00  0.00    +0.000 NA
ATOM     13  H   UNL     1      -8.458  -1.606 122.153  0.00  0.00    +0.000 HD
ENDBRANCH   8  12
ENDBRANCH   1   8
TORSDOF 3
ENDMDL
MODEL 4
REMARK VINA RESULT:      -5.2      1.711      2.378
REMARK  Name = Mephentermine
REMARK  6 active torsions:
REMARK  status: ('A' for Active; 'I' for Inactive)
REMARK    1  A    between atoms: C_1  and  N_2
REMARK    2  A    between atoms: N_2  and  C_3
REMARK    3  A    between atoms: C_3  and  C_4
REMARK    4  A    between atoms: C_3  and  C_5
REMARK    5  A    between atoms: C_3  and  C_6
REMARK    6  A    between atoms: C_6  and  C_7
REMARK                            x       y       z     vdW  Elec       q    Type
REMARK                         _______ _______ _______ _____ _____    ______ ____
ROOT
ATOM      1  C   UNL     1      -9.844   7.592 129.833  0.00  0.00    +0.000 C 
ENDROOT
BRANCH   1   2
ATOM      2  C   UNL     1     -10.999   7.578 128.843  0.00  0.00    +0.000 A 
ATOM      3  C   UNL     1     -10.805   7.369 127.474  0.00  0.00    +0.000 A 
ATOM      4  C   UNL     1     -11.909   7.219 126.623  0.00  0.00    +0.000 A 
ATOM      5  C   UNL     1     -13.201   7.185 127.148  0.00  0.00    +0.000 A 
ATOM      6  C   UNL     1     -13.403   7.411 128.499  0.00  0.00    +0.000 A 
ATOM      7  C   UNL     1     -12.313   7.696 129.316  0.00  0.00    +0.000 A 
ENDBRANCH   1   2
BRANCH   1   8
ATOM      8  C   UNL     1      -9.676   6.254 130.662  0.00  0.00    +0.000 C 
ATOM      9  C   UNL     1     -10.630   6.310 131.874  0.00  0.00    +0.000 C 
ATOM     10  C   UNL     1      -8.223   6.068 131.149  0.00  0.00    +0.000 C 
BRANCH   8  12
ATOM     11  C   UNL     1     -10.522   3.927 130.484  0.00  0.00    +0.000 C 
ATOM     12  N   UNL     1     -10.025   5.108 129.779  0.00  0.00    +0.000 NA
ATOM     13  H   UNL     1     -10.727   5.402 129.100  0.00  0.00    +0.000 HD
ENDBRANCH   8  12
ENDBRANCH   1   8
TORSDOF 3
ENDMDL
MODEL 5
REMARK VINA RESULT:      -5.2      9.878     11.943
REMARK  Name = Mephentermine
REMARK  6 active torsions:
REMARK  status: ('A' for Active; 'I' for Inactive)
REMARK    1  A    between atoms: C_1  and  N_2
REMARK    2  A    between atoms: N_2  and  C_3
REMARK    3  A    between atoms: C_3  and  C_4
REMARK    4  A    between atoms: C_3  and  C_5
REMARK    5  A    between atoms: C_3  and  C_6
REMARK    6  A    between atoms: C_6  and  C_7
REMARK                            x       y       z     vdW  Elec       q    Type
REMARK                         _______ _______ _______ _____ _____    ______ ____
ROOT
ATOM      1  C   UNL     1      -7.864  -3.483 124.957  0.00  0.00    +0.000 C 
ENDROOT
BRANCH   1   2
ATOM      2  C   UNL     1      -7.962  -3.177 126.445  0.00  0.00    +0.000 A 
ATOM      3  C   UNL     1      -8.890  -3.811 127.277  0.00  0.00    +0.000 A 
ATOM      4  C   UNL     1      -8.846  -3.605 128.662  0.00  0.00    +0.000 A 
ATOM      5  C   UNL     1      -7.823  -2.842 129.227  0.00  0.00    +0.000 A 
ATOM      6  C   UNL     1      -6.912  -2.195 128.409  0.00  0.00    +0.000 A 
ATOM      7  C   UNL     1      -7.045  -2.292 127.027  0.00  0.00    +0.000 A 
ENDBRANCH   1   2
BRANCH   1   8
ATOM      8  C   UNL     1      -8.701  -2.510 124.031  0.00  0.00    +0.000 C 
ATOM      9  C   UNL     1      -9.751  -3.346 123.270  0.00  0.00    +0.000 C 
ATOM     10  C   UNL     1      -7.795  -1.767 123.026  0.00  0.00    +0.000 C 
BRANCH   8  12
ATOM     11  C   UNL     1      -9.020  -0.113 124.589  0.00  0.00    +0.000 C 
ATOM     12  N   UNL     1      -9.368  -1.500 124.896  0.00  0.00    +0.000 NA
ATOM     13  H   UNL     1     -10.380  -1.606 124.825  0.00  0.00    +0.000 HD
ENDBRANCH   8  12
ENDBRANCH   1   8
TORSDOF 3
ENDMDL
MODEL 6
REMARK VINA RESULT:      -5.1      1.688      3.142
REMARK  Name = Mephentermine
REMARK  6 active torsions:
REMARK  status: ('A' for Active; 'I' for Inactive)
REMARK    1  A    between atoms: C_1  and  N_2
REMARK    2  A    between atoms: N_2  and  C_3
REMARK    3  A    between atoms: C_3  and  C_4
REMARK    4  A    between atoms: C_3  and  C_5
REMARK    5  A    between atoms: C_3  and  C_6
REMARK    6  A    between atoms: C_6  and  C_7
REMARK                            x       y       z     vdW  Elec       q    Type
REMARK                         _______ _______ _______ _____ _____    ______ ____
ROOT
ATOM      1  C   UNL     1      -9.604   5.917 132.598  0.00  0.00    +0.000 C 
ENDROOT
BRANCH   1   2
ATOM      2  C   UNL     1     -10.504   6.505 131.520  0.00  0.00    +0.000 A 
ATOM      3  C   UNL     1     -11.883   6.654 131.699  0.00  0.00    +0.000 A 
ATOM      4  C   UNL     1     -12.646   7.333 130.739  0.00  0.00    +0.000 A 
ATOM      5  C   UNL     1     -12.023   7.943 129.650  0.00  0.00    +0.000 A 
ATOM      6  C   UNL     1     -10.662   7.784 129.455  0.00  0.00    +0.000 A 
ATOM      7  C   UNL     1      -9.932   6.992 130.337  0.00  0.00    +0.000 A 
ENDBRANCH   1   2
BRANCH   1   8
ATOM      8  C   UNL     1      -9.240   4.391 132.385  0.00  0.00    +0.000 C 
ATOM      9  C   UNL     1      -9.201   3.703 133.766  0.00  0.00    +0.000 C 
ATOM     10  C   UNL     1      -7.876   4.228 131.681  0.00  0.00    +0.000 C 
BRANCH   8  12
ATOM     11  C   UNL     1      -9.774   3.077 130.348  0.00  0.00    +0.000 C 
ATOM     12  N   UNL     1     -10.288   3.774 131.527  0.00  0.00    +0.000 NA
ATOM     13  H   UNL     1     -10.839   3.119 132.080  0.00  0.00    +0.000 HD
ENDBRANCH   8  12
ENDBRANCH   1   8
TORSDOF 3
ENDMDL
MODEL 7
REMARK VINA RESULT:      -5.1     10.867     12.174
REMARK  Name = Mephentermine
REMARK  6 active torsions:
REMARK  status: ('A' for Active; 'I' for Inactive)
REMARK    1  A    between atoms: C_1  and  N_2
REMARK    2  A    between atoms: N_2  and  C_3
REMARK    3  A    between atoms: C_3  and  C_4
REMARK    4  A    between atoms: C_3  and  C_5
REMARK    5  A    between atoms: C_3  and  C_6
REMARK    6  A    between atoms: C_6  and  C_7
REMARK                            x       y       z     vdW  Elec       q    Type
REMARK                         _______ _______ _______ _____ _____    ______ ____
ROOT
ATOM      1  C   UNL     1      -8.399  -1.660 125.064  0.00  0.00    +0.000 C 
ENDROOT
BRANCH   1   2
ATOM      2  C   UNL     1      -8.398  -2.312 126.440  0.00  0.00    +0.000 A 
ATOM      3  C   UNL     1      -9.259  -3.364 126.767  0.00  0.00    +0.000 A 
ATOM      4  C   UNL     1      -9.122  -4.028 127.994  0.00  0.00    +0.000 A 
ATOM      5  C   UNL     1      -8.071  -3.706 128.853  0.00  0.00    +0.000 A 
ATOM      6  C   UNL     1      -7.226  -2.653 128.545  0.00  0.00    +0.000 A 
ATOM      7  C   UNL     1      -7.452  -1.908 127.392  0.00  0.00    +0.000 A 
ENDBRANCH   1   2
BRANCH   1   8
ATOM      8  C   UNL     1      -8.089  -2.651 123.870  0.00  0.00    +0.000 C 
ATOM      9  C   UNL     1      -7.417  -1.852 122.735  0.00  0.00    +0.000 C 
ATOM     10  C   UNL     1      -9.376  -3.324 123.344  0.00  0.00    +0.000 C 
BRANCH   8  12
ATOM     11  C   UNL     1      -5.753  -3.384 124.280  0.00  0.00    +0.000 C 
ATOM     12  N   UNL     1      -7.175  -3.715 124.369  0.00  0.00    +0.000 NA
ATOM     13  H   UNL     1      -7.400  -3.930 125.340  0.00  0.00    +0.000 HD
ENDBRANCH   8  12
ENDBRANCH   1   8
TORSDOF 3
ENDMDL
MODEL 8
REMARK VINA RESULT:      -4.9      8.757     10.383
REMARK  Name = Mephentermine
REMARK  6 active torsions:
REMARK  status: ('A' for Active; 'I' for Inactive)
REMARK    1  A    between atoms: C_1  and  N_2
REMARK    2  A    between atoms: N_2  and  C_3
REMARK    3  A    between atoms: C_3  and  C_4
REMARK    4  A    between atoms: C_3  and  C_5
REMARK    5  A    between atoms: C_3  and  C_6
REMARK    6  A    between atoms: C_6  and  C_7
REMARK                            x       y       z     vdW  Elec       q    Type
REMARK                         _______ _______ _______ _____ _____    ______ ____
ROOT
ATOM      1  C   UNL     1      -8.182   0.924 124.608  0.00  0.00    +0.000 C 
ENDROOT
BRANCH   1   2
ATOM      2  C   UNL     1      -8.653  -0.514 124.444  0.00  0.00    +0.000 A 
ATOM      3  C   UNL     1      -8.649  -1.162 123.204  0.00  0.00    +0.000 A 
ATOM      4  C   UNL     1      -8.952  -2.528 123.126  0.00  0.00    +0.000 A 
ATOM      5  C   UNL     1      -9.167  -3.268 124.290  0.00  0.00    +0.000 A 
ATOM      6  C   UNL     1      -9.191  -2.630 125.518  0.00  0.00    +0.000 A 
ATOM      7  C   UNL     1      -9.027  -1.249 125.576  0.00  0.00    +0.000 A 
ENDBRANCH   1   2
BRANCH   1   8
ATOM      8  C   UNL     1      -9.194   2.011 124.061  0.00  0.00    +0.000 C 
ATOM      9  C   UNL     1     -10.609   1.395 124.045  0.00  0.00    +0.000 C 
ATOM     10  C   UNL     1      -8.810   2.476 122.640  0.00  0.00    +0.000 C 
BRANCH   8  12
ATOM     11  C   UNL     1      -7.862   3.880 125.006  0.00  0.00    +0.000 C 
ATOM     12  N   UNL     1      -9.151   3.191 124.967  0.00  0.00    +0.000 NA
ATOM     13  H   UNL     1      -9.871   3.858 124.692  0.00  0.00    +0.000 HD
ENDBRANCH   8  12
ENDBRANCH   1   8
TORSDOF 3
ENDMDL
MODEL 9
REMARK VINA RESULT:      -4.9      1.518      2.037
REMARK  Name = Mephentermine
REMARK  6 active torsions:
REMARK  status: ('A' for Active; 'I' for Inactive)
REMARK    1  A    between atoms: C_1  and  N_2
REMARK    2  A    between atoms: N_2  and  C_3
REMARK    3  A    between atoms: C_3  and  C_4
REMARK    4  A    between atoms: C_3  and  C_5
REMARK    5  A    between atoms: C_3  and  C_6
REMARK    6  A    between atoms: C_6  and  C_7
REMARK                            x       y       z     vdW  Elec       q    Type
REMARK                         _______ _______ _______ _____ _____    ______ ____
ROOT
ATOM      1  C   UNL     1     -10.649   5.094 130.551  0.00  0.00    +0.000 C 
ENDROOT
BRANCH   1   2
ATOM      2  C   UNL     1     -11.147   6.478 130.160  0.00  0.00    +0.000 A 
ATOM      3  C   UNL     1     -10.701   7.133 129.008  0.00  0.00    +0.000 A 
ATOM      4  C   UNL     1     -11.295   8.340 128.613  0.00  0.00    +0.000 A 
ATOM      5  C   UNL     1     -12.391   8.845 129.311  0.00  0.00    +0.000 A 
ATOM      6  C   UNL     1     -12.826   8.213 130.464  0.00  0.00    +0.000 A 
ATOM      7  C   UNL     1     -12.145   7.092 130.929  0.00  0.00    +0.000 A 
ENDBRANCH   1   2
BRANCH   1   8
ATOM      8  C   UNL     1      -9.455   5.096 131.589  0.00  0.00    +0.000 C 
ATOM      9  C   UNL     1      -8.739   6.461 131.505  0.00  0.00    +0.000 C 
ATOM     10  C   UNL     1      -8.450   3.960 131.298  0.00  0.00    +0.000 C 
BRANCH   8  12
ATOM     11  C   UNL     1      -9.243   3.977 133.795  0.00  0.00    +0.000 C 
ATOM     12  N   UNL     1     -10.017   4.887 132.951  0.00  0.00    +0.000 NA
ATOM     13  H   UNL     1     -10.099   5.785 133.428  0.00  0.00    +0.000 HD
ENDBRANCH   8  12
ENDBRANCH   1   8
TORSDOF 3
ENDMDL
