MODEL 1
REMARK VINA RESULT:      -6.5      0.000      0.000
REMARK  Name = Mephenytoin
REMARK  4 active torsions:
REMARK  status: ('A' for Active; 'I' for Inactive)
REMARK    1  A    between atoms: C_1  and  C_2
REMARK    2  A    between atoms: C_2  and  C_3
REMARK    3  A    between atoms: C_3  and  C_11
REMARK    4  A    between atoms: N_7  and  C_8
REMARK                            x       y       z     vdW  Elec       q    Type
REMARK                         _______ _______ _______ _____ _____    ______ ____
ROOT
ATOM      1  C   UNL     1      -7.516  -2.265 124.794  0.00  0.00    +0.000 C 
ATOM      2  N   UNL     1      -6.653  -1.113 124.643  0.00  0.00    +0.000 N 
ATOM      3  C   UNL     1      -7.428   0.029 124.562  0.00  0.00    +0.000 C 
ATOM      4  O   UNL     1      -7.057   1.138 124.928  0.00  0.00    +0.000 OA
ATOM      5  N   UNL     1      -8.626  -0.325 124.029  0.00  0.00    +0.000 N 
ATOM      6  C   UNL     1      -9.573   0.588 123.438  0.00  0.00    +0.000 C 
ATOM      7  C   UNL     1      -8.728  -1.695 124.008  0.00  0.00    +0.000 C 
ATOM      8  O   UNL     1      -9.647  -2.345 123.528  0.00  0.00    +0.000 OA
ATOM      9  H   UNL     1      -5.688  -1.067 124.938  0.00  0.00    +0.000 HD
ENDROOT
BRANCH   1  10
ATOM     10  C   UNL     1      -7.897  -2.511 126.260  0.00  0.00    +0.000 A 
ATOM     11  C   UNL     1      -7.275  -1.838 127.321  0.00  0.00    +0.000 A 
ATOM     12  C   UNL     1      -7.483  -2.254 128.633  0.00  0.00    +0.000 A 
ATOM     13  C   UNL     1      -8.368  -3.295 128.906  0.00  0.00    +0.000 A 
ATOM     14  C   UNL     1      -9.024  -3.948 127.868  0.00  0.00    +0.000 A 
ATOM     15  C   UNL     1      -8.796  -3.554 126.556  0.00  0.00    +0.000 A 
ENDBRANCH   1  10
BRANCH   1  17
ATOM     16  C   UNL     1      -5.425  -3.541 124.022  0.00  0.00    +0.000 C 
ATOM     17  C   UNL     1      -6.908  -3.582 124.295  0.00  0.00    +0.000 C 
ENDBRANCH   1  17
TORSDOF 2
ENDMDL
MODEL 2
REMARK VINA RESULT:      -6.2      8.758     10.373
REMARK  Name = Mephenytoin
REMARK  4 active torsions:
REMARK  status: ('A' for Active; 'I' for Inactive)
REMARK    1  A    between atoms: C_1  and  C_2
REMARK    2  A    between atoms: C_2  and  C_3
REMARK    3  A    between atoms: C_3  and  C_11
REMARK    4  A    between atoms: N_7  and  C_8
REMARK                            x       y       z     vdW  Elec       q    Type
REMARK                         _______ _______ _______ _____ _____    ______ ____
ROOT
ATOM      1  C   UNL     1      -9.042   5.820 130.878  0.00  0.00    +0.000 C 
ATOM      2  N   UNL     1      -8.640   4.909 129.829  0.00  0.00    +0.000 N 
ATOM      3  C   UNL     1      -9.260   3.689 130.021  0.00  0.00    +0.000 C 
ATOM      4  O   UNL     1      -9.544   2.913 129.117  0.00  0.00    +0.000 OA
ATOM      5  N   UNL     1      -9.484   3.549 131.354  0.00  0.00    +0.000 N 
ATOM      6  C   UNL     1      -9.763   2.301 132.021  0.00  0.00    +0.000 C 
ATOM      7  C   UNL     1      -9.259   4.750 131.982  0.00  0.00    +0.000 C 
ATOM      8  O   UNL     1      -9.301   4.954 133.188  0.00  0.00    +0.000 OA
ATOM      9  H   UNL     1      -8.307   5.185 128.916  0.00  0.00    +0.000 HD
ENDROOT
BRANCH   1  10
ATOM     10  C   UNL     1     -10.365   6.527 130.553  0.00  0.00    +0.000 A 
ATOM     11  C   UNL     1     -10.514   7.364 129.437  0.00  0.00    +0.000 A 
ATOM     12  C   UNL     1     -11.646   8.163 129.307  0.00  0.00    +0.000 A 
ATOM     13  C   UNL     1     -12.673   8.081 130.245  0.00  0.00    +0.000 A 
ATOM     14  C   UNL     1     -12.559   7.226 131.336  0.00  0.00    +0.000 A 
ATOM     15  C   UNL     1     -11.418   6.450 131.484  0.00  0.00    +0.000 A 
ENDBRANCH   1  10
BRANCH   1  17
ATOM     16  C   UNL     1      -6.619   6.477 131.417  0.00  0.00    +0.000 C 
ATOM     17  C   UNL     1      -8.033   6.939 131.169  0.00  0.00    +0.000 C 
ENDBRANCH   1  17
TORSDOF 2
ENDMDL
MODEL 3
REMARK VINA RESULT:      -5.9      9.149     10.646
REMARK  Name = Mephenytoin
REMARK  4 active torsions:
REMARK  status: ('A' for Active; 'I' for Inactive)
REMARK    1  A    between atoms: C_1  and  C_2
REMARK    2  A    between atoms: C_2  and  C_3
REMARK    3  A    between atoms: C_3  and  C_11
REMARK    4  A    between atoms: N_7  and  C_8
REMARK                            x       y       z     vdW  Elec       q    Type
REMARK                         _______ _______ _______ _____ _____    ______ ____
ROOT
ATOM      1  C   UNL     1     -10.081   5.036 130.995  0.00  0.00    +0.000 C 
ATOM      2  N   UNL     1      -9.850   4.969 132.422  0.00  0.00    +0.000 N 
ATOM      3  C   UNL     1      -8.841   5.851 132.762  0.00  0.00    +0.000 C 
ATOM      4  O   UNL     1      -8.748   6.400 133.854  0.00  0.00    +0.000 OA
ATOM      5  N   UNL     1      -8.027   5.979 131.682  0.00  0.00    +0.000 N 
ATOM      6  C   UNL     1      -6.681   6.495 131.716  0.00  0.00    +0.000 C 
ATOM      7  C   UNL     1      -8.629   5.408 130.588  0.00  0.00    +0.000 C 
ATOM      8  O   UNL     1      -8.139   5.287 129.474  0.00  0.00    +0.000 OA
ATOM      9  H   UNL     1     -10.527   4.664 133.107  0.00  0.00    +0.000 HD
ENDROOT
BRANCH   1  10
ATOM     10  C   UNL     1     -11.048   6.167 130.620  0.00  0.00    +0.000 A 
ATOM     11  C   UNL     1     -10.850   6.981 129.495  0.00  0.00    +0.000 A 
ATOM     12  C   UNL     1     -11.612   8.133 129.321  0.00  0.00    +0.000 A 
ATOM     13  C   UNL     1     -12.627   8.445 130.224  0.00  0.00    +0.000 A 
ATOM     14  C   UNL     1     -12.863   7.626 131.323  0.00  0.00    +0.000 A 
ATOM     15  C   UNL     1     -12.085   6.493 131.515  0.00  0.00    +0.000 A 
ENDBRANCH   1  10
BRANCH   1  17
ATOM     16  C   UNL     1     -10.261   2.475 131.061  0.00  0.00    +0.000 C 
ATOM     17  C   UNL     1     -10.679   3.759 130.389  0.00  0.00    +0.000 C 
ENDBRANCH   1  17
TORSDOF 2
ENDMDL
MODEL 4
REMARK VINA RESULT:      -5.9      4.065      7.165
REMARK  Name = Mephenytoin
REMARK  4 active torsions:
REMARK  status: ('A' for Active; 'I' for Inactive)
REMARK    1  A    between atoms: C_1  and  C_2
REMARK    2  A    between atoms: C_2  and  C_3
REMARK    3  A    between atoms: C_3  and  C_11
REMARK    4  A    between atoms: N_7  and  C_8
REMARK                            x       y       z     vdW  Elec       q    Type
REMARK                         _______ _______ _______ _____ _____    ______ ____
ROOT
ATOM      1  C   UNL     1      -6.940   2.852 123.678  0.00  0.00    +0.000 C 
ATOM      2  N   UNL     1      -6.685   1.429 123.639  0.00  0.00    +0.000 N 
ATOM      3  C   UNL     1      -7.888   0.750 123.593  0.00  0.00    +0.000 C 
ATOM      4  O   UNL     1      -8.039  -0.345 123.066  0.00  0.00    +0.000 OA
ATOM      5  N   UNL     1      -8.818   1.523 124.213  0.00  0.00    +0.000 N 
ATOM      6  C   UNL     1     -10.088   1.053 124.710  0.00  0.00    +0.000 C 
ATOM      7  C   UNL     1      -8.300   2.778 124.423  0.00  0.00    +0.000 C 
ATOM      8  O   UNL     1      -8.847   3.695 125.021  0.00  0.00    +0.000 OA
ATOM      9  H   UNL     1      -5.833   1.000 123.305  0.00  0.00    +0.000 HD
ENDROOT
BRANCH   1  10
ATOM     10  C   UNL     1      -7.132   3.442 122.274  0.00  0.00    +0.000 A 
ATOM     11  C   UNL     1      -8.396   3.576 121.682  0.00  0.00    +0.000 A 
ATOM     12  C   UNL     1      -8.508   3.895 120.332  0.00  0.00    +0.000 A 
ATOM     13  C   UNL     1      -7.366   4.157 119.577  0.00  0.00    +0.000 A 
ATOM     14  C   UNL     1      -6.106   4.068 120.159  0.00  0.00    +0.000 A 
ATOM     15  C   UNL     1      -5.990   3.721 121.498  0.00  0.00    +0.000 A 
ENDBRANCH   1  10
BRANCH   1  17
ATOM     16  C   UNL     1      -6.258   5.008 124.895  0.00  0.00    +0.000 C 
ATOM     17  C   UNL     1      -5.823   3.679 124.328  0.00  0.00    +0.000 C 
ENDBRANCH   1  17
TORSDOF 2
ENDMDL
MODEL 5
REMARK VINA RESULT:      -5.8      2.436      3.598
REMARK  Name = Mephenytoin
REMARK  4 active torsions:
REMARK  status: ('A' for Active; 'I' for Inactive)
REMARK    1  A    between atoms: C_1  and  C_2
REMARK    2  A    between atoms: C_2  and  C_3
REMARK    3  A    between atoms: C_3  and  C_11
REMARK    4  A    between atoms: N_7  and  C_8
REMARK                            x       y       z     vdW  Elec       q    Type
REMARK                         _______ _______ _______ _____ _____    ______ ____
ROOT
ATOM      1  C   UNL     1      -8.455  -0.962 123.740  0.00  0.00    +0.000 C 
ATOM      2  N   UNL     1      -8.351   0.419 123.320  0.00  0.00    +0.000 N 
ATOM      3  C   UNL     1      -8.051   1.207 124.415  0.00  0.00    +0.000 C 
ATOM      4  O   UNL     1      -7.424   2.258 124.353  0.00  0.00    +0.000 OA
ATOM      5  N   UNL     1      -8.562   0.594 125.514  0.00  0.00    +0.000 N 
ATOM      6  C   UNL     1      -8.798   1.233 126.785  0.00  0.00    +0.000 C 
ATOM      7  C   UNL     1      -8.951  -0.682 125.184  0.00  0.00    +0.000 C 
ATOM      8  O   UNL     1      -9.515  -1.478 125.921  0.00  0.00    +0.000 OA
ATOM      9  H   UNL     1      -8.135   0.726 122.382  0.00  0.00    +0.000 HD
ENDROOT
BRANCH   1  10
ATOM     10  C   UNL     1      -7.088  -1.659 123.771  0.00  0.00    +0.000 A 
ATOM     11  C   UNL     1      -6.339  -1.895 122.608  0.00  0.00    +0.000 A 
ATOM     12  C   UNL     1      -5.225  -2.729 122.649  0.00  0.00    +0.000 A 
ATOM     13  C   UNL     1      -4.803  -3.275 123.860  0.00  0.00    +0.000 A 
ATOM     14  C   UNL     1      -5.511  -3.018 125.029  0.00  0.00    +0.000 A 
ATOM     15  C   UNL     1      -6.640  -2.211 124.986  0.00  0.00    +0.000 A 
ENDBRANCH   1  10
BRANCH   1  17
ATOM     16  C   UNL     1      -9.532  -3.254 123.314  0.00  0.00    +0.000 C 
ATOM     17  C   UNL     1      -9.346  -1.832 122.844  0.00  0.00    +0.000 C 
ENDBRANCH   1  17
TORSDOF 2
ENDMDL
MODEL 6
REMARK VINA RESULT:      -5.8      1.938      4.360
REMARK  Name = Mephenytoin
REMARK  4 active torsions:
REMARK  status: ('A' for Active; 'I' for Inactive)
REMARK    1  A    between atoms: C_1  and  C_2
REMARK    2  A    between atoms: C_2  and  C_3
REMARK    3  A    between atoms: C_3  and  C_11
REMARK    4  A    between atoms: N_7  and  C_8
REMARK                            x       y       z     vdW  Elec       q    Type
REMARK                         _______ _______ _______ _____ _____    ______ ____
ROOT
ATOM      1  C   UNL     1      -6.325  -2.102 124.660  0.00  0.00    +0.000 C 
ATOM      2  N   UNL     1      -7.544  -2.744 124.220  0.00  0.00    +0.000 N 
ATOM      3  C   UNL     1      -8.467  -2.723 125.249  0.00  0.00    +0.000 C 
ATOM      4  O   UNL     1      -9.681  -2.706 125.082  0.00  0.00    +0.000 OA
ATOM      5  N   UNL     1      -7.777  -2.715 126.419  0.00  0.00    +0.000 N 
ATOM      6  C   UNL     1      -8.326  -3.060 127.708  0.00  0.00    +0.000 C 
ATOM      7  C   UNL     1      -6.450  -2.472 126.163  0.00  0.00    +0.000 C 
ATOM      8  O   UNL     1      -5.544  -2.469 126.985  0.00  0.00    +0.000 OA
ATOM      9  H   UNL     1      -7.839  -2.835 123.258  0.00  0.00    +0.000 HD
ENDROOT
BRANCH   1  10
ATOM     10  C   UNL     1      -6.378  -0.579 124.478  0.00  0.00    +0.000 A 
ATOM     11  C   UNL     1      -5.946   0.311 125.472  0.00  0.00    +0.000 A 
ATOM     12  C   UNL     1      -6.224   1.671 125.365  0.00  0.00    +0.000 A 
ATOM     13  C   UNL     1      -6.868   2.167 124.233  0.00  0.00    +0.000 A 
ATOM     14  C   UNL     1      -7.268   1.303 123.219  0.00  0.00    +0.000 A 
ATOM     15  C   UNL     1      -7.018  -0.057 123.338  0.00  0.00    +0.000 A 
ENDBRANCH   1  10
BRANCH   1  17
ATOM     16  C   UNL     1      -4.852  -4.059 123.887  0.00  0.00    +0.000 C 
ATOM     17  C   UNL     1      -5.062  -2.565 123.922  0.00  0.00    +0.000 C 
ENDBRANCH   1  17
TORSDOF 2
ENDMDL
MODEL 7
REMARK VINA RESULT:      -5.7      1.599      2.069
REMARK  Name = Mephenytoin
REMARK  4 active torsions:
REMARK  status: ('A' for Active; 'I' for Inactive)
REMARK    1  A    between atoms: C_1  and  C_2
REMARK    2  A    between atoms: C_2  and  C_3
REMARK    3  A    between atoms: C_3  and  C_11
REMARK    4  A    between atoms: N_7  and  C_8
REMARK                            x       y       z     vdW  Elec       q    Type
REMARK                         _______ _______ _______ _____ _____    ______ ____
ROOT
ATOM      1  C   UNL     1      -7.934  -2.135 125.428  0.00  0.00    +0.000 C 
ATOM      2  N   UNL     1      -6.697  -1.568 124.937  0.00  0.00    +0.000 N 
ATOM      3  C   UNL     1      -6.588  -0.262 125.377  0.00  0.00    +0.000 C 
ATOM      4  O   UNL     1      -5.522   0.308 125.579  0.00  0.00    +0.000 OA
ATOM      5  N   UNL     1      -7.847   0.223 125.537  0.00  0.00    +0.000 N 
ATOM      6  C   UNL     1      -8.192   1.621 125.620  0.00  0.00    +0.000 C 
ATOM      7  C   UNL     1      -8.747  -0.812 125.461  0.00  0.00    +0.000 C 
ATOM      8  O   UNL     1      -9.966  -0.714 125.493  0.00  0.00    +0.000 OA
ATOM      9  H   UNL     1      -5.879  -2.099 124.674  0.00  0.00    +0.000 HD
ENDROOT
BRANCH   1  10
ATOM     10  C   UNL     1      -7.785  -2.705 126.845  0.00  0.00    +0.000 A 
ATOM     11  C   UNL     1      -8.812  -3.419 127.480  0.00  0.00    +0.000 A 
ATOM     12  C   UNL     1      -8.725  -3.714 128.837  0.00  0.00    +0.000 A 
ATOM     13  C   UNL     1      -7.584  -3.368 129.558  0.00  0.00    +0.000 A 
ATOM     14  C   UNL     1      -6.539  -2.695 128.935  0.00  0.00    +0.000 A 
ATOM     15  C   UNL     1      -6.635  -2.373 127.588  0.00  0.00    +0.000 A 
ENDBRANCH   1  10
BRANCH   1  17
ATOM     16  C   UNL     1      -8.947  -2.889 123.192  0.00  0.00    +0.000 C 
ATOM     17  C   UNL     1      -8.489  -3.283 124.575  0.00  0.00    +0.000 C 
ENDBRANCH   1  17
TORSDOF 2
ENDMDL
MODEL 8
REMARK VINA RESULT:      -5.5      1.804      4.625
REMARK  Name = Mephenytoin
REMARK  4 active torsions:
REMARK  status: ('A' for Active; 'I' for Inactive)
REMARK    1  A    between atoms: C_1  and  C_2
REMARK    2  A    between atoms: C_2  and  C_3
REMARK    3  A    between atoms: C_3  and  C_11
REMARK    4  A    between atoms: N_7  and  C_8
REMARK                            x       y       z     vdW  Elec       q    Type
REMARK                         _______ _______ _______ _____ _____    ______ ____
ROOT
ATOM      1  C   UNL     1      -7.047  -1.967 124.263  0.00  0.00    +0.000 C 
ATOM      2  N   UNL     1      -7.674  -3.186 124.723  0.00  0.00    +0.000 N 
ATOM      3  C   UNL     1      -8.019  -3.047 126.055  0.00  0.00    +0.000 C 
ATOM      4  O   UNL     1      -8.958  -3.629 126.585  0.00  0.00    +0.000 OA
ATOM      5  N   UNL     1      -7.147  -2.168 126.615  0.00  0.00    +0.000 N 
ATOM      6  C   UNL     1      -6.913  -2.020 128.030  0.00  0.00    +0.000 C 
ATOM      7  C   UNL     1      -6.423  -1.552 125.623  0.00  0.00    +0.000 C 
ATOM      8  O   UNL     1      -5.505  -0.759 125.785  0.00  0.00    +0.000 OA
ATOM      9  H   UNL     1      -8.142  -3.858 124.132  0.00  0.00    +0.000 HD
ENDROOT
BRANCH   1  10
ATOM     10  C   UNL     1      -8.077  -0.925 123.808  0.00  0.00    +0.000 A 
ATOM     11  C   UNL     1      -9.195  -1.263 123.031  0.00  0.00    +0.000 A 
ATOM     12  C   UNL     1      -9.972  -0.266 122.449  0.00  0.00    +0.000 A 
ATOM     13  C   UNL     1      -9.689   1.076 122.695  0.00  0.00    +0.000 A 
ATOM     14  C   UNL     1      -8.609   1.429 123.496  0.00  0.00    +0.000 A 
ATOM     15  C   UNL     1      -7.814   0.437 124.054  0.00  0.00    +0.000 A 
ENDBRANCH   1  10
BRANCH   1  17
ATOM     16  C   UNL     1      -4.972  -3.137 123.304  0.00  0.00    +0.000 C 
ATOM     17  C   UNL     1      -6.092  -2.153 123.076  0.00  0.00    +0.000 C 
ENDBRANCH   1  17
TORSDOF 2
ENDMDL
MODEL 9
REMARK VINA RESULT:      -5.5     16.506     17.886
REMARK  Name = Mephenytoin
REMARK  4 active torsions:
REMARK  status: ('A' for Active; 'I' for Inactive)
REMARK    1  A    between atoms: C_1  and  C_2
REMARK    2  A    between atoms: C_2  and  C_3
REMARK    3  A    between atoms: C_3  and  C_11
REMARK    4  A    between atoms: N_7  and  C_8
REMARK                            x       y       z     vdW  Elec       q    Type
REMARK                         _______ _______ _______ _____ _____    ______ ____
ROOT
ATOM      1  C   UNL     1      -0.575  12.707 132.866  0.00  0.00    +0.000 C 
ATOM      2  N   UNL     1       0.614  13.194 133.529  0.00  0.00    +0.000 N 
ATOM      3  C   UNL     1       0.308  13.512 134.839  0.00  0.00    +0.000 C 
ATOM      4  O   UNL     1       1.110  13.459 135.764  0.00  0.00    +0.000 OA
ATOM      5  N   UNL     1      -1.003  13.866 134.880  0.00  0.00    +0.000 N 
ATOM      6  C   UNL     1      -1.629  14.609 135.946  0.00  0.00    +0.000 C 
ATOM      7  C   UNL     1      -1.600  13.536 133.687  0.00  0.00    +0.000 C 
ATOM      8  O   UNL     1      -2.754  13.781 133.365  0.00  0.00    +0.000 OA
ATOM      9  H   UNL     1       1.562  12.979 133.254  0.00  0.00    +0.000 HD
ENDROOT
BRANCH   1  10
ATOM     10  C   UNL     1      -0.792  11.206 133.099  0.00  0.00    +0.000 A 
ATOM     11  C   UNL     1       0.260  10.336 133.420  0.00  0.00    +0.000 A 
ATOM     12  C   UNL     1       0.063   8.958 133.393  0.00  0.00    +0.000 A 
ATOM     13  C   UNL     1      -1.200   8.436 133.122  0.00  0.00    +0.000 A 
ATOM     14  C   UNL     1      -2.264   9.286 132.842  0.00  0.00    +0.000 A 
ATOM     15  C   UNL     1      -2.064  10.660 132.838  0.00  0.00    +0.000 A 
ENDBRANCH   1  10
BRANCH   1  17
ATOM     16  C   UNL     1       0.791  12.918 130.701  0.00  0.00    +0.000 C 
ATOM     17  C   UNL     1      -0.575  12.896 131.343  0.00  0.00    +0.000 C 
ENDBRANCH   1  17
TORSDOF 2
ENDMDL
