MODEL 1
REMARK VINA RESULT:      -6.9      0.000      0.000
REMARK  Name = Mepivacaine
REMARK  5 active torsions:
REMARK  status: ('A' for Active; 'I' for Inactive)
REMARK    1  A    between atoms: C_1  and  N_2
REMARK    2  A    between atoms: C_7  and  C_8
REMARK    3  A    between atoms: N_10  and  C_11
REMARK    4  A    between atoms: C_12  and  C_13
REMARK    5  A    between atoms: C_17  and  C_18
REMARK                            x       y       z     vdW  Elec       q    Type
REMARK                         _______ _______ _______ _____ _____    ______ ____
ROOT
ATOM      1  C   UNL     1     -10.118   6.731 129.375  0.00  0.00    +0.000 C 
ATOM      2  O   UNL     1      -9.613   6.184 128.382  0.00  0.00    +0.000 OA
ATOM      3  N   UNL     1      -9.893   6.253 130.660  0.00  0.00    +0.000 N 
ATOM      4  H   UNL     1     -10.429   6.598 131.438  0.00  0.00    +0.000 HD
ENDROOT
BRANCH   3   5
ATOM      5  C   UNL     1      -9.123   5.091 130.881  0.00  0.00    +0.000 A 
ATOM      6  C   UNL     1      -7.759   5.247 131.203  0.00  0.00    +0.000 A 
ATOM      7  C   UNL     1      -7.102   6.591 131.404  0.00  0.00    +0.000 C 
ATOM      8  C   UNL     1      -6.969   4.108 131.389  0.00  0.00    +0.000 A 
ATOM      9  C   UNL     1      -7.519   2.836 131.285  0.00  0.00    +0.000 A 
ATOM     10  C   UNL     1      -8.872   2.682 131.000  0.00  0.00    +0.000 A 
ATOM     11  C   UNL     1      -9.701   3.801 130.806  0.00  0.00    +0.000 A 
ATOM     12  C   UNL     1     -11.140   3.538 130.444  0.00  0.00    +0.000 C 
ENDBRANCH   3   5
BRANCH   1  19
ATOM     13  C   UNL     1     -12.667   7.311 130.942  0.00  0.00    +0.000 C 
ATOM     14  N   UNL     1     -12.459   7.665 129.544  0.00  0.00    +0.000 NA
ATOM     15  C   UNL     1     -12.990   6.613 128.663  0.00  0.00    +0.000 C 
ATOM     16  C   UNL     1     -12.955   7.036 127.192  0.00  0.00    +0.000 C 
ATOM     17  C   UNL     1     -11.555   7.435 126.754  0.00  0.00    +0.000 C 
ATOM     18  C   UNL     1     -10.973   8.462 127.735  0.00  0.00    +0.000 C 
ATOM     19  C   UNL     1     -11.041   7.966 129.209  0.00  0.00    +0.000 C 
ENDBRANCH   1  19
TORSDOF 2
ENDMDL
MODEL 2
REMARK VINA RESULT:      -6.8      0.079      2.066
REMARK  Name = Mepivacaine
REMARK  5 active torsions:
REMARK  status: ('A' for Active; 'I' for Inactive)
REMARK    1  A    between atoms: C_1  and  N_2
REMARK    2  A    between atoms: C_7  and  C_8
REMARK    3  A    between atoms: N_10  and  C_11
REMARK    4  A    between atoms: C_12  and  C_13
REMARK    5  A    between atoms: C_17  and  C_18
REMARK                            x       y       z     vdW  Elec       q    Type
REMARK                         _______ _______ _______ _____ _____    ______ ____
ROOT
ATOM      1  C   UNL     1     -10.121   6.765 129.419  0.00  0.00    +0.000 C 
ATOM      2  O   UNL     1      -9.586   6.246 128.428  0.00  0.00    +0.000 OA
ATOM      3  N   UNL     1      -9.907   6.276 130.702  0.00  0.00    +0.000 N 
ATOM      4  H   UNL     1     -10.464   6.596 131.475  0.00  0.00    +0.000 HD
ENDROOT
BRANCH   3   5
ATOM      5  C   UNL     1      -9.111   5.131 130.920  0.00  0.00    +0.000 A 
ATOM      6  C   UNL     1      -9.724   3.864 130.823  0.00  0.00    +0.000 A 
ATOM      7  C   UNL     1     -11.165   3.670 130.417  0.00  0.00    +0.000 C 
ATOM      8  C   UNL     1      -8.963   2.718 131.072  0.00  0.00    +0.000 A 
ATOM      9  C   UNL     1      -7.612   2.816 131.386  0.00  0.00    +0.000 A 
ATOM     10  C   UNL     1      -6.999   4.063 131.450  0.00  0.00    +0.000 A 
ATOM     11  C   UNL     1      -7.729   5.240 131.206  0.00  0.00    +0.000 A 
ATOM     12  C   UNL     1      -6.995   6.548 131.353  0.00  0.00    +0.000 C 
ENDBRANCH   3   5
BRANCH   1  19
ATOM     13  C   UNL     1     -12.694   7.276 130.973  0.00  0.00    +0.000 C 
ATOM     14  N   UNL     1     -12.485   7.642 129.579  0.00  0.00    +0.000 NA
ATOM     15  C   UNL     1     -12.985   6.583 128.688  0.00  0.00    +0.000 C 
ATOM     16  C   UNL     1     -12.951   7.015 127.220  0.00  0.00    +0.000 C 
ATOM     17  C   UNL     1     -11.558   7.450 126.794  0.00  0.00    +0.000 C 
ATOM     18  C   UNL     1     -11.007   8.485 127.784  0.00  0.00    +0.000 C 
ATOM     19  C   UNL     1     -11.072   7.979 129.254  0.00  0.00    +0.000 C 
ENDBRANCH   1  19
TORSDOF 2
ENDMDL
MODEL 3
REMARK VINA RESULT:      -6.7      1.498      5.674
REMARK  Name = Mepivacaine
REMARK  5 active torsions:
REMARK  status: ('A' for Active; 'I' for Inactive)
REMARK    1  A    between atoms: C_1  and  N_2
REMARK    2  A    between atoms: C_7  and  C_8
REMARK    3  A    between atoms: N_10  and  C_11
REMARK    4  A    between atoms: C_12  and  C_13
REMARK    5  A    between atoms: C_17  and  C_18
REMARK                            x       y       z     vdW  Elec       q    Type
REMARK                         _______ _______ _______ _____ _____    ______ ____
ROOT
ATOM      1  C   UNL     1      -9.523   5.536 129.872  0.00  0.00    +0.000 C 
ATOM      2  O   UNL     1     -10.174   4.518 129.589  0.00  0.00    +0.000 OA
ATOM      3  N   UNL     1     -10.025   6.809 129.633  0.00  0.00    +0.000 N 
ATOM      4  H   UNL     1      -9.435   7.619 129.714  0.00  0.00    +0.000 HD
ENDROOT
BRANCH   3   5
ATOM      5  C   UNL     1     -11.277   6.993 129.006  0.00  0.00    +0.000 A 
ATOM      6  C   UNL     1     -12.425   7.070 129.821  0.00  0.00    +0.000 A 
ATOM      7  C   UNL     1     -12.375   7.049 131.330  0.00  0.00    +0.000 C 
ATOM      8  C   UNL     1     -13.679   7.214 129.219  0.00  0.00    +0.000 A 
ATOM      9  C   UNL     1     -13.798   7.307 127.837  0.00  0.00    +0.000 A 
ATOM     10  C   UNL     1     -12.662   7.264 127.034  0.00  0.00    +0.000 A 
ATOM     11  C   UNL     1     -11.383   7.121 127.600  0.00  0.00    +0.000 A 
ATOM     12  C   UNL     1     -10.216   7.026 126.651  0.00  0.00    +0.000 C 
ENDBRANCH   3   5
BRANCH   1  19
ATOM     13  C   UNL     1      -7.733   3.069 129.841  0.00  0.00    +0.000 C 
ATOM     14  N   UNL     1      -7.794   4.031 130.933  0.00  0.00    +0.000 NA
ATOM     15  C   UNL     1      -8.748   3.586 131.961  0.00  0.00    +0.000 C 
ATOM     16  C   UNL     1      -8.698   4.476 133.204  0.00  0.00    +0.000 C 
ATOM     17  C   UNL     1      -8.938   5.938 132.859  0.00  0.00    +0.000 C 
ATOM     18  C   UNL     1      -8.003   6.366 131.720  0.00  0.00    +0.000 C 
ATOM     19  C   UNL     1      -8.106   5.418 130.491  0.00  0.00    +0.000 C 
ENDBRANCH   1  19
TORSDOF 2
ENDMDL
MODEL 4
REMARK VINA RESULT:      -6.6      1.567      5.614
REMARK  Name = Mepivacaine
REMARK  5 active torsions:
REMARK  status: ('A' for Active; 'I' for Inactive)
REMARK    1  A    between atoms: C_1  and  N_2
REMARK    2  A    between atoms: C_7  and  C_8
REMARK    3  A    between atoms: N_10  and  C_11
REMARK    4  A    between atoms: C_12  and  C_13
REMARK    5  A    between atoms: C_17  and  C_18
REMARK                            x       y       z     vdW  Elec       q    Type
REMARK                         _______ _______ _______ _____ _____    ______ ____
ROOT
ATOM      1  C   UNL     1      -8.907   6.202 130.034  0.00  0.00    +0.000 C 
ATOM      2  O   UNL     1      -8.552   7.360 130.303  0.00  0.00    +0.000 OA
ATOM      3  N   UNL     1     -10.180   5.927 129.550  0.00  0.00    +0.000 N 
ATOM      4  H   UNL     1     -10.514   4.980 129.487  0.00  0.00    +0.000 HD
ENDROOT
BRANCH   3   5
ATOM      5  C   UNL     1     -11.139   6.951 129.398  0.00  0.00    +0.000 A 
ATOM      6  C   UNL     1     -11.258   7.570 128.136  0.00  0.00    +0.000 A 
ATOM      7  C   UNL     1     -10.473   7.136 126.922  0.00  0.00    +0.000 C 
ATOM      8  C   UNL     1     -12.176   8.613 127.973  0.00  0.00    +0.000 A 
ATOM      9  C   UNL     1     -12.981   9.023 129.029  0.00  0.00    +0.000 A 
ATOM     10  C   UNL     1     -12.887   8.391 130.266  0.00  0.00    +0.000 A 
ATOM     11  C   UNL     1     -11.978   7.338 130.470  0.00  0.00    +0.000 A 
ATOM     12  C   UNL     1     -11.904   6.752 131.857  0.00  0.00    +0.000 C 
ENDBRANCH   3   5
BRANCH   1  19
ATOM     13  C   UNL     1      -9.643   3.431 131.069  0.00  0.00    +0.000 C 
ATOM     14  N   UNL     1      -8.383   4.107 131.344  0.00  0.00    +0.000 NA
ATOM     15  C   UNL     1      -8.456   4.834 132.621  0.00  0.00    +0.000 C 
ATOM     16  C   UNL     1      -7.094   5.400 133.029  0.00  0.00    +0.000 C 
ATOM     17  C   UNL     1      -6.507   6.292 131.946  0.00  0.00    +0.000 C 
ATOM     18  C   UNL     1      -6.524   5.558 130.599  0.00  0.00    +0.000 C 
ATOM     19  C   UNL     1      -7.938   5.011 130.249  0.00  0.00    +0.000 C 
ENDBRANCH   1  19
TORSDOF 2
ENDMDL
MODEL 5
REMARK VINA RESULT:      -6.4      8.294      9.535
REMARK  Name = Mepivacaine
REMARK  5 active torsions:
REMARK  status: ('A' for Active; 'I' for Inactive)
REMARK    1  A    between atoms: C_1  and  N_2
REMARK    2  A    between atoms: C_7  and  C_8
REMARK    3  A    between atoms: N_10  and  C_11
REMARK    4  A    between atoms: C_12  and  C_13
REMARK    5  A    between atoms: C_17  and  C_18
REMARK                            x       y       z     vdW  Elec       q    Type
REMARK                         _______ _______ _______ _____ _____    ______ ____
ROOT
ATOM      1  C   UNL     1      -6.490  -1.786 125.008  0.00  0.00    +0.000 C 
ATOM      2  O   UNL     1      -5.858  -2.848 125.122  0.00  0.00    +0.000 OA
ATOM      3  N   UNL     1      -7.270  -1.289 126.045  0.00  0.00    +0.000 N 
ATOM      4  H   UNL     1      -7.901  -0.521 125.892  0.00  0.00    +0.000 HD
ENDROOT
BRANCH   3   5
ATOM      5  C   UNL     1      -7.418  -2.005 127.252  0.00  0.00    +0.000 A 
ATOM      6  C   UNL     1      -8.480  -2.927 127.355  0.00  0.00    +0.000 A 
ATOM      7  C   UNL     1      -9.414  -3.247 126.213  0.00  0.00    +0.000 C 
ATOM      8  C   UNL     1      -8.667  -3.620 128.555  0.00  0.00    +0.000 A 
ATOM      9  C   UNL     1      -7.806  -3.426 129.629  0.00  0.00    +0.000 A 
ATOM     10  C   UNL     1      -6.738  -2.541 129.518  0.00  0.00    +0.000 A 
ATOM     11  C   UNL     1      -6.515  -1.826 128.328  0.00  0.00    +0.000 A 
ATOM     12  C   UNL     1      -5.369  -0.847 128.317  0.00  0.00    +0.000 C 
ENDBRANCH   3   5
BRANCH   1  19
ATOM     13  C   UNL     1      -6.837   1.228 124.707  0.00  0.00    +0.000 C 
ATOM     14  N   UNL     1      -7.288   0.243 123.732  0.00  0.00    +0.000 NA
ATOM     15  C   UNL     1      -8.697  -0.108 123.968  0.00  0.00    +0.000 C 
ATOM     16  C   UNL     1      -9.254  -0.996 122.853  0.00  0.00    +0.000 C 
ATOM     17  C   UNL     1      -8.420  -2.254 122.667  0.00  0.00    +0.000 C 
ATOM     18  C   UNL     1      -6.939  -1.883 122.517  0.00  0.00    +0.000 C 
ATOM     19  C   UNL     1      -6.442  -0.981 123.684  0.00  0.00    +0.000 C 
ENDBRANCH   1  19
TORSDOF 2
ENDMDL
MODEL 6
REMARK VINA RESULT:      -6.3      8.190      9.265
REMARK  Name = Mepivacaine
REMARK  5 active torsions:
REMARK  status: ('A' for Active; 'I' for Inactive)
REMARK    1  A    between atoms: C_1  and  N_2
REMARK    2  A    between atoms: C_7  and  C_8
REMARK    3  A    between atoms: N_10  and  C_11
REMARK    4  A    between atoms: C_12  and  C_13
REMARK    5  A    between atoms: C_17  and  C_18
REMARK                            x       y       z     vdW  Elec       q    Type
REMARK                         _______ _______ _______ _____ _____    ______ ____
ROOT
ATOM      1  C   UNL     1      -6.480  -1.750 125.043  0.00  0.00    +0.000 C 
ATOM      2  O   UNL     1      -5.852  -2.812 125.169  0.00  0.00    +0.000 OA
ATOM      3  N   UNL     1      -7.268  -1.245 126.070  0.00  0.00    +0.000 N 
ATOM      4  H   UNL     1      -7.895  -0.476 125.907  0.00  0.00    +0.000 HD
ENDROOT
BRANCH   3   5
ATOM      5  C   UNL     1      -7.427  -1.953 127.280  0.00  0.00    +0.000 A 
ATOM      6  C   UNL     1      -6.550  -1.660 128.345  0.00  0.00    +0.000 A 
ATOM      7  C   UNL     1      -5.505  -0.572 128.283  0.00  0.00    +0.000 C 
ATOM      8  C   UNL     1      -6.667  -2.376 129.540  0.00  0.00    +0.000 A 
ATOM      9  C   UNL     1      -7.649  -3.348 129.694  0.00  0.00    +0.000 A 
ATOM     10  C   UNL     1      -8.536  -3.615 128.656  0.00  0.00    +0.000 A 
ATOM     11  C   UNL     1      -8.453  -2.917 127.438  0.00  0.00    +0.000 A 
ATOM     12  C   UNL     1      -9.418  -3.312 126.350  0.00  0.00    +0.000 C 
ENDBRANCH   3   5
BRANCH   1  19
ATOM     13  C   UNL     1      -6.836   1.261 124.718  0.00  0.00    +0.000 C 
ATOM     14  N   UNL     1      -7.270   0.268 123.744  0.00  0.00    +0.000 NA
ATOM     15  C   UNL     1      -8.681  -0.088 123.965  0.00  0.00    +0.000 C 
ATOM     16  C   UNL     1      -9.219  -0.985 122.849  0.00  0.00    +0.000 C 
ATOM     17  C   UNL     1      -8.379  -2.241 122.681  0.00  0.00    +0.000 C 
ATOM     18  C   UNL     1      -6.897  -1.863 122.547  0.00  0.00    +0.000 C 
ATOM     19  C   UNL     1      -6.419  -0.952 123.714  0.00  0.00    +0.000 C 
ENDBRANCH   1  19
TORSDOF 2
ENDMDL
MODEL 7
REMARK VINA RESULT:      -6.2      7.834      9.793
REMARK  Name = Mepivacaine
REMARK  5 active torsions:
REMARK  status: ('A' for Active; 'I' for Inactive)
REMARK    1  A    between atoms: C_1  and  N_2
REMARK    2  A    between atoms: C_7  and  C_8
REMARK    3  A    between atoms: N_10  and  C_11
REMARK    4  A    between atoms: C_12  and  C_13
REMARK    5  A    between atoms: C_17  and  C_18
REMARK                            x       y       z     vdW  Elec       q    Type
REMARK                         _______ _______ _______ _____ _____    ______ ____
ROOT
ATOM      1  C   UNL     1      -6.809  -2.575 125.811  0.00  0.00    +0.000 C 
ATOM      2  O   UNL     1      -5.695  -2.158 126.161  0.00  0.00    +0.000 OA
ATOM      3  N   UNL     1      -7.968  -2.203 126.481  0.00  0.00    +0.000 N 
ATOM      4  H   UNL     1      -8.841  -2.667 126.296  0.00  0.00    +0.000 HD
ENDROOT
BRANCH   3   5
ATOM      5  C   UNL     1      -7.915  -1.376 127.623  0.00  0.00    +0.000 A 
ATOM      6  C   UNL     1      -8.008   0.020 127.440  0.00  0.00    +0.000 A 
ATOM      7  C   UNL     1      -8.245   0.666 126.096  0.00  0.00    +0.000 C 
ATOM      8  C   UNL     1      -7.921   0.860 128.554  0.00  0.00    +0.000 A 
ATOM      9  C   UNL     1      -7.769   0.334 129.832  0.00  0.00    +0.000 A 
ATOM     10  C   UNL     1      -7.710  -1.044 130.017  0.00  0.00    +0.000 A 
ATOM     11  C   UNL     1      -7.795  -1.924 128.923  0.00  0.00    +0.000 A 
ATOM     12  C   UNL     1      -7.663  -3.397 129.212  0.00  0.00    +0.000 C 
ENDBRANCH   3   5
BRANCH   1  19
ATOM     13  C   UNL     1      -4.791  -2.971 123.561  0.00  0.00    +0.000 C 
ATOM     14  N   UNL     1      -6.235  -3.062 123.399  0.00  0.00    +0.000 NA
ATOM     15  C   UNL     1      -6.788  -1.770 122.962  0.00  0.00    +0.000 C 
ATOM     16  C   UNL     1      -8.271  -1.880 122.604  0.00  0.00    +0.000 C 
ATOM     17  C   UNL     1      -9.088  -2.439 123.758  0.00  0.00    +0.000 C 
ATOM     18  C   UNL     1      -8.450  -3.737 124.270  0.00  0.00    +0.000 C 
ATOM     19  C   UNL     1      -6.943  -3.552 124.614  0.00  0.00    +0.000 C 
ENDBRANCH   1  19
TORSDOF 2
ENDMDL
MODEL 8
REMARK VINA RESULT:      -6.2      7.813      9.842
REMARK  Name = Mepivacaine
REMARK  5 active torsions:
REMARK  status: ('A' for Active; 'I' for Inactive)
REMARK    1  A    between atoms: C_1  and  N_2
REMARK    2  A    between atoms: C_7  and  C_8
REMARK    3  A    between atoms: N_10  and  C_11
REMARK    4  A    between atoms: C_12  and  C_13
REMARK    5  A    between atoms: C_17  and  C_18
REMARK                            x       y       z     vdW  Elec       q    Type
REMARK                         _______ _______ _______ _____ _____    ______ ____
ROOT
ATOM      1  C   UNL     1      -6.828  -2.545 125.831  0.00  0.00    +0.000 C 
ATOM      2  O   UNL     1      -5.717  -2.087 126.143  0.00  0.00    +0.000 OA
ATOM      3  N   UNL     1      -7.977  -2.203 126.532  0.00  0.00    +0.000 N 
ATOM      4  H   UNL     1      -8.840  -2.697 126.379  0.00  0.00    +0.000 HD
ENDROOT
BRANCH   3   5
ATOM      5  C   UNL     1      -7.917  -1.361 127.663  0.00  0.00    +0.000 A 
ATOM      6  C   UNL     1      -7.807  -1.960 128.935  0.00  0.00    +0.000 A 
ATOM      7  C   UNL     1      -7.667  -3.449 129.141  0.00  0.00    +0.000 C 
ATOM      8  C   UNL     1      -7.784  -1.146 130.071  0.00  0.00    +0.000 A 
ATOM      9  C   UNL     1      -7.842   0.239 129.956  0.00  0.00    +0.000 A 
ATOM     10  C   UNL     1      -7.917   0.831 128.699  0.00  0.00    +0.000 A 
ATOM     11  C   UNL     1      -7.943   0.048 127.532  0.00  0.00    +0.000 A 
ATOM     12  C   UNL     1      -8.084   0.774 126.218  0.00  0.00    +0.000 C 
ENDBRANCH   3   5
BRANCH   1  19
ATOM     13  C   UNL     1      -4.803  -2.993 123.596  0.00  0.00    +0.000 C 
ATOM     14  N   UNL     1      -6.248  -3.074 123.430  0.00  0.00    +0.000 NA
ATOM     15  C   UNL     1      -6.787  -1.785 122.969  0.00  0.00    +0.000 C 
ATOM     16  C   UNL     1      -8.271  -1.888 122.608  0.00  0.00    +0.000 C 
ATOM     17  C   UNL     1      -9.097  -2.422 123.767  0.00  0.00    +0.000 C 
ATOM     18  C   UNL     1      -8.471  -3.717 124.301  0.00  0.00    +0.000 C 
ATOM     19  C   UNL     1      -6.965  -3.539 124.648  0.00  0.00    +0.000 C 
ENDBRANCH   1  19
TORSDOF 2
ENDMDL
MODEL 9
REMARK VINA RESULT:      -6.2      1.630      2.072
REMARK  Name = Mepivacaine
REMARK  5 active torsions:
REMARK  status: ('A' for Active; 'I' for Inactive)
REMARK    1  A    between atoms: C_1  and  N_2
REMARK    2  A    between atoms: C_7  and  C_8
REMARK    3  A    between atoms: N_10  and  C_11
REMARK    4  A    between atoms: C_12  and  C_13
REMARK    5  A    between atoms: C_17  and  C_18
REMARK                            x       y       z     vdW  Elec       q    Type
REMARK                         _______ _______ _______ _____ _____    ______ ____
ROOT
ATOM      1  C   UNL     1     -10.459   5.675 130.291  0.00  0.00    +0.000 C 
ATOM      2  O   UNL     1     -11.378   4.903 129.975  0.00  0.00    +0.000 OA
ATOM      3  N   UNL     1      -9.228   5.200 130.724  0.00  0.00    +0.000 N 
ATOM      4  H   UNL     1      -8.549   5.822 131.128  0.00  0.00    +0.000 HD
ENDROOT
BRANCH   3   5
ATOM      5  C   UNL     1      -8.993   3.817 130.873  0.00  0.00    +0.000 A 
ATOM      6  C   UNL     1      -8.567   3.087 129.744  0.00  0.00    +0.000 A 
ATOM      7  C   UNL     1      -8.271   3.725 128.408  0.00  0.00    +0.000 C 
ATOM      8  C   UNL     1      -8.363   1.709 129.861  0.00  0.00    +0.000 A 
ATOM      9  C   UNL     1      -8.552   1.062 131.077  0.00  0.00    +0.000 A 
ATOM     10  C   UNL     1      -8.941   1.787 132.199  0.00  0.00    +0.000 A 
ATOM     11  C   UNL     1      -9.155   3.174 132.125  0.00  0.00    +0.000 A 
ATOM     12  C   UNL     1      -9.629   3.867 133.376  0.00  0.00    +0.000 C 
ENDBRANCH   3   5
BRANCH   1  19
ATOM     13  C   UNL     1     -12.828   7.231 131.413  0.00  0.00    +0.000 C 
ATOM     14  N   UNL     1     -12.105   7.590 130.201  0.00  0.00    +0.000 NA
ATOM     15  C   UNL     1     -12.768   7.021 129.017  0.00  0.00    +0.000 C 
ATOM     16  C   UNL     1     -12.143   7.531 127.717  0.00  0.00    +0.000 C 
ATOM     17  C   UNL     1     -10.648   7.257 127.667  0.00  0.00    +0.000 C 
ATOM     18  C   UNL     1      -9.979   7.769 128.949  0.00  0.00    +0.000 C 
ATOM     19  C   UNL     1     -10.666   7.211 130.229  0.00  0.00    +0.000 C 
ENDBRANCH   1  19
TORSDOF 2
ENDMDL
