MODEL 1
REMARK VINA RESULT:      -5.2      0.000      0.000
REMARK  Name = Meprobamate
REMARK  10 active torsions:
REMARK  status: ('A' for Active; 'I' for Inactive)
REMARK    1  A    between atoms: C_1  and  C_2
REMARK    2  A    between atoms: C_2  and  C_3
REMARK    3  A    between atoms: C_3  and  C_4
REMARK    4  A    between atoms: C_4  and  C_5
REMARK    5  A    between atoms: C_4  and  C_6
REMARK    6  A    between atoms: C_4  and  C_11
REMARK    7  A    between atoms: C_6  and  O_7
REMARK    8  A    between atoms: O_7  and  C_8
REMARK    9  A    between atoms: C_11  and  O_12
REMARK   10  A    between atoms: O_12  and  C_13
REMARK                            x       y       z     vdW  Elec       q    Type
REMARK                         _______ _______ _______ _____ _____    ______ ____
ROOT
ATOM      1  C   UNL     1      -6.346  -2.084 123.903  0.00  0.00    +0.000 C 
ATOM      2  C   UNL     1      -5.744  -1.452 125.175  0.00  0.00    +0.000 C 
ENDROOT
BRANCH   1   3
ATOM      3  C   UNL     1      -5.228  -2.822 123.112  0.00  0.00    +0.000 C 
BRANCH   3   5
ATOM      4  C   UNL     1      -4.256  -5.152 123.320  0.00  0.00    +0.000 C 
ATOM      5  C   UNL     1      -4.394  -3.791 123.955  0.00  0.00    +0.000 C 
ENDBRANCH   3   5
ENDBRANCH   1   3
BRANCH   1   6
ATOM      6  C   UNL     1      -7.024  -0.984 123.038  0.00  0.00    +0.000 C 
BRANCH   6   7
ATOM      7  O   UNL     1      -8.430  -1.252 122.872  0.00  0.00    +0.000 OA
BRANCH   7   8
ATOM      8  C   UNL     1      -9.409  -0.380 123.202  0.00  0.00    +0.000 C 
ATOM      9  N   UNL     1      -9.317   0.200 124.422  0.00  0.00    +0.000 N 
ATOM     10  O   UNL     1     -10.322  -0.100 122.433  0.00  0.00    +0.000 OA
ATOM     11  H   UNL     1      -8.553   0.048 125.058  0.00  0.00    +0.000 HD
ATOM     12  H   UNL     1      -9.974   0.942 124.618  0.00  0.00    +0.000 HD
ENDBRANCH   7   8
ENDBRANCH   6   7
ENDBRANCH   1   6
BRANCH   1  13
ATOM     13  C   UNL     1      -7.417  -3.129 124.313  0.00  0.00    +0.000 C 
BRANCH  13  14
ATOM     14  O   UNL     1      -7.684  -3.029 125.725  0.00  0.00    +0.000 OA
BRANCH  14  15
ATOM     15  C   UNL     1      -8.928  -3.133 126.251  0.00  0.00    +0.000 C 
ATOM     16  N   UNL     1      -9.051  -3.789 127.432  0.00  0.00    +0.000 N 
ATOM     17  O   UNL     1      -9.911  -2.668 125.686  0.00  0.00    +0.000 OA
ATOM     18  H   UNL     1      -8.291  -4.184 127.957  0.00  0.00    +0.000 HD
ATOM     19  H   UNL     1      -9.985  -3.856 127.814  0.00  0.00    +0.000 HD
ENDBRANCH  14  15
ENDBRANCH  13  14
ENDBRANCH   1  13
TORSDOF 8
ENDMDL
MODEL 2
REMARK VINA RESULT:      -5.0      1.715      4.394
REMARK  Name = Meprobamate
REMARK  10 active torsions:
REMARK  status: ('A' for Active; 'I' for Inactive)
REMARK    1  A    between atoms: C_1  and  C_2
REMARK    2  A    between atoms: C_2  and  C_3
REMARK    3  A    between atoms: C_3  and  C_4
REMARK    4  A    between atoms: C_4  and  C_5
REMARK    5  A    between atoms: C_4  and  C_6
REMARK    6  A    between atoms: C_4  and  C_11
REMARK    7  A    between atoms: C_6  and  O_7
REMARK    8  A    between atoms: O_7  and  C_8
REMARK    9  A    between atoms: C_11  and  O_12
REMARK   10  A    between atoms: O_12  and  C_13
REMARK                            x       y       z     vdW  Elec       q    Type
REMARK                         _______ _______ _______ _____ _____    ______ ____
ROOT
ATOM      1  C   UNL     1      -8.731  -2.719 124.360  0.00  0.00    +0.000 C 
ATOM      2  C   UNL     1      -9.660  -3.292 123.270  0.00  0.00    +0.000 C 
ENDROOT
BRANCH   1   3
ATOM      3  C   UNL     1      -7.395  -3.517 124.374  0.00  0.00    +0.000 C 
BRANCH   3   5
ATOM      4  C   UNL     1      -4.958  -3.485 123.685  0.00  0.00    +0.000 C 
ATOM      5  C   UNL     1      -6.149  -2.667 124.116  0.00  0.00    +0.000 C 
ENDBRANCH   3   5
ENDBRANCH   1   3
BRANCH   1   6
ATOM      6  C   UNL     1      -9.442  -2.775 125.741  0.00  0.00    +0.000 C 
BRANCH   6   7
ATOM      7  O   UNL     1      -8.653  -3.511 126.698  0.00  0.00    +0.000 OA
BRANCH   7   8
ATOM      8  C   UNL     1      -8.249  -3.009 127.886  0.00  0.00    +0.000 C 
ATOM      9  N   UNL     1      -7.377  -1.974 127.842  0.00  0.00    +0.000 N 
ATOM     10  O   UNL     1      -8.664  -3.444 128.955  0.00  0.00    +0.000 OA
ATOM     11  H   UNL     1      -7.060  -1.545 126.990  0.00  0.00    +0.000 HD
ATOM     12  H   UNL     1      -7.174  -1.520 128.721  0.00  0.00    +0.000 HD
ENDBRANCH   7   8
ENDBRANCH   6   7
ENDBRANCH   1   6
BRANCH   1  13
ATOM     13  C   UNL     1      -8.405  -1.240 124.024  0.00  0.00    +0.000 C 
BRANCH  13  14
ATOM     14  O   UNL     1      -9.537  -0.405 124.336  0.00  0.00    +0.000 OA
BRANCH  14  15
ATOM     15  C   UNL     1     -10.050   0.499 123.467  0.00  0.00    +0.000 C 
ATOM     16  N   UNL     1     -10.010   1.805 123.834  0.00  0.00    +0.000 N 
ATOM     17  O   UNL     1     -10.543   0.162 122.397  0.00  0.00    +0.000 OA
ATOM     18  H   UNL     1      -9.613   2.154 124.688  0.00  0.00    +0.000 HD
ATOM     19  H   UNL     1     -10.395   2.469 123.175  0.00  0.00    +0.000 HD
ENDBRANCH  14  15
ENDBRANCH  13  14
ENDBRANCH   1  13
TORSDOF 8
ENDMDL
MODEL 3
REMARK VINA RESULT:      -5.0      2.432      3.926
REMARK  Name = Meprobamate
REMARK  10 active torsions:
REMARK  status: ('A' for Active; 'I' for Inactive)
REMARK    1  A    between atoms: C_1  and  C_2
REMARK    2  A    between atoms: C_2  and  C_3
REMARK    3  A    between atoms: C_3  and  C_4
REMARK    4  A    between atoms: C_4  and  C_5
REMARK    5  A    between atoms: C_4  and  C_6
REMARK    6  A    between atoms: C_4  and  C_11
REMARK    7  A    between atoms: C_6  and  O_7
REMARK    8  A    between atoms: O_7  and  C_8
REMARK    9  A    between atoms: C_11  and  O_12
REMARK   10  A    between atoms: O_12  and  C_13
REMARK                            x       y       z     vdW  Elec       q    Type
REMARK                         _______ _______ _______ _____ _____    ______ ____
ROOT
ATOM      1  C   UNL     1      -7.871  -2.260 124.154  0.00  0.00    +0.000 C 
ATOM      2  C   UNL     1      -9.013  -2.992 123.419  0.00  0.00    +0.000 C 
ENDROOT
BRANCH   1   3
ATOM      3  C   UNL     1      -7.727  -2.838 125.592  0.00  0.00    +0.000 C 
BRANCH   3   5
ATOM      4  C   UNL     1      -8.915  -3.831 127.595  0.00  0.00    +0.000 C 
ATOM      5  C   UNL     1      -9.052  -3.008 126.339  0.00  0.00    +0.000 C 
ENDBRANCH   3   5
ENDBRANCH   1   3
BRANCH   1   6
ATOM      6  C   UNL     1      -8.155  -0.732 124.179  0.00  0.00    +0.000 C 
BRANCH   6   7
ATOM      7  O   UNL     1      -9.573  -0.471 124.163  0.00  0.00    +0.000 OA
BRANCH   7   8
ATOM      8  C   UNL     1     -10.139   0.575 123.520  0.00  0.00    +0.000 C 
ATOM      9  N   UNL     1     -10.093   1.772 124.151  0.00  0.00    +0.000 N 
ATOM     10  O   UNL     1     -10.648   0.461 122.409  0.00  0.00    +0.000 OA
ATOM     11  H   UNL     1      -9.633   1.923 125.031  0.00  0.00    +0.000 HD
ATOM     12  H   UNL     1     -10.403   2.572 123.618  0.00  0.00    +0.000 HD
ENDBRANCH   7   8
ENDBRANCH   6   7
ENDBRANCH   1   6
BRANCH   1  13
ATOM     13  C   UNL     1      -6.539  -2.509 123.398  0.00  0.00    +0.000 C 
BRANCH  13  14
ATOM     14  O   UNL     1      -5.898  -3.693 123.911  0.00  0.00    +0.000 OA
BRANCH  14  15
ATOM     15  C   UNL     1      -4.645  -4.066 123.555  0.00  0.00    +0.000 C 
ATOM     16  N   UNL     1      -4.401  -5.397 123.447  0.00  0.00    +0.000 N 
ATOM     17  O   UNL     1      -3.758  -3.247 123.349  0.00  0.00    +0.000 OA
ATOM     18  H   UNL     1      -5.080  -6.124 123.590  0.00  0.00    +0.000 HD
ATOM     19  H   UNL     1      -3.462  -5.661 123.179  0.00  0.00    +0.000 HD
ENDBRANCH  14  15
ENDBRANCH  13  14
ENDBRANCH   1  13
TORSDOF 8
ENDMDL
MODEL 4
REMARK VINA RESULT:      -4.8      4.460      6.334
REMARK  Name = Meprobamate
REMARK  10 active torsions:
REMARK  status: ('A' for Active; 'I' for Inactive)
REMARK    1  A    between atoms: C_1  and  C_2
REMARK    2  A    between atoms: C_2  and  C_3
REMARK    3  A    between atoms: C_3  and  C_4
REMARK    4  A    between atoms: C_4  and  C_5
REMARK    5  A    between atoms: C_4  and  C_6
REMARK    6  A    between atoms: C_4  and  C_11
REMARK    7  A    between atoms: C_6  and  O_7
REMARK    8  A    between atoms: O_7  and  C_8
REMARK    9  A    between atoms: C_11  and  O_12
REMARK   10  A    between atoms: O_12  and  C_13
REMARK                            x       y       z     vdW  Elec       q    Type
REMARK                         _______ _______ _______ _____ _____    ______ ____
ROOT
ATOM      1  C   UNL     1      -7.060   2.800 122.995  0.00  0.00    +0.000 C 
ATOM      2  C   UNL     1      -6.715   1.298 123.074  0.00  0.00    +0.000 C 
ENDROOT
BRANCH   1   3
ATOM      3  C   UNL     1      -6.110   3.496 121.978  0.00  0.00    +0.000 C 
BRANCH   3   5
ATOM      4  C   UNL     1      -5.925   4.762 119.792  0.00  0.00    +0.000 C 
ATOM      5  C   UNL     1      -6.763   3.834 120.635  0.00  0.00    +0.000 C 
ENDBRANCH   3   5
ENDBRANCH   1   3
BRANCH   1   6
ATOM      6  C   UNL     1      -6.951   3.440 124.407  0.00  0.00    +0.000 C 
BRANCH   6   7
ATOM      7  O   UNL     1      -8.186   4.087 124.776  0.00  0.00    +0.000 OA
BRANCH   7   8
ATOM      8  C   UNL     1      -8.374   4.743 125.943  0.00  0.00    +0.000 C 
ATOM      9  N   UNL     1      -7.748   4.236 127.031  0.00  0.00    +0.000 N 
ATOM     10  O   UNL     1      -9.053   5.762 126.018  0.00  0.00    +0.000 OA
ATOM     11  H   UNL     1      -7.132   3.441 127.003  0.00  0.00    +0.000 HD
ATOM     12  H   UNL     1      -7.785   4.794 127.872  0.00  0.00    +0.000 HD
ENDBRANCH   7   8
ENDBRANCH   6   7
ENDBRANCH   1   6
BRANCH   1  13
ATOM     13  C   UNL     1      -8.516   2.959 122.483  0.00  0.00    +0.000 C 
BRANCH  13  14
ATOM     14  O   UNL     1      -9.129   1.664 122.337  0.00  0.00    +0.000 OA
BRANCH  14  15
ATOM     15  C   UNL     1     -10.190   1.262 123.078  0.00  0.00    +0.000 C 
ATOM     16  N   UNL     1     -10.302   1.773 124.330  0.00  0.00    +0.000 N 
ATOM     17  O   UNL     1     -11.011   0.459 122.651  0.00  0.00    +0.000 OA
ATOM     18  H   UNL     1      -9.675   2.441 124.741  0.00  0.00    +0.000 HD
ATOM     19  H   UNL     1     -11.100   1.466 124.871  0.00  0.00    +0.000 HD
ENDBRANCH  14  15
ENDBRANCH  13  14
ENDBRANCH   1  13
TORSDOF 8
ENDMDL
MODEL 5
REMARK VINA RESULT:      -4.6      2.336      3.598
REMARK  Name = Meprobamate
REMARK  10 active torsions:
REMARK  status: ('A' for Active; 'I' for Inactive)
REMARK    1  A    between atoms: C_1  and  C_2
REMARK    2  A    between atoms: C_2  and  C_3
REMARK    3  A    between atoms: C_3  and  C_4
REMARK    4  A    between atoms: C_4  and  C_5
REMARK    5  A    between atoms: C_4  and  C_6
REMARK    6  A    between atoms: C_4  and  C_11
REMARK    7  A    between atoms: C_6  and  O_7
REMARK    8  A    between atoms: O_7  and  C_8
REMARK    9  A    between atoms: C_11  and  O_12
REMARK   10  A    between atoms: O_12  and  C_13
REMARK                            x       y       z     vdW  Elec       q    Type
REMARK                         _______ _______ _______ _____ _____    ______ ____
ROOT
ATOM      1  C   UNL     1      -7.379  -2.164 124.058  0.00  0.00    +0.000 C 
ATOM      2  C   UNL     1      -8.127  -3.482 124.348  0.00  0.00    +0.000 C 
ENDROOT
BRANCH   1   3
ATOM      3  C   UNL     1      -5.993  -2.484 123.426  0.00  0.00    +0.000 C 
BRANCH   3   5
ATOM      4  C   UNL     1      -4.442  -4.485 123.496  0.00  0.00    +0.000 C 
ATOM      5  C   UNL     1      -5.099  -3.380 124.285  0.00  0.00    +0.000 C 
ENDBRANCH   3   5
ENDBRANCH   1   3
BRANCH   1   6
ATOM      6  C   UNL     1      -7.230  -1.344 125.370  0.00  0.00    +0.000 C 
BRANCH   6   7
ATOM      7  O   UNL     1      -6.340  -0.226 125.181  0.00  0.00    +0.000 OA
BRANCH   7   8
ATOM      8  C   UNL     1      -6.572   1.013 125.668  0.00  0.00    +0.000 C 
ATOM      9  N   UNL     1      -5.488   1.801 125.863  0.00  0.00    +0.000 N 
ATOM     10  O   UNL     1      -7.705   1.424 125.899  0.00  0.00    +0.000 OA
ATOM     11  H   UNL     1      -4.549   1.528 125.628  0.00  0.00    +0.000 HD
ATOM     12  H   UNL     1      -5.670   2.765 126.105  0.00  0.00    +0.000 HD
ENDBRANCH   7   8
ENDBRANCH   6   7
ENDBRANCH   1   6
BRANCH   1  13
ATOM     13  C   UNL     1      -8.195  -1.331 123.036  0.00  0.00    +0.000 C 
BRANCH  13  14
ATOM     14  O   UNL     1      -9.222  -0.587 123.719  0.00  0.00    +0.000 OA
BRANCH  14  15
ATOM     15  C   UNL     1      -9.871   0.462 123.157  0.00  0.00    +0.000 C 
ATOM     16  N   UNL     1      -9.468   1.706 123.516  0.00  0.00    +0.000 N 
ATOM     17  O   UNL     1     -10.794   0.305 122.366  0.00  0.00    +0.000 OA
ATOM     18  H   UNL     1      -8.714   1.911 124.148  0.00  0.00    +0.000 HD
ATOM     19  H   UNL     1      -9.959   2.480 123.088  0.00  0.00    +0.000 HD
ENDBRANCH  14  15
ENDBRANCH  13  14
ENDBRANCH   1  13
TORSDOF 8
ENDMDL
MODEL 6
REMARK VINA RESULT:      -4.6      1.998      2.090
REMARK  Name = Meprobamate
REMARK  10 active torsions:
REMARK  status: ('A' for Active; 'I' for Inactive)
REMARK    1  A    between atoms: C_1  and  C_2
REMARK    2  A    between atoms: C_2  and  C_3
REMARK    3  A    between atoms: C_3  and  C_4
REMARK    4  A    between atoms: C_4  and  C_5
REMARK    5  A    between atoms: C_4  and  C_6
REMARK    6  A    between atoms: C_4  and  C_11
REMARK    7  A    between atoms: C_6  and  O_7
REMARK    8  A    between atoms: O_7  and  C_8
REMARK    9  A    between atoms: C_11  and  O_12
REMARK   10  A    between atoms: O_12  and  C_13
REMARK                            x       y       z     vdW  Elec       q    Type
REMARK                         _______ _______ _______ _____ _____    ______ ____
ROOT
ATOM      1  C   UNL     1      -6.288  -1.667 124.387  0.00  0.00    +0.000 C 
ATOM      2  C   UNL     1      -5.188  -0.906 125.158  0.00  0.00    +0.000 C 
ENDROOT
BRANCH   1   3
ATOM      3  C   UNL     1      -5.627  -2.638 123.366  0.00  0.00    +0.000 C 
BRANCH   3   5
ATOM      4  C   UNL     1      -4.445  -4.875 123.476  0.00  0.00    +0.000 C 
ATOM      5  C   UNL     1      -4.447  -3.436 123.927  0.00  0.00    +0.000 C 
ENDBRANCH   3   5
ENDBRANCH   1   3
BRANCH   1   6
ATOM      6  C   UNL     1      -7.233  -0.655 123.682  0.00  0.00    +0.000 C 
BRANCH   6   7
ATOM      7  O   UNL     1      -7.284   0.592 124.403  0.00  0.00    +0.000 OA
BRANCH   7   8
ATOM      8  C   UNL     1      -7.476   1.795 123.816  0.00  0.00    +0.000 C 
ATOM      9  N   UNL     1      -8.501   2.543 124.289  0.00  0.00    +0.000 N 
ATOM     10  O   UNL     1      -6.748   2.209 122.920  0.00  0.00    +0.000 OA
ATOM     11  H   UNL     1      -9.082   2.270 125.063  0.00  0.00    +0.000 HD
ATOM     12  H   UNL     1      -8.566   3.488 123.940  0.00  0.00    +0.000 HD
ENDBRANCH   7   8
ENDBRANCH   6   7
ENDBRANCH   1   6
BRANCH   1  13
ATOM     13  C   UNL     1      -7.117  -2.513 125.390  0.00  0.00    +0.000 C 
BRANCH  13  14
ATOM     14  O   UNL     1      -7.980  -3.416 124.673  0.00  0.00    +0.000 OA
BRANCH  14  15
ATOM     15  C   UNL     1      -9.322  -3.246 124.591  0.00  0.00    +0.000 C 
ATOM     16  N   UNL     1      -9.912  -3.524 123.401  0.00  0.00    +0.000 N 
ATOM     17  O   UNL     1      -9.984  -2.847 125.542  0.00  0.00    +0.000 OA
ATOM     18  H   UNL     1      -9.436  -3.864 122.585  0.00  0.00    +0.000 HD
ATOM     19  H   UNL     1     -10.914  -3.395 123.355  0.00  0.00    +0.000 HD
ENDBRANCH  14  15
ENDBRANCH  13  14
ENDBRANCH   1  13
TORSDOF 8
ENDMDL
MODEL 7
REMARK VINA RESULT:      -4.5      4.752      6.021
REMARK  Name = Meprobamate
REMARK  10 active torsions:
REMARK  status: ('A' for Active; 'I' for Inactive)
REMARK    1  A    between atoms: C_1  and  C_2
REMARK    2  A    between atoms: C_2  and  C_3
REMARK    3  A    between atoms: C_3  and  C_4
REMARK    4  A    between atoms: C_4  and  C_5
REMARK    5  A    between atoms: C_4  and  C_6
REMARK    6  A    between atoms: C_4  and  C_11
REMARK    7  A    between atoms: C_6  and  O_7
REMARK    8  A    between atoms: O_7  and  C_8
REMARK    9  A    between atoms: C_11  and  O_12
REMARK   10  A    between atoms: O_12  and  C_13
REMARK                            x       y       z     vdW  Elec       q    Type
REMARK                         _______ _______ _______ _____ _____    ______ ____
ROOT
ATOM      1  C   UNL     1      -7.966   1.501 124.229  0.00  0.00    +0.000 C 
ATOM      2  C   UNL     1      -7.253   1.189 125.561  0.00  0.00    +0.000 C 
ENDROOT
BRANCH   1   3
ATOM      3  C   UNL     1      -8.853   0.288 123.822  0.00  0.00    +0.000 C 
BRANCH   3   5
ATOM      4  C   UNL     1      -8.938  -2.136 123.093  0.00  0.00    +0.000 C 
ATOM      5  C   UNL     1      -8.068  -0.924 123.314  0.00  0.00    +0.000 C 
ENDBRANCH   3   5
ENDBRANCH   1   3
BRANCH   1   6
ATOM      6  C   UNL     1      -6.915   1.832 123.133  0.00  0.00    +0.000 C 
BRANCH   6   7
ATOM      7  O   UNL     1      -7.191   3.109 122.524  0.00  0.00    +0.000 OA
BRANCH   7   8
ATOM      8  C   UNL     1      -6.273   3.837 121.850  0.00  0.00    +0.000 C 
ATOM      9  N   UNL     1      -6.313   3.762 120.498  0.00  0.00    +0.000 N 
ATOM     10  O   UNL     1      -5.458   4.554 122.422  0.00  0.00    +0.000 OA
ATOM     11  H   UNL     1      -7.002   3.237 119.987  0.00  0.00    +0.000 HD
ATOM     12  H   UNL     1      -5.713   4.400 119.995  0.00  0.00    +0.000 HD
ENDBRANCH   7   8
ENDBRANCH   6   7
ENDBRANCH   1   6
BRANCH   1  13
ATOM     13  C   UNL     1      -8.892   2.731 124.424  0.00  0.00    +0.000 C 
BRANCH  13  14
ATOM     14  O   UNL     1      -8.502   3.455 125.607  0.00  0.00    +0.000 OA
BRANCH  14  15
ATOM     15  C   UNL     1      -8.173   4.769 125.593  0.00  0.00    +0.000 C 
ATOM     16  N   UNL     1      -6.976   5.104 125.049  0.00  0.00    +0.000 N 
ATOM     17  O   UNL     1      -8.913   5.628 126.060  0.00  0.00    +0.000 OA
ATOM     18  H   UNL     1      -6.325   4.458 124.639  0.00  0.00    +0.000 HD
ATOM     19  H   UNL     1      -6.744   6.089 125.043  0.00  0.00    +0.000 HD
ENDBRANCH  14  15
ENDBRANCH  13  14
ENDBRANCH   1  13
TORSDOF 8
ENDMDL
MODEL 8
REMARK VINA RESULT:      -4.5      9.038     10.323
REMARK  Name = Meprobamate
REMARK  10 active torsions:
REMARK  status: ('A' for Active; 'I' for Inactive)
REMARK    1  A    between atoms: C_1  and  C_2
REMARK    2  A    between atoms: C_2  and  C_3
REMARK    3  A    between atoms: C_3  and  C_4
REMARK    4  A    between atoms: C_4  and  C_5
REMARK    5  A    between atoms: C_4  and  C_6
REMARK    6  A    between atoms: C_4  and  C_11
REMARK    7  A    between atoms: C_6  and  O_7
REMARK    8  A    between atoms: O_7  and  C_8
REMARK    9  A    between atoms: C_11  and  O_12
REMARK   10  A    between atoms: O_12  and  C_13
REMARK                            x       y       z     vdW  Elec       q    Type
REMARK                         _______ _______ _______ _____ _____    ______ ____
ROOT
ATOM      1  C   UNL     1     -10.656   6.058 130.499  0.00  0.00    +0.000 C 
ATOM      2  C   UNL     1     -12.010   6.673 130.913  0.00  0.00    +0.000 C 
ENDROOT
BRANCH   1   3
ATOM      3  C   UNL     1      -9.563   6.478 131.524  0.00  0.00    +0.000 C 
BRANCH   3   5
ATOM      4  C   UNL     1      -7.034   6.383 131.627  0.00  0.00    +0.000 C 
ATOM      5  C   UNL     1      -8.239   6.913 130.891  0.00  0.00    +0.000 C 
ENDBRANCH   3   5
ENDBRANCH   1   3
BRANCH   1   6
ATOM      6  C   UNL     1     -10.291   6.512 129.058  0.00  0.00    +0.000 C 
BRANCH   6   7
ATOM      7  O   UNL     1     -11.468   6.600 128.231  0.00  0.00    +0.000 OA
BRANCH   7   8
ATOM      8  C   UNL     1     -11.548   7.353 127.111  0.00  0.00    +0.000 C 
ATOM      9  N   UNL     1     -12.411   6.930 126.157  0.00  0.00    +0.000 N 
ATOM     10  O   UNL     1     -10.898   8.383 126.967  0.00  0.00    +0.000 OA
ATOM     11  H   UNL     1     -13.008   6.128 126.258  0.00  0.00    +0.000 HD
ATOM     12  H   UNL     1     -12.563   7.557 125.379  0.00  0.00    +0.000 HD
ENDBRANCH   7   8
ENDBRANCH   6   7
ENDBRANCH   1   6
BRANCH   1  13
ATOM     13  C   UNL     1     -10.772   4.511 130.523  0.00  0.00    +0.000 C 
BRANCH  13  14
ATOM     14  O   UNL     1      -9.906   3.939 129.525  0.00  0.00    +0.000 OA
BRANCH  14  15
ATOM     15  C   UNL     1      -8.771   3.265 129.832  0.00  0.00    +0.000 C 
ATOM     16  N   UNL     1      -8.564   2.959 131.137  0.00  0.00    +0.000 N 
ATOM     17  O   UNL     1      -7.952   2.951 128.976  0.00  0.00    +0.000 OA
ATOM     18  H   UNL     1      -9.194   3.174 131.889  0.00  0.00    +0.000 HD
ATOM     19  H   UNL     1      -7.714   2.454 131.351  0.00  0.00    +0.000 HD
ENDBRANCH  14  15
ENDBRANCH  13  14
ENDBRANCH   1  13
TORSDOF 8
ENDMDL
MODEL 9
REMARK VINA RESULT:      -4.4      2.569      3.724
REMARK  Name = Meprobamate
REMARK  10 active torsions:
REMARK  status: ('A' for Active; 'I' for Inactive)
REMARK    1  A    between atoms: C_1  and  C_2
REMARK    2  A    between atoms: C_2  and  C_3
REMARK    3  A    between atoms: C_3  and  C_4
REMARK    4  A    between atoms: C_4  and  C_5
REMARK    5  A    between atoms: C_4  and  C_6
REMARK    6  A    between atoms: C_4  and  C_11
REMARK    7  A    between atoms: C_6  and  O_7
REMARK    8  A    between atoms: O_7  and  C_8
REMARK    9  A    between atoms: C_11  and  O_12
REMARK   10  A    between atoms: O_12  and  C_13
REMARK                            x       y       z     vdW  Elec       q    Type
REMARK                         _______ _______ _______ _____ _____    ______ ____
ROOT
ATOM      1  C   UNL     1      -7.067  -0.406 124.316  0.00  0.00    +0.000 C 
ATOM      2  C   UNL     1      -6.030  -0.258 125.450  0.00  0.00    +0.000 C 
ENDROOT
BRANCH   1   3
ATOM      3  C   UNL     1      -6.996  -1.849 123.737  0.00  0.00    +0.000 C 
BRANCH   3   5
ATOM      4  C   UNL     1      -5.346  -3.749 124.021  0.00  0.00    +0.000 C 
ATOM      5  C   UNL     1      -5.575  -2.358 123.484  0.00  0.00    +0.000 C 
ENDBRANCH   3   5
ENDBRANCH   1   3
BRANCH   1   6
ATOM      6  C   UNL     1      -6.804   0.662 123.219  0.00  0.00    +0.000 C 
BRANCH   6   7
ATOM      7  O   UNL     1      -6.792   1.989 123.783  0.00  0.00    +0.000 OA
BRANCH   7   8
ATOM      8  C   UNL     1      -7.068   3.110 123.080  0.00  0.00    +0.000 C 
ATOM      9  N   UNL     1      -6.326   4.205 123.370  0.00  0.00    +0.000 N 
ATOM     10  O   UNL     1      -7.926   3.138 122.204  0.00  0.00    +0.000 OA
ATOM     11  H   UNL     1      -5.572   4.210 124.035  0.00  0.00    +0.000 HD
ATOM     12  H   UNL     1      -6.445   5.002 122.761  0.00  0.00    +0.000 HD
ENDBRANCH   7   8
ENDBRANCH   6   7
ENDBRANCH   1   6
BRANCH   1  13
ATOM     13  C   UNL     1      -8.489  -0.189 124.897  0.00  0.00    +0.000 C 
BRANCH  13  14
ATOM     14  O   UNL     1      -9.471  -0.320 123.852  0.00  0.00    +0.000 OA
BRANCH  14  15
ATOM     15  C   UNL     1     -10.288   0.694 123.475  0.00  0.00    +0.000 C 
ATOM     16  N   UNL     1     -10.081   1.905 124.051  0.00  0.00    +0.000 N 
ATOM     17  O   UNL     1     -11.187   0.532 122.658  0.00  0.00    +0.000 OA
ATOM     18  H   UNL     1      -9.359   2.114 124.717  0.00  0.00    +0.000 HD
ATOM     19  H   UNL     1     -10.696   2.653 123.758  0.00  0.00    +0.000 HD
ENDBRANCH  14  15
ENDBRANCH  13  14
ENDBRANCH   1  13
TORSDOF 8
ENDMDL
