MODEL 1
REMARK VINA RESULT:      -8.0      0.000      0.000
REMARK  Name = Meprednisone
REMARK  7 active torsions:
REMARK  status: ('A' for Active; 'I' for Inactive)
REMARK    1  A    between atoms: C_2  and  C_3
REMARK    2  A    between atoms: C_17  and  C_18
REMARK    3  A    between atoms: C_24  and  C_25
REMARK    4  A    between atoms: C_26  and  O_27
REMARK    5  A    between atoms: C_26  and  C_28
REMARK    6  A    between atoms: C_28  and  C_30
REMARK    7  A    between atoms: C_30  and  O_31
REMARK                            x       y       z     vdW  Elec       q    Type
REMARK                         _______ _______ _______ _____ _____    ______ ____
ROOT
ATOM      1  C   UNL     1      -7.088  -2.073 123.946  0.00  0.00    +0.000 C 
ATOM      2  C   UNL     1      -6.696  -2.153 122.451  0.00  0.00    +0.000 C 
ATOM      3  C   UNL     1      -6.263  -1.167 124.751  0.00  0.00    +0.000 C 
ATOM      4  C   UNL     1      -6.666   0.226 124.291  0.00  0.00    +0.000 C 
ATOM      5  C   UNL     1      -6.373   1.175 125.504  0.00  0.00    +0.000 C 
ATOM      6  C   UNL     1      -4.908   0.911 125.957  0.00  0.00    +0.000 C 
ATOM      7  C   UNL     1      -4.575   1.905 126.992  0.00  0.00    +0.000 C 
ATOM      8  C   UNL     1      -4.617   3.264 126.153  0.00  0.00    +0.000 C 
ATOM      9  C   UNL     1      -3.648   4.189 126.027  0.00  0.00    +0.000 C 
ATOM     10  C   UNL     1      -3.108   4.001 127.368  0.00  0.00    +0.000 C 
ATOM     11  O   UNL     1      -2.081   3.437 127.568  0.00  0.00    +0.000 OA
ATOM     12  C   UNL     1      -4.292   4.400 128.346  0.00  0.00    +0.000 C 
ATOM     13  C   UNL     1      -5.622   4.229 127.870  0.00  0.00    +0.000 C 
ATOM     14  C   UNL     1      -6.005   3.830 126.285  0.00  0.00    +0.000 C 
ATOM     15  C   UNL     1      -6.371   5.219 125.688  0.00  0.00    +0.000 C 
ATOM     16  C   UNL     1      -6.518   2.686 125.199  0.00  0.00    +0.000 C 
ATOM     17  C   UNL     1      -7.775   2.813 124.386  0.00  0.00    +0.000 C 
ATOM     18  O   UNL     1      -8.490   3.814 124.383  0.00  0.00    +0.000 OA
ATOM     19  C   UNL     1      -7.954   1.779 123.266  0.00  0.00    +0.000 C 
ATOM     20  C   UNL     1      -8.066   0.121 123.420  0.00  0.00    +0.000 C 
ATOM     21  C   UNL     1      -9.545   0.387 123.073  0.00  0.00    +0.000 C 
ATOM     22  C   UNL     1      -8.496  -1.462 124.099  0.00  0.00    +0.000 C 
ENDROOT
BRANCH  22  23
ATOM     23  O   UNL     1      -9.562  -1.295 125.050  0.00  0.00    +0.000 OA
ATOM     24  H   UNL     1      -9.329  -0.458 125.552  0.00  0.00    +0.000 HD
ENDBRANCH  22  23
BRANCH  22  25
ATOM     25  C   UNL     1      -9.096  -2.994 124.026  0.00  0.00    +0.000 C 
ATOM     26  O   UNL     1      -9.999  -3.346 123.265  0.00  0.00    +0.000 OA
BRANCH  25  27
ATOM     27  C   UNL     1      -8.501  -4.080 125.149  0.00  0.00    +0.000 C 
BRANCH  27  28
ATOM     28  O   UNL     1      -8.676  -3.771 126.525  0.00  0.00    +0.000 OA
ATOM     29  H   UNL     1      -8.380  -4.545 127.030  0.00  0.00    +0.000 HD
ENDBRANCH  27  28
ENDBRANCH  25  27
ENDBRANCH  22  25
TORSDOF 4
ENDMDL
MODEL 2
REMARK VINA RESULT:      -7.7      3.571      4.234
REMARK  Name = Meprednisone
REMARK  7 active torsions:
REMARK  status: ('A' for Active; 'I' for Inactive)
REMARK    1  A    between atoms: C_2  and  C_3
REMARK    2  A    between atoms: C_17  and  C_18
REMARK    3  A    between atoms: C_24  and  C_25
REMARK    4  A    between atoms: C_26  and  O_27
REMARK    5  A    between atoms: C_26  and  C_28
REMARK    6  A    between atoms: C_28  and  C_30
REMARK    7  A    between atoms: C_30  and  O_31
REMARK                            x       y       z     vdW  Elec       q    Type
REMARK                         _______ _______ _______ _____ _____    ______ ____
ROOT
ATOM      1  C   UNL     1      -6.881  -1.750 125.497  0.00  0.00    +0.000 C 
ATOM      2  C   UNL     1      -5.412  -1.535 125.060  0.00  0.00    +0.000 C 
ATOM      3  C   UNL     1      -7.170  -1.384 126.887  0.00  0.00    +0.000 C 
ATOM      4  C   UNL     1      -7.103   0.136 126.902  0.00  0.00    +0.000 C 
ATOM      5  C   UNL     1      -8.025   0.589 128.087  0.00  0.00    +0.000 C 
ATOM      6  C   UNL     1      -7.589  -0.211 129.347  0.00  0.00    +0.000 C 
ATOM      7  C   UNL     1      -8.344   0.320 130.496  0.00  0.00    +0.000 C 
ATOM      8  C   UNL     1      -7.762   1.804 130.601  0.00  0.00    +0.000 C 
ATOM      9  C   UNL     1      -7.196   2.397 131.668  0.00  0.00    +0.000 C 
ATOM     10  C   UNL     1      -8.009   1.701 132.656  0.00  0.00    +0.000 C 
ATOM     11  O   UNL     1      -7.579   0.825 133.335  0.00  0.00    +0.000 OA
ATOM     12  C   UNL     1      -9.500   2.153 132.351  0.00  0.00    +0.000 C 
ATOM     13  C   UNL     1      -9.813   2.521 131.013  0.00  0.00    +0.000 C 
ATOM     14  C   UNL     1      -8.667   2.699 129.799  0.00  0.00    +0.000 C 
ATOM     15  C   UNL     1      -8.466   4.241 129.777  0.00  0.00    +0.000 C 
ATOM     16  C   UNL     1      -7.957   2.099 128.425  0.00  0.00    +0.000 C 
ATOM     17  C   UNL     1      -7.969   2.809 127.101  0.00  0.00    +0.000 C 
ATOM     18  O   UNL     1      -8.426   3.938 126.935  0.00  0.00    +0.000 OA
ATOM     19  C   UNL     1      -7.056   2.218 126.018  0.00  0.00    +0.000 C 
ATOM     20  C   UNL     1      -7.128   0.692 125.347  0.00  0.00    +0.000 C 
ATOM     21  C   UNL     1      -7.661   1.469 124.126  0.00  0.00    +0.000 C 
ATOM     22  C   UNL     1      -7.817  -0.814 124.706  0.00  0.00    +0.000 C 
ENDROOT
BRANCH  22  23
ATOM     23  O   UNL     1      -9.204  -0.601 124.389  0.00  0.00    +0.000 OA
ATOM     24  H   UNL     1      -9.551  -1.507 124.135  0.00  0.00    +0.000 HD
ENDBRANCH  22  23
BRANCH  22  25
ATOM     25  C   UNL     1      -7.974  -2.018 123.595  0.00  0.00    +0.000 C 
ATOM     26  O   UNL     1      -7.520  -1.964 122.450  0.00  0.00    +0.000 OA
BRANCH  25  27
ATOM     27  C   UNL     1      -8.913  -3.326 124.042  0.00  0.00    +0.000 C 
BRANCH  27  28
ATOM     28  O   UNL     1     -10.230  -3.407 123.515  0.00  0.00    +0.000 OA
ATOM     29  H   UNL     1     -10.251  -2.856 122.716  0.00  0.00    +0.000 HD
ENDBRANCH  27  28
ENDBRANCH  25  27
ENDBRANCH  22  25
TORSDOF 4
ENDMDL
MODEL 3
REMARK VINA RESULT:      -7.6      6.638      8.749
REMARK  Name = Meprednisone
REMARK  7 active torsions:
REMARK  status: ('A' for Active; 'I' for Inactive)
REMARK    1  A    between atoms: C_2  and  C_3
REMARK    2  A    between atoms: C_17  and  C_18
REMARK    3  A    between atoms: C_24  and  C_25
REMARK    4  A    between atoms: C_26  and  O_27
REMARK    5  A    between atoms: C_26  and  C_28
REMARK    6  A    between atoms: C_28  and  C_30
REMARK    7  A    between atoms: C_30  and  O_31
REMARK                            x       y       z     vdW  Elec       q    Type
REMARK                         _______ _______ _______ _____ _____    ______ ____
ROOT
ATOM      1  C   UNL     1      -9.718   6.742 130.868  0.00  0.00    +0.000 C 
ATOM      2  C   UNL     1     -10.735   6.321 131.956  0.00  0.00    +0.000 C 
ATOM      3  C   UNL     1      -8.325   6.810 131.321  0.00  0.00    +0.000 C 
ATOM      4  C   UNL     1      -7.919   5.358 131.524  0.00  0.00    +0.000 C 
ATOM      5  C   UNL     1      -6.363   5.323 131.333  0.00  0.00    +0.000 C 
ATOM      6  C   UNL     1      -5.758   6.424 132.250  0.00  0.00    +0.000 C 
ATOM      7  C   UNL     1      -4.291   6.294 132.194  0.00  0.00    +0.000 C 
ATOM      8  C   UNL     1      -4.072   4.871 132.887  0.00  0.00    +0.000 C 
ATOM      9  C   UNL     1      -3.299   4.577 133.949  0.00  0.00    +0.000 C 
ATOM     10  C   UNL     1      -2.280   5.577 133.654  0.00  0.00    +0.000 C 
ATOM     11  O   UNL     1      -2.175   6.583 134.278  0.00  0.00    +0.000 OA
ATOM     12  C   UNL     1      -1.679   5.147 132.249  0.00  0.00    +0.000 C 
ATOM     13  C   UNL     1      -2.530   4.429 131.364  0.00  0.00    +0.000 C 
ATOM     14  C   UNL     1      -4.043   3.839 131.792  0.00  0.00    +0.000 C 
ATOM     15  C   UNL     1      -3.726   2.347 132.096  0.00  0.00    +0.000 C 
ATOM     16  C   UNL     1      -5.693   3.974 131.693  0.00  0.00    +0.000 C 
ATOM     17  C   UNL     1      -6.583   2.914 131.107  0.00  0.00    +0.000 C 
ATOM     18  O   UNL     1      -6.181   1.814 130.730  0.00  0.00    +0.000 OA
ATOM     19  C   UNL     1      -8.089   3.110 131.326  0.00  0.00    +0.000 C 
ATOM     20  C   UNL     1      -9.037   4.380 130.801  0.00  0.00    +0.000 C 
ATOM     21  C   UNL     1      -9.568   3.317 129.817  0.00  0.00    +0.000 C 
ATOM     22  C   UNL     1      -9.653   5.676 129.756  0.00  0.00    +0.000 C 
ENDROOT
BRANCH  22  23
ATOM     23  O   UNL     1      -9.179   5.465 128.414  0.00  0.00    +0.000 OA
ATOM     24  H   UNL     1      -9.253   4.476 128.268  0.00  0.00    +0.000 HD
ENDBRANCH  22  23
BRANCH  22  25
ATOM     25  C   UNL     1     -10.834   6.516 128.974  0.00  0.00    +0.000 C 
ATOM     26  O   UNL     1     -11.937   6.049 128.685  0.00  0.00    +0.000 OA
BRANCH  25  27
ATOM     27  C   UNL     1     -10.432   8.051 128.450  0.00  0.00    +0.000 C 
BRANCH  27  28
ATOM     28  O   UNL     1     -11.471   9.017 128.371  0.00  0.00    +0.000 OA
ATOM     29  H   UNL     1     -11.048   9.881 128.240  0.00  0.00    +0.000 HD
ENDBRANCH  27  28
ENDBRANCH  25  27
ENDBRANCH  22  25
TORSDOF 4
ENDMDL
MODEL 4
REMARK VINA RESULT:      -7.6      5.090      8.487
REMARK  Name = Meprednisone
REMARK  7 active torsions:
REMARK  status: ('A' for Active; 'I' for Inactive)
REMARK    1  A    between atoms: C_2  and  C_3
REMARK    2  A    between atoms: C_17  and  C_18
REMARK    3  A    between atoms: C_24  and  C_25
REMARK    4  A    between atoms: C_26  and  O_27
REMARK    5  A    between atoms: C_26  and  C_28
REMARK    6  A    between atoms: C_28  and  C_30
REMARK    7  A    between atoms: C_30  and  O_31
REMARK                            x       y       z     vdW  Elec       q    Type
REMARK                         _______ _______ _______ _____ _____    ______ ____
ROOT
ATOM      1  C   UNL     1      -8.430   4.821 130.311  0.00  0.00    +0.000 C 
ATOM      2  C   UNL     1      -7.231   5.437 131.073  0.00  0.00    +0.000 C 
ATOM      3  C   UNL     1      -8.100   3.658 129.482  0.00  0.00    +0.000 C 
ATOM      4  C   UNL     1      -7.813   2.546 130.480  0.00  0.00    +0.000 C 
ATOM      5  C   UNL     1      -8.128   1.208 129.726  0.00  0.00    +0.000 C 
ATOM      6  C   UNL     1      -7.358   1.243 128.376  0.00  0.00    +0.000 C 
ATOM      7  C   UNL     1      -7.523  -0.072 127.733  0.00  0.00    +0.000 C 
ATOM      8  C   UNL     1      -6.737  -1.023 128.749  0.00  0.00    +0.000 C 
ATOM      9  C   UNL     1      -5.722  -1.864 128.479  0.00  0.00    +0.000 C 
ATOM     10  C   UNL     1      -6.180  -2.200 127.137  0.00  0.00    +0.000 C 
ATOM     11  O   UNL     1      -5.651  -1.781 126.158  0.00  0.00    +0.000 OA
ATOM     12  C   UNL     1      -7.590  -2.898 127.348  0.00  0.00    +0.000 C 
ATOM     13  C   UNL     1      -8.341  -2.525 128.497  0.00  0.00    +0.000 C 
ATOM     14  C   UNL     1      -7.743  -1.557 129.732  0.00  0.00    +0.000 C 
ATOM     15  C   UNL     1      -7.346  -2.616 130.800  0.00  0.00    +0.000 C 
ATOM     16  C   UNL     1      -7.717  -0.079 130.483  0.00  0.00    +0.000 C 
ATOM     17  C   UNL     1      -8.139   0.141 131.909  0.00  0.00    +0.000 C 
ATOM     18  O   UNL     1      -8.457  -0.767 132.676  0.00  0.00    +0.000 OA
ATOM     19  C   UNL     1      -7.814   1.520 132.497  0.00  0.00    +0.000 C 
ATOM     20  C   UNL     1      -8.360   3.007 131.970  0.00  0.00    +0.000 C 
ATOM     21  C   UNL     1      -9.207   2.930 133.257  0.00  0.00    +0.000 C 
ATOM     22  C   UNL     1      -9.453   4.238 131.307  0.00  0.00    +0.000 C 
ENDROOT
BRANCH  22  23
ATOM     23  O   UNL     1     -10.808   3.762 131.391  0.00  0.00    +0.000 OA
ATOM     24  H   UNL     1     -11.083   3.935 132.340  0.00  0.00    +0.000 HD
ENDBRANCH  22  23
BRANCH  22  25
ATOM     25  C   UNL     1     -10.201   5.705 131.294  0.00  0.00    +0.000 C 
ATOM     26  O   UNL     1     -10.385   6.395 132.298  0.00  0.00    +0.000 OA
BRANCH  25  27
ATOM     27  C   UNL     1     -10.841   6.201 129.831  0.00  0.00    +0.000 C 
BRANCH  27  28
ATOM     28  O   UNL     1     -11.990   5.520 129.346  0.00  0.00    +0.000 OA
ATOM     29  H   UNL     1     -11.681   4.860 128.706  0.00  0.00    +0.000 HD
ENDBRANCH  27  28
ENDBRANCH  25  27
ENDBRANCH  22  25
TORSDOF 4
ENDMDL
MODEL 5
REMARK VINA RESULT:      -7.5      4.296      7.327
REMARK  Name = Meprednisone
REMARK  7 active torsions:
REMARK  status: ('A' for Active; 'I' for Inactive)
REMARK    1  A    between atoms: C_2  and  C_3
REMARK    2  A    between atoms: C_17  and  C_18
REMARK    3  A    between atoms: C_24  and  C_25
REMARK    4  A    between atoms: C_26  and  O_27
REMARK    5  A    between atoms: C_26  and  C_28
REMARK    6  A    between atoms: C_28  and  C_30
REMARK    7  A    between atoms: C_30  and  O_31
REMARK                            x       y       z     vdW  Elec       q    Type
REMARK                         _______ _______ _______ _____ _____    ______ ____
ROOT
ATOM      1  C   UNL     1      -6.642  -3.495 130.699  0.00  0.00    +0.000 C 
ATOM      2  C   UNL     1      -7.461  -2.630 131.687  0.00  0.00    +0.000 C 
ATOM      3  C   UNL     1      -7.152  -3.508 129.324  0.00  0.00    +0.000 C 
ATOM      4  C   UNL     1      -6.841  -2.118 128.790  0.00  0.00    +0.000 C 
ATOM      5  C   UNL     1      -6.720  -2.279 127.234  0.00  0.00    +0.000 C 
ATOM      6  C   UNL     1      -7.996  -3.021 126.744  0.00  0.00    +0.000 C 
ATOM      7  C   UNL     1      -7.964  -3.038 125.271  0.00  0.00    +0.000 C 
ATOM      8  C   UNL     1      -8.110  -1.484 124.932  0.00  0.00    +0.000 C 
ATOM      9  C   UNL     1      -9.030  -0.890 124.150  0.00  0.00    +0.000 C 
ATOM     10  C   UNL     1      -9.159  -2.008 123.223  0.00  0.00    +0.000 C 
ATOM     11  O   UNL     1     -10.105  -2.727 123.217  0.00  0.00    +0.000 OA
ATOM     12  C   UNL     1      -7.722  -2.162 122.567  0.00  0.00    +0.000 C 
ATOM     13  C   UNL     1      -6.601  -1.745 123.337  0.00  0.00    +0.000 C 
ATOM     14  C   UNL     1      -6.721  -0.922 124.795  0.00  0.00    +0.000 C 
ATOM     15  C   UNL     1      -6.486   0.550 124.348  0.00  0.00    +0.000 C 
ATOM     16  C   UNL     1      -6.603  -0.949 126.449  0.00  0.00    +0.000 C 
ATOM     17  C   UNL     1      -5.638  -0.104 127.231  0.00  0.00    +0.000 C 
ATOM     18  O   UNL     1      -4.911   0.750 126.725  0.00  0.00    +0.000 OA
ATOM     19  C   UNL     1      -5.844  -0.086 128.751  0.00  0.00    +0.000 C 
ATOM     20  C   UNL     1      -5.766  -1.379 129.804  0.00  0.00    +0.000 C 
ATOM     21  C   UNL     1      -4.445  -0.703 130.224  0.00  0.00    +0.000 C 
ATOM     22  C   UNL     1      -5.227  -2.911 130.522  0.00  0.00    +0.000 C 
ENDROOT
BRANCH  22  23
ATOM     23  O   UNL     1      -3.921  -3.236 130.014  0.00  0.00    +0.000 OA
ATOM     24  H   UNL     1      -3.806  -4.214 130.208  0.00  0.00    +0.000 HD
ENDBRANCH  22  23
BRANCH  22  25
ATOM     25  C   UNL     1      -4.744  -3.878 131.764  0.00  0.00    +0.000 C 
ATOM     26  O   UNL     1      -5.059  -5.063 131.878  0.00  0.00    +0.000 OA
BRANCH  25  27
ATOM     27  C   UNL     1      -3.876  -3.140 132.987  0.00  0.00    +0.000 C 
BRANCH  27  28
ATOM     28  O   UNL     1      -2.638  -2.532 132.646  0.00  0.00    +0.000 OA
ATOM     29  H   UNL     1      -2.466  -1.844 133.309  0.00  0.00    +0.000 HD
ENDBRANCH  27  28
ENDBRANCH  25  27
ENDBRANCH  22  25
TORSDOF 4
ENDMDL
MODEL 6
REMARK VINA RESULT:      -7.5      1.588      7.106
REMARK  Name = Meprednisone
REMARK  7 active torsions:
REMARK  status: ('A' for Active; 'I' for Inactive)
REMARK    1  A    between atoms: C_2  and  C_3
REMARK    2  A    between atoms: C_17  and  C_18
REMARK    3  A    between atoms: C_24  and  C_25
REMARK    4  A    between atoms: C_26  and  O_27
REMARK    5  A    between atoms: C_26  and  C_28
REMARK    6  A    between atoms: C_28  and  C_30
REMARK    7  A    between atoms: C_30  and  O_31
REMARK                            x       y       z     vdW  Elec       q    Type
REMARK                         _______ _______ _______ _____ _____    ______ ____
ROOT
ATOM      1  C   UNL     1      -5.537   3.574 128.122  0.00  0.00    +0.000 C 
ATOM      2  C   UNL     1      -6.659   4.436 128.749  0.00  0.00    +0.000 C 
ATOM      3  C   UNL     1      -5.898   2.172 127.885  0.00  0.00    +0.000 C 
ATOM      4  C   UNL     1      -6.881   2.223 126.726  0.00  0.00    +0.000 C 
ATOM      5  C   UNL     1      -6.768   0.831 126.012  0.00  0.00    +0.000 C 
ATOM      6  C   UNL     1      -6.925  -0.265 127.105  0.00  0.00    +0.000 C 
ATOM      7  C   UNL     1      -6.976  -1.570 126.424  0.00  0.00    +0.000 C 
ATOM      8  C   UNL     1      -8.346  -1.452 125.611  0.00  0.00    +0.000 C 
ATOM      9  C   UNL     1      -9.404  -2.283 125.648  0.00  0.00    +0.000 C 
ATOM     10  C   UNL     1      -8.620  -3.490 125.877  0.00  0.00    +0.000 C 
ATOM     11  O   UNL     1      -8.579  -4.034 126.932  0.00  0.00    +0.000 OA
ATOM     12  C   UNL     1      -7.702  -3.631 124.589  0.00  0.00    +0.000 C 
ATOM     13  C   UNL     1      -7.352  -2.437 123.899  0.00  0.00    +0.000 C 
ATOM     14  C   UNL     1      -8.011  -0.931 124.240  0.00  0.00    +0.000 C 
ATOM     15  C   UNL     1      -9.100  -0.805 123.136  0.00  0.00    +0.000 C 
ATOM     16  C   UNL     1      -7.828   0.573 124.913  0.00  0.00    +0.000 C 
ATOM     17  C   UNL     1      -7.917   1.854 124.132  0.00  0.00    +0.000 C 
ATOM     18  O   UNL     1      -8.223   1.909 122.942  0.00  0.00    +0.000 OA
ATOM     19  C   UNL     1      -7.965   3.142 124.964  0.00  0.00    +0.000 C 
ATOM     20  C   UNL     1      -6.807   3.716 126.021  0.00  0.00    +0.000 C 
ATOM     21  C   UNL     1      -6.573   4.744 124.895  0.00  0.00    +0.000 C 
ATOM     22  C   UNL     1      -5.208   4.076 126.702  0.00  0.00    +0.000 C 
ENDROOT
BRANCH  22  23
ATOM     23  O   UNL     1      -4.218   3.970 125.663  0.00  0.00    +0.000 OA
ATOM     24  H   UNL     1      -3.352   3.824 126.148  0.00  0.00    +0.000 HD
ENDBRANCH  22  23
BRANCH  22  25
ATOM     25  C   UNL     1      -4.072   5.054 127.383  0.00  0.00    +0.000 C 
ATOM     26  O   UNL     1      -4.167   6.280 127.448  0.00  0.00    +0.000 OA
BRANCH  25  27
ATOM     27  C   UNL     1      -2.665   4.313 127.899  0.00  0.00    +0.000 C 
BRANCH  27  28
ATOM     28  O   UNL     1      -1.755   3.856 126.908  0.00  0.00    +0.000 OA
ATOM     29  H   UNL     1      -1.706   4.546 126.227  0.00  0.00    +0.000 HD
ENDBRANCH  27  28
ENDBRANCH  25  27
ENDBRANCH  22  25
TORSDOF 4
ENDMDL
MODEL 7
REMARK VINA RESULT:      -7.4      3.393      7.719
REMARK  Name = Meprednisone
REMARK  7 active torsions:
REMARK  status: ('A' for Active; 'I' for Inactive)
REMARK    1  A    between atoms: C_2  and  C_3
REMARK    2  A    between atoms: C_17  and  C_18
REMARK    3  A    between atoms: C_24  and  C_25
REMARK    4  A    between atoms: C_26  and  O_27
REMARK    5  A    between atoms: C_26  and  C_28
REMARK    6  A    between atoms: C_28  and  C_30
REMARK    7  A    between atoms: C_30  and  O_31
REMARK                            x       y       z     vdW  Elec       q    Type
REMARK                         _______ _______ _______ _____ _____    ______ ____
ROOT
ATOM      1  C   UNL     1      -7.606   4.029 128.043  0.00  0.00    +0.000 C 
ATOM      2  C   UNL     1      -6.158   4.331 128.500  0.00  0.00    +0.000 C 
ATOM      3  C   UNL     1      -7.732   2.926 127.085  0.00  0.00    +0.000 C 
ATOM      4  C   UNL     1      -7.440   1.677 127.902  0.00  0.00    +0.000 C 
ATOM      5  C   UNL     1      -8.195   0.509 127.176  0.00  0.00    +0.000 C 
ATOM      6  C   UNL     1      -7.788   0.557 125.676  0.00  0.00    +0.000 C 
ATOM      7  C   UNL     1      -8.368  -0.628 125.018  0.00  0.00    +0.000 C 
ATOM      8  C   UNL     1      -7.566  -1.811 125.732  0.00  0.00    +0.000 C 
ATOM      9  C   UNL     1      -6.840  -2.786 125.153  0.00  0.00    +0.000 C 
ATOM     10  C   UNL     1      -7.672  -2.882 123.960  0.00  0.00    +0.000 C 
ATOM     11  O   UNL     1      -7.325  -2.458 122.905  0.00  0.00    +0.000 OA
ATOM     12  C   UNL     1      -9.098  -3.335 124.490  0.00  0.00    +0.000 C 
ATOM     13  C   UNL     1      -9.452  -2.964 125.817  0.00  0.00    +0.000 C 
ATOM     14  C   UNL     1      -8.387  -2.263 126.909  0.00  0.00    +0.000 C 
ATOM     15  C   UNL     1      -7.963  -3.489 127.768  0.00  0.00    +0.000 C 
ATOM     16  C   UNL     1      -7.879  -0.907 127.717  0.00  0.00    +0.000 C 
ATOM     17  C   UNL     1      -7.885  -0.776 129.214  0.00  0.00    +0.000 C 
ATOM     18  O   UNL     1      -8.182  -1.692 129.980  0.00  0.00    +0.000 OA
ATOM     19  C   UNL     1      -7.154   0.448 129.781  0.00  0.00    +0.000 C 
ATOM     20  C   UNL     1      -7.501   2.058 129.509  0.00  0.00    +0.000 C 
ATOM     21  C   UNL     1      -8.003   1.991 130.966  0.00  0.00    +0.000 C 
ATOM     22  C   UNL     1      -8.450   3.532 129.234  0.00  0.00    +0.000 C 
ENDROOT
BRANCH  22  23
ATOM     23  O   UNL     1      -9.811   3.300 129.641  0.00  0.00    +0.000 OA
ATOM     24  H   UNL     1      -9.898   2.302 129.688  0.00  0.00    +0.000 HD
ENDBRANCH  22  23
BRANCH  22  25
ATOM     25  C   UNL     1      -8.866   5.101 129.508  0.00  0.00    +0.000 C 
ATOM     26  O   UNL     1      -9.333   5.852 128.650  0.00  0.00    +0.000 OA
BRANCH  25  27
ATOM     27  C   UNL     1      -8.507   5.712 131.022  0.00  0.00    +0.000 C 
BRANCH  27  28
ATOM     28  O   UNL     1      -9.237   6.847 131.469  0.00  0.00    +0.000 OA
ATOM     29  H   UNL     1      -9.535   6.656 132.373  0.00  0.00    +0.000 HD
ENDBRANCH  27  28
ENDBRANCH  25  27
ENDBRANCH  22  25
TORSDOF 4
ENDMDL
MODEL 8
REMARK VINA RESULT:      -7.3      4.343      7.683
REMARK  Name = Meprednisone
REMARK  7 active torsions:
REMARK  status: ('A' for Active; 'I' for Inactive)
REMARK    1  A    between atoms: C_2  and  C_3
REMARK    2  A    between atoms: C_17  and  C_18
REMARK    3  A    between atoms: C_24  and  C_25
REMARK    4  A    between atoms: C_26  and  O_27
REMARK    5  A    between atoms: C_26  and  C_28
REMARK    6  A    between atoms: C_28  and  C_30
REMARK    7  A    between atoms: C_30  and  O_31
REMARK                            x       y       z     vdW  Elec       q    Type
REMARK                         _______ _______ _______ _____ _____    ______ ____
ROOT
ATOM      1  C   UNL     1      -4.342   2.869 128.668  0.00  0.00    +0.000 C 
ATOM      2  C   UNL     1      -5.375   3.962 129.035  0.00  0.00    +0.000 C 
ATOM      3  C   UNL     1      -4.381   1.675 129.519  0.00  0.00    +0.000 C 
ATOM      4  C   UNL     1      -5.671   0.971 129.128  0.00  0.00    +0.000 C 
ATOM      5  C   UNL     1      -5.442  -0.546 129.454  0.00  0.00    +0.000 C 
ATOM      6  C   UNL     1      -4.934  -0.634 130.922  0.00  0.00    +0.000 C 
ATOM      7  C   UNL     1      -4.865  -2.060 131.285  0.00  0.00    +0.000 C 
ATOM      8  C   UNL     1      -6.408  -2.472 131.249  0.00  0.00    +0.000 C 
ATOM      9  C   UNL     1      -7.137  -3.038 132.229  0.00  0.00    +0.000 C 
ATOM     10  C   UNL     1      -6.034  -3.810 132.788  0.00  0.00    +0.000 C 
ATOM     11  O   UNL     1      -5.504  -3.516 133.810  0.00  0.00    +0.000 OA
ATOM     12  C   UNL     1      -5.595  -4.797 131.625  0.00  0.00    +0.000 C 
ATOM     13  C   UNL     1      -5.821  -4.374 130.286  0.00  0.00    +0.000 C 
ATOM     14  C   UNL     1      -6.698  -3.004 129.872  0.00  0.00    +0.000 C 
ATOM     15  C   UNL     1      -8.085  -3.612 129.516  0.00  0.00    +0.000 C 
ATOM     16  C   UNL     1      -6.701  -1.438 129.325  0.00  0.00    +0.000 C 
ATOM     17  C   UNL     1      -7.377  -0.999 128.057  0.00  0.00    +0.000 C 
ATOM     18  O   UNL     1      -8.065  -1.739 127.356  0.00  0.00    +0.000 OA
ATOM     19  C   UNL     1      -7.480   0.518 127.846  0.00  0.00    +0.000 C 
ATOM     20  C   UNL     1      -6.229   1.615 127.713  0.00  0.00    +0.000 C 
ATOM     21  C   UNL     1      -6.661   1.628 126.232  0.00  0.00    +0.000 C 
ATOM     22  C   UNL     1      -4.648   2.290 127.272  0.00  0.00    +0.000 C 
ENDROOT
BRANCH  22  23
ATOM     23  O   UNL     1      -4.070   1.493 126.223  0.00  0.00    +0.000 OA
ATOM     24  H   UNL     1      -4.187   0.544 126.528  0.00  0.00    +0.000 HD
ENDBRANCH  22  23
BRANCH  22  25
ATOM     25  C   UNL     1      -3.648   3.441 126.649  0.00  0.00    +0.000 C 
ATOM     26  O   UNL     1      -3.969   4.222 125.752  0.00  0.00    +0.000 OA
BRANCH  25  27
ATOM     27  C   UNL     1      -2.073   3.439 127.210  0.00  0.00    +0.000 C 
BRANCH  27  28
ATOM     28  O   UNL     1      -1.193   2.442 126.708  0.00  0.00    +0.000 OA
ATOM     29  H   UNL     1      -1.741   1.777 126.262  0.00  0.00    +0.000 HD
ENDBRANCH  27  28
ENDBRANCH  25  27
ENDBRANCH  22  25
TORSDOF 4
ENDMDL
MODEL 9
REMARK VINA RESULT:      -7.1      7.905     12.567
REMARK  Name = Meprednisone
REMARK  7 active torsions:
REMARK  status: ('A' for Active; 'I' for Inactive)
REMARK    1  A    between atoms: C_2  and  C_3
REMARK    2  A    between atoms: C_17  and  C_18
REMARK    3  A    between atoms: C_24  and  C_25
REMARK    4  A    between atoms: C_26  and  O_27
REMARK    5  A    between atoms: C_26  and  C_28
REMARK    6  A    between atoms: C_28  and  C_30
REMARK    7  A    between atoms: C_30  and  O_31
REMARK                            x       y       z     vdW  Elec       q    Type
REMARK                         _______ _______ _______ _____ _____    ______ ____
ROOT
ATOM      1  C   UNL     1      -3.738   7.127 130.953  0.00  0.00    +0.000 C 
ATOM      2  C   UNL     1      -4.793   6.435 131.849  0.00  0.00    +0.000 C 
ATOM      3  C   UNL     1      -3.264   8.423 131.449  0.00  0.00    +0.000 C 
ATOM      4  C   UNL     1      -2.408   8.078 132.659  0.00  0.00    +0.000 C 
ATOM      5  C   UNL     1      -1.378   9.252 132.798  0.00  0.00    +0.000 C 
ATOM      6  C   UNL     1      -2.185  10.582 132.783  0.00  0.00    +0.000 C 
ATOM      7  C   UNL     1      -1.243  11.678 133.069  0.00  0.00    +0.000 C 
ATOM      8  C   UNL     1      -0.820  11.349 134.574  0.00  0.00    +0.000 C 
ATOM      9  C   UNL     1      -0.900  12.153 135.651  0.00  0.00    +0.000 C 
ATOM     10  C   UNL     1      -0.648  13.387 134.917  0.00  0.00    +0.000 C 
ATOM     11  O   UNL     1      -1.506  14.175 134.682  0.00  0.00    +0.000 OA
ATOM     12  C   UNL     1       0.811  13.215 134.317  0.00  0.00    +0.000 C 
ATOM     13  C   UNL     1       1.259  11.892 134.050  0.00  0.00    +0.000 C 
ATOM     14  C   UNL     1       0.428  10.510 134.516  0.00  0.00    +0.000 C 
ATOM     15  C   UNL     1       1.189  10.103 135.810  0.00  0.00    +0.000 C 
ATOM     16  C   UNL     1      -0.523   9.220 134.089  0.00  0.00    +0.000 C 
ATOM     17  C   UNL     1      -0.111   7.786 134.262  0.00  0.00    +0.000 C 
ATOM     18  O   UNL     1       0.929   7.435 134.818  0.00  0.00    +0.000 OA
ATOM     19  C   UNL     1      -1.213   6.742 134.040  0.00  0.00    +0.000 C 
ATOM     20  C   UNL     1      -2.081   6.458 132.642  0.00  0.00    +0.000 C 
ATOM     21  C   UNL     1      -1.209   5.187 132.594  0.00  0.00    +0.000 C 
ATOM     22  C   UNL     1      -2.441   6.294 130.912  0.00  0.00    +0.000 C 
ENDROOT
BRANCH  22  23
ATOM     23  O   UNL     1      -1.208   6.151 130.184  0.00  0.00    +0.000 OA
ATOM     24  H   UNL     1      -1.438   5.565 129.403  0.00  0.00    +0.000 HD
ENDBRANCH  22  23
BRANCH  22  25
ATOM     25  C   UNL     1      -3.055   5.526 129.591  0.00  0.00    +0.000 C 
ATOM     26  O   UNL     1      -3.366   4.334 129.568  0.00  0.00    +0.000 OA
BRANCH  25  27
ATOM     27  C   UNL     1      -3.137   6.421 128.181  0.00  0.00    +0.000 C 
BRANCH  27  28
ATOM     28  O   UNL     1      -1.973   7.132 127.781  0.00  0.00    +0.000 OA
ATOM     29  H   UNL     1      -1.613   7.558 128.574  0.00  0.00    +0.000 HD
ENDBRANCH  27  28
ENDBRANCH  25  27
ENDBRANCH  22  25
TORSDOF 4
ENDMDL
