MODEL 1
REMARK VINA RESULT:      -6.6      0.000      0.000
REMARK  Name = Mepyramine
REMARK  9 active torsions:
REMARK  status: ('A' for Active; 'I' for Inactive)
REMARK    1  A    between atoms: C_1  and  O_2
REMARK    2  A    between atoms: O_2  and  C_3
REMARK    3  A    between atoms: C_6  and  C_7
REMARK    4  A    between atoms: C_7  and  N_8
REMARK    5  A    between atoms: N_8  and  C_9
REMARK    6  A    between atoms: C_9  and  C_10
REMARK    7  A    between atoms: C_10  and  N_11
REMARK    8  A    between atoms: N_11  and  C_12
REMARK    9  A    between atoms: N_11  and  C_13
REMARK                            x       y       z     vdW  Elec       q    Type
REMARK                         _______ _______ _______ _____ _____    ______ ____
ROOT
ATOM      1  N   UNL     1      -7.075   2.670 123.644  0.00  0.00    +0.000 N 
ATOM      2  C   UNL     1      -7.282   3.102 122.294  0.00  0.00    +0.000 A 
ATOM      3  N   UNL     1      -6.223   3.516 121.547  0.00  0.00    +0.000 NA
ATOM      4  C   UNL     1      -6.433   4.041 120.309  0.00  0.00    +0.000 A 
ATOM      5  C   UNL     1      -7.681   4.216 119.748  0.00  0.00    +0.000 A 
ATOM      6  C   UNL     1      -8.768   3.796 120.494  0.00  0.00    +0.000 A 
ATOM      7  C   UNL     1      -8.568   3.222 121.760  0.00  0.00    +0.000 A 
ENDROOT
BRANCH   1   8
ATOM      8  C   UNL     1      -7.837   1.408 124.067  0.00  0.00    +0.000 C 
BRANCH   8  12
ATOM      9  C   UNL     1      -5.564  -2.235 123.425  0.00  0.00    +0.000 A 
ATOM     10  C   UNL     1      -5.503  -1.733 124.721  0.00  0.00    +0.000 A 
ATOM     11  C   UNL     1      -6.283  -0.555 125.055  0.00  0.00    +0.000 A 
ATOM     12  C   UNL     1      -7.151   0.039 124.150  0.00  0.00    +0.000 A 
ATOM     13  C   UNL     1      -7.621  -0.925 123.310  0.00  0.00    +0.000 A 
ATOM     14  C   UNL     1      -6.663  -1.815 122.798  0.00  0.00    +0.000 A 
BRANCH   9  16
ATOM     15  C   UNL     1      -4.522  -4.398 123.853  0.00  0.00    +0.000 C 
ATOM     16  O   UNL     1      -4.800  -3.283 122.976  0.00  0.00    +0.000 OA
ENDBRANCH   9  16
ENDBRANCH   8  12
ENDBRANCH   1   8
BRANCH   1  17
ATOM     17  C   UNL     1      -5.926   3.475 124.238  0.00  0.00    +0.000 C 
BRANCH  17  18
ATOM     18  C   UNL     1      -6.193   4.682 125.169  0.00  0.00    +0.000 C 
BRANCH  18  19
ATOM     19  N   UNL     1      -5.668   4.944 126.539  0.00  0.00    +0.000 NA
ATOM     20  C   UNL     1      -6.449   4.133 127.448  0.00  0.00    +0.000 C 
ATOM     21  C   UNL     1      -4.256   4.508 126.667  0.00  0.00    +0.000 C 
ENDBRANCH  18  19
ENDBRANCH  17  18
ENDBRANCH   1  17
TORSDOF 6
ENDMDL
MODEL 2
REMARK VINA RESULT:      -6.5      3.100      6.032
REMARK  Name = Mepyramine
REMARK  9 active torsions:
REMARK  status: ('A' for Active; 'I' for Inactive)
REMARK    1  A    between atoms: C_1  and  O_2
REMARK    2  A    between atoms: O_2  and  C_3
REMARK    3  A    between atoms: C_6  and  C_7
REMARK    4  A    between atoms: C_7  and  N_8
REMARK    5  A    between atoms: N_8  and  C_9
REMARK    6  A    between atoms: C_9  and  C_10
REMARK    7  A    between atoms: C_10  and  N_11
REMARK    8  A    between atoms: N_11  and  C_12
REMARK    9  A    between atoms: N_11  and  C_13
REMARK                            x       y       z     vdW  Elec       q    Type
REMARK                         _______ _______ _______ _____ _____    ______ ____
ROOT
ATOM      1  N   UNL     1      -8.752   0.734 125.232  0.00  0.00    +0.000 N 
ATOM      2  C   UNL     1      -9.027  -0.592 124.765  0.00  0.00    +0.000 A 
ATOM      3  N   UNL     1      -9.336  -1.571 125.657  0.00  0.00    +0.000 NA
ATOM      4  C   UNL     1      -9.479  -2.855 125.229  0.00  0.00    +0.000 A 
ATOM      5  C   UNL     1      -9.300  -3.256 123.921  0.00  0.00    +0.000 A 
ATOM      6  C   UNL     1      -8.988  -2.270 123.001  0.00  0.00    +0.000 A 
ATOM      7  C   UNL     1      -8.870  -0.935 123.419  0.00  0.00    +0.000 A 
ENDROOT
BRANCH   1   8
ATOM      8  C   UNL     1      -9.381   1.874 124.420  0.00  0.00    +0.000 C 
BRANCH   8  12
ATOM      9  C   UNL     1      -6.422   3.461 121.669  0.00  0.00    +0.000 A 
ATOM     10  C   UNL     1      -7.729   3.484 121.193  0.00  0.00    +0.000 A 
ATOM     11  C   UNL     1      -8.801   3.037 122.064  0.00  0.00    +0.000 A 
ATOM     12  C   UNL     1      -8.577   2.665 123.382  0.00  0.00    +0.000 A 
ATOM     13  C   UNL     1      -7.511   3.371 123.851  0.00  0.00    +0.000 A 
ATOM     14  C   UNL     1      -6.395   3.438 123.001  0.00  0.00    +0.000 A 
BRANCH   9  16
ATOM     15  C   UNL     1      -5.328   4.973 120.098  0.00  0.00    +0.000 C 
ATOM     16  O   UNL     1      -5.325   3.772 120.904  0.00  0.00    +0.000 OA
ENDBRANCH   9  16
ENDBRANCH   8  12
ENDBRANCH   1   8
BRANCH   1  17
ATOM     17  C   UNL     1      -8.082   0.637 126.597  0.00  0.00    +0.000 C 
BRANCH  17  18
ATOM     18  C   UNL     1      -6.541   0.616 126.732  0.00  0.00    +0.000 C 
BRANCH  18  19
ATOM     19  N   UNL     1      -5.613  -0.550 126.705  0.00  0.00    +0.000 NA
ATOM     20  C   UNL     1      -6.215  -1.582 127.522  0.00  0.00    +0.000 C 
ATOM     21  C   UNL     1      -5.479  -1.101 125.335  0.00  0.00    +0.000 C 
ENDBRANCH  18  19
ENDBRANCH  17  18
ENDBRANCH   1  17
TORSDOF 6
ENDMDL
MODEL 3
REMARK VINA RESULT:      -6.4      1.494      1.961
REMARK  Name = Mepyramine
REMARK  9 active torsions:
REMARK  status: ('A' for Active; 'I' for Inactive)
REMARK    1  A    between atoms: C_1  and  O_2
REMARK    2  A    between atoms: O_2  and  C_3
REMARK    3  A    between atoms: C_6  and  C_7
REMARK    4  A    between atoms: C_7  and  N_8
REMARK    5  A    between atoms: N_8  and  C_9
REMARK    6  A    between atoms: C_9  and  C_10
REMARK    7  A    between atoms: C_10  and  N_11
REMARK    8  A    between atoms: N_11  and  C_12
REMARK    9  A    between atoms: N_11  and  C_13
REMARK                            x       y       z     vdW  Elec       q    Type
REMARK                         _______ _______ _______ _____ _____    ______ ____
ROOT
ATOM      1  N   UNL     1      -7.960   2.611 123.692  0.00  0.00    +0.000 N 
ATOM      2  C   UNL     1      -7.701   3.082 122.364  0.00  0.00    +0.000 A 
ATOM      3  N   UNL     1      -6.437   3.435 122.007  0.00  0.00    +0.000 NA
ATOM      4  C   UNL     1      -6.210   3.995 120.788  0.00  0.00    +0.000 A 
ATOM      5  C   UNL     1      -7.202   4.268 119.869  0.00  0.00    +0.000 A 
ATOM      6  C   UNL     1      -8.494   3.912 120.217  0.00  0.00    +0.000 A 
ATOM      7  C   UNL     1      -8.741   3.302 121.457  0.00  0.00    +0.000 A 
ENDROOT
BRANCH   1   8
ATOM      8  C   UNL     1      -8.892   1.397 123.802  0.00  0.00    +0.000 C 
BRANCH   8  12
ATOM      9  C   UNL     1      -7.138  -2.573 123.864  0.00  0.00    +0.000 A 
ATOM     10  C   UNL     1      -8.386  -2.499 123.254  0.00  0.00    +0.000 A 
ATOM     11  C   UNL     1      -9.028  -1.203 123.124  0.00  0.00    +0.000 A 
ATOM     12  C   UNL     1      -8.403  -0.026 123.510  0.00  0.00    +0.000 A 
ATOM     13  C   UNL     1      -7.058  -0.186 123.361  0.00  0.00    +0.000 A 
ATOM     14  C   UNL     1      -6.524  -1.389 123.849  0.00  0.00    +0.000 A 
BRANCH   9  16
ATOM     15  C   UNL     1      -5.053  -3.836 123.935  0.00  0.00    +0.000 C 
ATOM     16  O   UNL     1      -6.484  -3.752 124.123  0.00  0.00    +0.000 OA
ENDBRANCH   9  16
ENDBRANCH   8  12
ENDBRANCH   1   8
BRANCH   1  17
ATOM     17  C   UNL     1      -7.013   3.322 124.651  0.00  0.00    +0.000 C 
BRANCH  17  18
ATOM     18  C   UNL     1      -7.040   3.024 126.169  0.00  0.00    +0.000 C 
BRANCH  18  19
ATOM     19  N   UNL     1      -8.199   3.030 127.105  0.00  0.00    +0.000 NA
ATOM     20  C   UNL     1      -8.443   1.653 127.478  0.00  0.00    +0.000 C 
ATOM     21  C   UNL     1      -7.882   3.770 128.351  0.00  0.00    +0.000 C 
ENDBRANCH  18  19
ENDBRANCH  17  18
ENDBRANCH   1  17
TORSDOF 6
ENDMDL
MODEL 4
REMARK VINA RESULT:      -6.2      6.854      9.405
REMARK  Name = Mepyramine
REMARK  9 active torsions:
REMARK  status: ('A' for Active; 'I' for Inactive)
REMARK    1  A    between atoms: C_1  and  O_2
REMARK    2  A    between atoms: O_2  and  C_3
REMARK    3  A    between atoms: C_6  and  C_7
REMARK    4  A    between atoms: C_7  and  N_8
REMARK    5  A    between atoms: N_8  and  C_9
REMARK    6  A    between atoms: C_9  and  C_10
REMARK    7  A    between atoms: C_10  and  N_11
REMARK    8  A    between atoms: N_11  and  C_12
REMARK    9  A    between atoms: N_11  and  C_13
REMARK                            x       y       z     vdW  Elec       q    Type
REMARK                         _______ _______ _______ _____ _____    ______ ____
ROOT
ATOM      1  N   UNL     1     -10.399   5.583 130.624  0.00  0.00    +0.000 N 
ATOM      2  C   UNL     1     -11.080   6.424 129.685  0.00  0.00    +0.000 A 
ATOM      3  N   UNL     1     -12.330   6.094 129.265  0.00  0.00    +0.000 NA
ATOM      4  C   UNL     1     -12.929   6.823 128.285  0.00  0.00    +0.000 A 
ATOM      5  C   UNL     1     -12.332   7.889 127.643  0.00  0.00    +0.000 A 
ATOM      6  C   UNL     1     -11.059   8.239 128.061  0.00  0.00    +0.000 A 
ATOM      7  C   UNL     1     -10.440   7.518 129.095  0.00  0.00    +0.000 A 
ENDROOT
BRANCH   1   8
ATOM      8  C   UNL     1      -9.653   6.306 131.753  0.00  0.00    +0.000 C 
BRANCH   8  12
ATOM      9  C   UNL     1      -5.382   5.529 131.789  0.00  0.00    +0.000 A 
ATOM     10  C   UNL     1      -5.760   6.665 131.080  0.00  0.00    +0.000 A 
ATOM     11  C   UNL     1      -7.160   7.049 131.063  0.00  0.00    +0.000 A 
ATOM     12  C   UNL     1      -8.122   6.371 131.798  0.00  0.00    +0.000 A 
ATOM     13  C   UNL     1      -7.527   5.853 132.909  0.00  0.00    +0.000 A 
ATOM     14  C   UNL     1      -6.297   5.206 132.703  0.00  0.00    +0.000 A 
BRANCH   9  16
ATOM     15  C   UNL     1      -3.543   4.476 130.583  0.00  0.00    +0.000 C 
ATOM     16  O   UNL     1      -4.106   5.023 131.797  0.00  0.00    +0.000 OA
ENDBRANCH   9  16
ENDBRANCH   8  12
ENDBRANCH   1   8
BRANCH   1  17
ATOM     17  C   UNL     1     -10.818   4.140 130.373  0.00  0.00    +0.000 C 
BRANCH  17  18
ATOM     18  C   UNL     1      -9.767   3.039 130.094  0.00  0.00    +0.000 C 
BRANCH  18  19
ATOM     19  N   UNL     1      -8.879   2.870 128.909  0.00  0.00    +0.000 NA
ATOM     20  C   UNL     1      -7.761   3.771 129.093  0.00  0.00    +0.000 C 
ATOM     21  C   UNL     1      -8.324   1.496 128.844  0.00  0.00    +0.000 C 
ENDBRANCH  18  19
ENDBRANCH  17  18
ENDBRANCH   1  17
TORSDOF 6
ENDMDL
MODEL 5
REMARK VINA RESULT:      -6.2      6.816      9.836
REMARK  Name = Mepyramine
REMARK  9 active torsions:
REMARK  status: ('A' for Active; 'I' for Inactive)
REMARK    1  A    between atoms: C_1  and  O_2
REMARK    2  A    between atoms: O_2  and  C_3
REMARK    3  A    between atoms: C_6  and  C_7
REMARK    4  A    between atoms: C_7  and  N_8
REMARK    5  A    between atoms: N_8  and  C_9
REMARK    6  A    between atoms: C_9  and  C_10
REMARK    7  A    between atoms: C_10  and  N_11
REMARK    8  A    between atoms: N_11  and  C_12
REMARK    9  A    between atoms: N_11  and  C_13
REMARK                            x       y       z     vdW  Elec       q    Type
REMARK                         _______ _______ _______ _____ _____    ______ ____
ROOT
ATOM      1  N   UNL     1      -5.957   5.015 130.201  0.00  0.00    +0.000 N 
ATOM      2  C   UNL     1      -4.753   5.627 129.723  0.00  0.00    +0.000 A 
ATOM      3  N   UNL     1      -4.631   5.942 128.406  0.00  0.00    +0.000 NA
ATOM      4  C   UNL     1      -3.446   6.410 127.930  0.00  0.00    +0.000 A 
ATOM      5  C   UNL     1      -2.313   6.568 128.701  0.00  0.00    +0.000 A 
ATOM      6  C   UNL     1      -2.422   6.255 130.046  0.00  0.00    +0.000 A 
ATOM      7  C   UNL     1      -3.647   5.802 130.561  0.00  0.00    +0.000 A 
ENDROOT
BRANCH   1   8
ATOM      8  C   UNL     1      -6.503   5.556 131.528  0.00  0.00    +0.000 C 
BRANCH   8  12
ATOM      9  C   UNL     1     -10.698   6.563 131.050  0.00  0.00    +0.000 A 
ATOM     10  C   UNL     1     -10.334   6.186 132.339  0.00  0.00    +0.000 A 
ATOM     11  C   UNL     1      -8.940   5.894 132.618  0.00  0.00    +0.000 A 
ATOM     12  C   UNL     1      -7.945   6.058 131.665  0.00  0.00    +0.000 A 
ATOM     13  C   UNL     1      -8.319   7.060 130.822  0.00  0.00    +0.000 A 
ATOM     14  C   UNL     1      -9.647   7.018 130.367  0.00  0.00    +0.000 A 
BRANCH   9  16
ATOM     15  C   UNL     1     -12.373   8.037 130.065  0.00  0.00    +0.000 C 
ATOM     16  O   UNL     1     -11.996   6.771 130.653  0.00  0.00    +0.000 OA
ENDBRANCH   9  16
ENDBRANCH   8  12
ENDBRANCH   1   8
BRANCH   1  17
ATOM     17  C   UNL     1      -6.518   4.127 129.097  0.00  0.00    +0.000 C 
BRANCH  17  18
ATOM     18  C   UNL     1      -8.021   4.160 128.730  0.00  0.00    +0.000 C 
BRANCH  18  19
ATOM     19  N   UNL     1      -9.064   3.121 128.957  0.00  0.00    +0.000 NA
ATOM     20  C   UNL     1      -8.533   1.875 128.447  0.00  0.00    +0.000 C 
ATOM     21  C   UNL     1      -9.324   2.925 130.404  0.00  0.00    +0.000 C 
ENDBRANCH  18  19
ENDBRANCH  17  18
ENDBRANCH   1  17
TORSDOF 6
ENDMDL
MODEL 6
REMARK VINA RESULT:      -6.0      7.564      8.416
REMARK  Name = Mepyramine
REMARK  9 active torsions:
REMARK  status: ('A' for Active; 'I' for Inactive)
REMARK    1  A    between atoms: C_1  and  O_2
REMARK    2  A    between atoms: O_2  and  C_3
REMARK    3  A    between atoms: C_6  and  C_7
REMARK    4  A    between atoms: C_7  and  N_8
REMARK    5  A    between atoms: N_8  and  C_9
REMARK    6  A    between atoms: C_9  and  C_10
REMARK    7  A    between atoms: C_10  and  N_11
REMARK    8  A    between atoms: N_11  and  C_12
REMARK    9  A    between atoms: N_11  and  C_13
REMARK                            x       y       z     vdW  Elec       q    Type
REMARK                         _______ _______ _______ _____ _____    ______ ____
ROOT
ATOM      1  N   UNL     1     -10.452   5.658 130.630  0.00  0.00    +0.000 N 
ATOM      2  C   UNL     1     -10.908   6.507 129.569  0.00  0.00    +0.000 A 
ATOM      3  N   UNL     1     -10.071   7.442 129.044  0.00  0.00    +0.000 NA
ATOM      4  C   UNL     1     -10.538   8.327 128.123  0.00  0.00    +0.000 A 
ATOM      5  C   UNL     1     -11.847   8.367 127.688  0.00  0.00    +0.000 A 
ATOM      6  C   UNL     1     -12.711   7.420 128.210  0.00  0.00    +0.000 A 
ATOM      7  C   UNL     1     -12.237   6.477 129.137  0.00  0.00    +0.000 A 
ENDROOT
BRANCH   1   8
ATOM      8  C   UNL     1     -10.836   4.178 130.515  0.00  0.00    +0.000 C 
BRANCH   8  12
ATOM      9  C   UNL     1      -8.674   0.450 131.037  0.00  0.00    +0.000 A 
ATOM     10  C   UNL     1      -8.131   1.309 130.086  0.00  0.00    +0.000 A 
ATOM     11  C   UNL     1      -8.742   2.610 129.884  0.00  0.00    +0.000 A 
ATOM     12  C   UNL     1      -9.798   3.060 130.664  0.00  0.00    +0.000 A 
ATOM     13  C   UNL     1      -9.690   2.495 131.899  0.00  0.00    +0.000 A 
ATOM     14  C   UNL     1      -9.410   1.119 131.924  0.00  0.00    +0.000 A 
BRANCH   9  16
ATOM     15  C   UNL     1      -7.874  -1.264 132.576  0.00  0.00    +0.000 C 
ATOM     16  O   UNL     1      -8.236  -0.834 131.244  0.00  0.00    +0.000 OA
ENDBRANCH   9  16
ENDBRANCH   8  12
ENDBRANCH   1   8
BRANCH   1  17
ATOM     17  C   UNL     1      -9.471   6.445 131.490  0.00  0.00    +0.000 C 
BRANCH  17  18
ATOM     18  C   UNL     1      -7.973   6.062 131.547  0.00  0.00    +0.000 C 
BRANCH  18  19
ATOM     19  N   UNL     1      -7.150   5.667 132.724  0.00  0.00    +0.000 NA
ATOM     20  C   UNL     1      -8.061   5.514 133.839  0.00  0.00    +0.000 C 
ATOM     21  C   UNL     1      -6.498   4.352 132.509  0.00  0.00    +0.000 C 
ENDBRANCH  18  19
ENDBRANCH  17  18
ENDBRANCH   1  17
TORSDOF 6
ENDMDL
MODEL 7
REMARK VINA RESULT:      -6.0      1.964      2.507
REMARK  Name = Mepyramine
REMARK  9 active torsions:
REMARK  status: ('A' for Active; 'I' for Inactive)
REMARK    1  A    between atoms: C_1  and  O_2
REMARK    2  A    between atoms: O_2  and  C_3
REMARK    3  A    between atoms: C_6  and  C_7
REMARK    4  A    between atoms: C_7  and  N_8
REMARK    5  A    between atoms: N_8  and  C_9
REMARK    6  A    between atoms: C_9  and  C_10
REMARK    7  A    between atoms: C_10  and  N_11
REMARK    8  A    between atoms: N_11  and  C_12
REMARK    9  A    between atoms: N_11  and  C_13
REMARK                            x       y       z     vdW  Elec       q    Type
REMARK                         _______ _______ _______ _____ _____    ______ ____
ROOT
ATOM      1  N   UNL     1      -8.483   1.637 125.181  0.00  0.00    +0.000 N 
ATOM      2  C   UNL     1      -8.070   2.197 123.928  0.00  0.00    +0.000 A 
ATOM      3  N   UNL     1      -6.780   2.590 123.756  0.00  0.00    +0.000 NA
ATOM      4  C   UNL     1      -6.415   3.232 122.613  0.00  0.00    +0.000 A 
ATOM      5  C   UNL     1      -7.290   3.550 121.595  0.00  0.00    +0.000 A 
ATOM      6  C   UNL     1      -8.607   3.154 121.754  0.00  0.00    +0.000 A 
ATOM      7  C   UNL     1      -8.993   2.461 122.913  0.00  0.00    +0.000 A 
ENDROOT
BRANCH   1   8
ATOM      8  C   UNL     1      -9.394   0.406 125.096  0.00  0.00    +0.000 C 
BRANCH   8  12
ATOM      9  C   UNL     1      -6.962  -3.106 124.324  0.00  0.00    +0.000 A 
ATOM     10  C   UNL     1      -7.968  -3.292 125.267  0.00  0.00    +0.000 A 
ATOM     11  C   UNL     1      -8.879  -2.197 125.547  0.00  0.00    +0.000 A 
ATOM     12  C   UNL     1      -8.832  -0.999 124.848  0.00  0.00    +0.000 A 
ATOM     13  C   UNL     1      -8.372  -1.254 123.591  0.00  0.00    +0.000 A 
ATOM     14  C   UNL     1      -7.250  -2.095 123.506  0.00  0.00    +0.000 A 
BRANCH   9  16
ATOM     15  C   UNL     1      -4.711  -3.612 123.533  0.00  0.00    +0.000 C 
ATOM     16  O   UNL     1      -5.992  -4.038 124.049  0.00  0.00    +0.000 OA
ENDBRANCH   9  16
ENDBRANCH   8  12
ENDBRANCH   1   8
BRANCH   1  17
ATOM     17  C   UNL     1      -7.678   2.297 126.294  0.00  0.00    +0.000 C 
BRANCH  17  18
ATOM     18  C   UNL     1      -6.771   1.462 127.228  0.00  0.00    +0.000 C 
BRANCH  18  19
ATOM     19  N   UNL     1      -5.366   1.013 127.016  0.00  0.00    +0.000 NA
ATOM     20  C   UNL     1      -5.410  -0.047 126.031  0.00  0.00    +0.000 C 
ATOM     21  C   UNL     1      -4.533   2.102 126.448  0.00  0.00    +0.000 C 
ENDBRANCH  18  19
ENDBRANCH  17  18
ENDBRANCH   1  17
TORSDOF 6
ENDMDL
MODEL 8
REMARK VINA RESULT:      -6.0      5.741      8.377
REMARK  Name = Mepyramine
REMARK  9 active torsions:
REMARK  status: ('A' for Active; 'I' for Inactive)
REMARK    1  A    between atoms: C_1  and  O_2
REMARK    2  A    between atoms: O_2  and  C_3
REMARK    3  A    between atoms: C_6  and  C_7
REMARK    4  A    between atoms: C_7  and  N_8
REMARK    5  A    between atoms: N_8  and  C_9
REMARK    6  A    between atoms: C_9  and  C_10
REMARK    7  A    between atoms: C_10  and  N_11
REMARK    8  A    between atoms: N_11  and  C_12
REMARK    9  A    between atoms: N_11  and  C_13
REMARK                            x       y       z     vdW  Elec       q    Type
REMARK                         _______ _______ _______ _____ _____    ______ ____
ROOT
ATOM      1  N   UNL     1      -7.852  -2.563 129.785  0.00  0.00    +0.000 N 
ATOM      2  C   UNL     1      -7.107  -3.358 130.716  0.00  0.00    +0.000 A 
ATOM      3  N   UNL     1      -7.195  -3.099 132.048  0.00  0.00    +0.000 NA
ATOM      4  C   UNL     1      -6.399  -3.771 132.922  0.00  0.00    +0.000 A 
ATOM      5  C   UNL     1      -5.458  -4.706 132.544  0.00  0.00    +0.000 A 
ATOM      6  C   UNL     1      -5.358  -4.984 131.191  0.00  0.00    +0.000 A 
ATOM      7  C   UNL     1      -6.196  -4.323 130.278  0.00  0.00    +0.000 A 
ENDROOT
BRANCH   1   8
ATOM      8  C   UNL     1      -8.546  -3.332 128.654  0.00  0.00    +0.000 C 
BRANCH   8  12
ATOM      9  C   UNL     1      -6.750  -3.023 124.714  0.00  0.00    +0.000 A 
ATOM     10  C   UNL     1      -8.099  -3.363 124.712  0.00  0.00    +0.000 A 
ATOM     11  C   UNL     1      -8.809  -3.427 125.977  0.00  0.00    +0.000 A 
ATOM     12  C   UNL     1      -8.210  -3.079 127.179  0.00  0.00    +0.000 A 
ATOM     13  C   UNL     1      -7.261  -2.134 126.929  0.00  0.00    +0.000 A 
ATOM     14  C   UNL     1      -6.416  -2.385 125.836  0.00  0.00    +0.000 A 
BRANCH   9  16
ATOM     15  C   UNL     1      -4.649  -3.628 123.634  0.00  0.00    +0.000 C 
ATOM     16  O   UNL     1      -5.961  -3.024 123.590  0.00  0.00    +0.000 OA
ENDBRANCH   9  16
ENDBRANCH   8  12
ENDBRANCH   1   8
BRANCH   1  17
ATOM     17  C   UNL     1      -7.951  -1.145 130.332  0.00  0.00    +0.000 C 
BRANCH  17  18
ATOM     18  C   UNL     1      -6.815  -0.119 130.103  0.00  0.00    +0.000 C 
BRANCH  18  19
ATOM     19  N   UNL     1      -5.448  -0.087 130.694  0.00  0.00    +0.000 NA
ATOM     20  C   UNL     1      -4.595  -0.861 129.817  0.00  0.00    +0.000 C 
ATOM     21  C   UNL     1      -4.905   1.294 130.722  0.00  0.00    +0.000 C 
ENDBRANCH  18  19
ENDBRANCH  17  18
ENDBRANCH   1  17
TORSDOF 6
ENDMDL
MODEL 9
REMARK VINA RESULT:      -6.0      3.065      5.853
REMARK  Name = Mepyramine
REMARK  9 active torsions:
REMARK  status: ('A' for Active; 'I' for Inactive)
REMARK    1  A    between atoms: C_1  and  O_2
REMARK    2  A    between atoms: O_2  and  C_3
REMARK    3  A    between atoms: C_6  and  C_7
REMARK    4  A    between atoms: C_7  and  N_8
REMARK    5  A    between atoms: N_8  and  C_9
REMARK    6  A    between atoms: C_9  and  C_10
REMARK    7  A    between atoms: C_10  and  N_11
REMARK    8  A    between atoms: N_11  and  C_12
REMARK    9  A    between atoms: N_11  and  C_13
REMARK                            x       y       z     vdW  Elec       q    Type
REMARK                         _______ _______ _______ _____ _____    ______ ____
ROOT
ATOM      1  N   UNL     1      -7.201   0.406 124.350  0.00  0.00    +0.000 N 
ATOM      2  C   UNL     1      -7.999  -0.778 124.233  0.00  0.00    +0.000 A 
ATOM      3  N   UNL     1      -8.345  -1.473 125.349  0.00  0.00    +0.000 NA
ATOM      4  C   UNL     1      -8.998  -2.661 125.231  0.00  0.00    +0.000 A 
ATOM      5  C   UNL     1      -9.321  -3.246 124.024  0.00  0.00    +0.000 A 
ATOM      6  C   UNL     1      -8.978  -2.550 122.878  0.00  0.00    +0.000 A 
ATOM      7  C   UNL     1      -8.333  -1.306 122.982  0.00  0.00    +0.000 A 
ENDROOT
BRANCH   1   8
ATOM      8  C   UNL     1      -7.634   1.594 123.481  0.00  0.00    +0.000 C 
BRANCH   8  12
ATOM      9  C   UNL     1      -5.474   4.579 121.186  0.00  0.00    +0.000 A 
ATOM     10  C   UNL     1      -5.223   4.604 122.555  0.00  0.00    +0.000 A 
ATOM     11  C   UNL     1      -5.846   3.603 123.401  0.00  0.00    +0.000 A 
ATOM     12  C   UNL     1      -6.616   2.572 122.884  0.00  0.00    +0.000 A 
ATOM     13  C   UNL     1      -6.156   2.279 121.635  0.00  0.00    +0.000 A 
ATOM     14  C   UNL     1      -5.904   3.378 120.799  0.00  0.00    +0.000 A 
BRANCH   9  16
ATOM     15  C   UNL     1      -5.627   5.659 119.005  0.00  0.00    +0.000 C 
ATOM     16  O   UNL     1      -5.015   5.529 120.308  0.00  0.00    +0.000 OA
ENDBRANCH   9  16
ENDBRANCH   8  12
ENDBRANCH   1   8
BRANCH   1  17
ATOM     17  C   UNL     1      -6.249   0.233 125.527  0.00  0.00    +0.000 C 
BRANCH  17  18
ATOM     18  C   UNL     1      -5.789   1.448 126.368  0.00  0.00    +0.000 C 
BRANCH  18  19
ATOM     19  N   UNL     1      -6.610   2.399 127.168  0.00  0.00    +0.000 NA
ATOM     20  C   UNL     1      -7.694   1.634 127.746  0.00  0.00    +0.000 C 
ATOM     21  C   UNL     1      -5.829   2.969 128.294  0.00  0.00    +0.000 C 
ENDBRANCH  18  19
ENDBRANCH  17  18
ENDBRANCH   1  17
TORSDOF 6
ENDMDL
