MODEL 1
REMARK VINA RESULT:      -4.9      0.000      0.000
REMARK  Name = Mequinol
REMARK  3 active torsions:
REMARK  status: ('A' for Active; 'I' for Inactive)
REMARK    1  A    between atoms: C_1  and  O_2
REMARK    2  A    between atoms: O_2  and  C_3
REMARK    3  A    between atoms: C_6  and  O_7
REMARK                            x       y       z     vdW  Elec       q    Type
REMARK                         _______ _______ _______ _____ _____    ______ ____
ROOT
ATOM      1  C   UNL     1     -12.513   7.383 129.282  0.00  0.00    +0.000 A 
ATOM      2  C   UNL     1     -11.307   8.084 129.179  0.00  0.00    +0.000 A 
ATOM      3  C   UNL     1     -10.712   8.303 127.933  0.00  0.00    +0.000 A 
ATOM      4  C   UNL     1     -11.333   7.817 126.789  0.00  0.00    +0.000 A 
ATOM      5  C   UNL     1     -12.536   7.128 126.875  0.00  0.00    +0.000 A 
ATOM      6  C   UNL     1     -13.128   6.910 128.121  0.00  0.00    +0.000 A 
ENDROOT
BRANCH   1   8
ATOM      7  C   UNL     1     -12.068   6.710 131.516  0.00  0.00    +0.000 C 
ATOM      8  O   UNL     1     -12.984   7.226 130.557  0.00  0.00    +0.000 OA
ENDBRANCH   1   8
BRANCH   4   9
ATOM      9  O   UNL     1     -10.794   7.994 125.549  0.00  0.00    +0.000 OA
ATOM     10  H   UNL     1     -10.368   7.166 125.274  0.00  0.00    +0.000 HD
ENDBRANCH   4   9
TORSDOF 2
ENDMDL
MODEL 2
REMARK VINA RESULT:      -4.9      1.726      2.006
REMARK  Name = Mequinol
REMARK  3 active torsions:
REMARK  status: ('A' for Active; 'I' for Inactive)
REMARK    1  A    between atoms: C_1  and  O_2
REMARK    2  A    between atoms: O_2  and  C_3
REMARK    3  A    between atoms: C_6  and  O_7
REMARK                            x       y       z     vdW  Elec       q    Type
REMARK                         _______ _______ _______ _____ _____    ______ ____
ROOT
ATOM      1  C   UNL     1     -12.637   8.851 129.105  0.00  0.00    +0.000 A 
ATOM      2  C   UNL     1     -11.263   8.894 128.848  0.00  0.00    +0.000 A 
ATOM      3  C   UNL     1     -10.704   8.134 127.816  0.00  0.00    +0.000 A 
ATOM      4  C   UNL     1     -11.532   7.332 127.039  0.00  0.00    +0.000 A 
ATOM      5  C   UNL     1     -12.899   7.287 127.276  0.00  0.00    +0.000 A 
ATOM      6  C   UNL     1     -13.455   8.047 128.308  0.00  0.00    +0.000 A 
ENDROOT
BRANCH   1   8
ATOM      7  C   UNL     1     -13.517  10.937 129.821  0.00  0.00    +0.000 C 
ATOM      8  O   UNL     1     -13.056   9.630 130.148  0.00  0.00    +0.000 OA
ENDBRANCH   1   8
BRANCH   4   9
ATOM      9  O   UNL     1     -11.040   6.565 126.025  0.00  0.00    +0.000 OA
ATOM     10  H   UNL     1     -10.070   6.608 126.044  0.00  0.00    +0.000 HD
ENDBRANCH   4   9
TORSDOF 2
ENDMDL
MODEL 3
REMARK VINA RESULT:      -4.7      1.900      4.224
REMARK  Name = Mequinol
REMARK  3 active torsions:
REMARK  status: ('A' for Active; 'I' for Inactive)
REMARK    1  A    between atoms: C_1  and  O_2
REMARK    2  A    between atoms: O_2  and  C_3
REMARK    3  A    between atoms: C_6  and  O_7
REMARK                            x       y       z     vdW  Elec       q    Type
REMARK                         _______ _______ _______ _____ _____    ______ ____
ROOT
ATOM      1  C   UNL     1     -11.418   7.912 129.465  0.00  0.00    +0.000 A 
ATOM      2  C   UNL     1     -10.128   7.436 129.719  0.00  0.00    +0.000 A 
ATOM      3  C   UNL     1      -9.857   6.679 130.862  0.00  0.00    +0.000 A 
ATOM      4  C   UNL     1     -10.889   6.399 131.751  0.00  0.00    +0.000 A 
ATOM      5  C   UNL     1     -12.177   6.857 131.507  0.00  0.00    +0.000 A 
ATOM      6  C   UNL     1     -12.445   7.613 130.363  0.00  0.00    +0.000 A 
ENDROOT
BRANCH   1   8
ATOM      7  C   UNL     1     -10.977   8.097 127.139  0.00  0.00    +0.000 C 
ATOM      8  O   UNL     1     -11.549   8.649 128.319  0.00  0.00    +0.000 OA
ENDBRANCH   1   8
BRANCH   4   9
ATOM      9  O   UNL     1     -10.680   5.673 132.886  0.00  0.00    +0.000 OA
ATOM     10  H   UNL     1      -9.771   5.334 132.875  0.00  0.00    +0.000 HD
ENDBRANCH   4   9
TORSDOF 2
ENDMDL
MODEL 4
REMARK VINA RESULT:      -4.7      2.288      2.560
REMARK  Name = Mequinol
REMARK  3 active torsions:
REMARK  status: ('A' for Active; 'I' for Inactive)
REMARK    1  A    between atoms: C_1  and  O_2
REMARK    2  A    between atoms: O_2  and  C_3
REMARK    3  A    between atoms: C_6  and  O_7
REMARK                            x       y       z     vdW  Elec       q    Type
REMARK                         _______ _______ _______ _____ _____    ______ ____
ROOT
ATOM      1  C   UNL     1     -12.392   6.473 129.259  0.00  0.00    +0.000 A 
ATOM      2  C   UNL     1     -12.304   7.375 130.324  0.00  0.00    +0.000 A 
ATOM      3  C   UNL     1     -12.659   8.716 130.158  0.00  0.00    +0.000 A 
ATOM      4  C   UNL     1     -13.107   9.150 128.916  0.00  0.00    +0.000 A 
ATOM      5  C   UNL     1     -13.210   8.265 127.851  0.00  0.00    +0.000 A 
ATOM      6  C   UNL     1     -12.854   6.924 128.020  0.00  0.00    +0.000 A 
ENDROOT
BRANCH   1   8
ATOM      7  C   UNL     1     -10.949   5.047 130.493  0.00  0.00    +0.000 C 
ATOM      8  O   UNL     1     -12.004   5.194 129.548  0.00  0.00    +0.000 OA
ENDBRANCH   1   8
BRANCH   4   9
ATOM      9  O   UNL     1     -13.460  10.448 128.694  0.00  0.00    +0.000 OA
ATOM     10  H   UNL     1     -12.883  11.022 129.223  0.00  0.00    +0.000 HD
ENDBRANCH   4   9
TORSDOF 2
ENDMDL
MODEL 5
REMARK VINA RESULT:      -4.6      2.285      4.754
REMARK  Name = Mequinol
REMARK  3 active torsions:
REMARK  status: ('A' for Active; 'I' for Inactive)
REMARK    1  A    between atoms: C_1  and  O_2
REMARK    2  A    between atoms: O_2  and  C_3
REMARK    3  A    between atoms: C_6  and  O_7
REMARK                            x       y       z     vdW  Elec       q    Type
REMARK                         _______ _______ _______ _____ _____    ______ ____
ROOT
ATOM      1  C   UNL     1     -10.069   7.672 129.576  0.00  0.00    +0.000 A 
ATOM      2  C   UNL     1     -11.361   7.375 130.022  0.00  0.00    +0.000 A 
ATOM      3  C   UNL     1     -11.562   6.617 131.180  0.00  0.00    +0.000 A 
ATOM      4  C   UNL     1     -10.458   6.161 131.891  0.00  0.00    +0.000 A 
ATOM      5  C   UNL     1      -9.170   6.456 131.466  0.00  0.00    +0.000 A 
ATOM      6  C   UNL     1      -8.972   7.214 130.309  0.00  0.00    +0.000 A 
ENDROOT
BRANCH   1   8
ATOM      7  C   UNL     1     -10.941   8.074 127.404  0.00  0.00    +0.000 C 
ATOM      8  O   UNL     1     -10.009   8.410 128.426  0.00  0.00    +0.000 OA
ENDBRANCH   1   8
BRANCH   4   9
ATOM      9  O   UNL     1     -10.594   5.412 133.022  0.00  0.00    +0.000 OA
ATOM     10  H   UNL     1     -11.538   5.230 133.164  0.00  0.00    +0.000 HD
ENDBRANCH   4   9
TORSDOF 2
ENDMDL
MODEL 6
REMARK VINA RESULT:      -4.5     12.134     12.987
REMARK  Name = Mequinol
REMARK  3 active torsions:
REMARK  status: ('A' for Active; 'I' for Inactive)
REMARK    1  A    between atoms: C_1  and  O_2
REMARK    2  A    between atoms: O_2  and  C_3
REMARK    3  A    between atoms: C_6  and  O_7
REMARK                            x       y       z     vdW  Elec       q    Type
REMARK                         _______ _______ _______ _____ _____    ______ ____
ROOT
ATOM      1  C   UNL     1      -5.975  -2.869 123.537  0.00  0.00    +0.000 A 
ATOM      2  C   UNL     1      -6.736  -3.709 124.357  0.00  0.00    +0.000 A 
ATOM      3  C   UNL     1      -8.133  -3.668 124.323  0.00  0.00    +0.000 A 
ATOM      4  C   UNL     1      -8.765  -2.781 123.460  0.00  0.00    +0.000 A 
ATOM      5  C   UNL     1      -8.023  -1.948 122.633  0.00  0.00    +0.000 A 
ATOM      6  C   UNL     1      -6.627  -1.991 122.668  0.00  0.00    +0.000 A 
ENDROOT
BRANCH   1   8
ATOM      7  C   UNL     1      -4.097  -4.321 123.604  0.00  0.00    +0.000 C 
ATOM      8  O   UNL     1      -4.620  -2.999 123.673  0.00  0.00    +0.000 OA
ENDBRANCH   1   8
BRANCH   4   9
ATOM      9  O   UNL     1     -10.124  -2.692 123.391  0.00  0.00    +0.000 OA
ATOM     10  H   UNL     1     -10.490  -3.588 123.313  0.00  0.00    +0.000 HD
ENDBRANCH   4   9
TORSDOF 2
ENDMDL
MODEL 7
REMARK VINA RESULT:      -4.4      2.192      2.920
REMARK  Name = Mequinol
REMARK  3 active torsions:
REMARK  status: ('A' for Active; 'I' for Inactive)
REMARK    1  A    between atoms: C_1  and  O_2
REMARK    2  A    between atoms: O_2  and  C_3
REMARK    3  A    between atoms: C_6  and  O_7
REMARK                            x       y       z     vdW  Elec       q    Type
REMARK                         _______ _______ _______ _____ _____    ______ ____
ROOT
ATOM      1  C   UNL     1     -10.991   6.590 131.442  0.00  0.00    +0.000 A 
ATOM      2  C   UNL     1     -10.035   6.942 130.484  0.00  0.00    +0.000 A 
ATOM      3  C   UNL     1     -10.373   7.764 129.405  0.00  0.00    +0.000 A 
ATOM      4  C   UNL     1     -11.675   8.235 129.293  0.00  0.00    +0.000 A 
ATOM      5  C   UNL     1     -12.633   7.903 130.242  0.00  0.00    +0.000 A 
ATOM      6  C   UNL     1     -12.293   7.081 131.319  0.00  0.00    +0.000 A 
ENDROOT
BRANCH   1   8
ATOM      7  C   UNL     1      -9.152   5.858 132.754  0.00  0.00    +0.000 C 
ATOM      8  O   UNL     1     -10.538   5.771 132.440  0.00  0.00    +0.000 OA
ENDBRANCH   1   8
BRANCH   4   9
ATOM      9  O   UNL     1     -12.062   9.034 128.258  0.00  0.00    +0.000 OA
ATOM     10  H   UNL     1     -11.432   9.769 128.180  0.00  0.00    +0.000 HD
ENDBRANCH   4   9
TORSDOF 2
ENDMDL
MODEL 8
REMARK VINA RESULT:      -4.1     10.921     11.812
REMARK  Name = Mequinol
REMARK  3 active torsions:
REMARK  status: ('A' for Active; 'I' for Inactive)
REMARK    1  A    between atoms: C_1  and  O_2
REMARK    2  A    between atoms: O_2  and  C_3
REMARK    3  A    between atoms: C_6  and  O_7
REMARK                            x       y       z     vdW  Elec       q    Type
REMARK                         _______ _______ _______ _____ _____    ______ ____
ROOT
ATOM      1  C   UNL     1      -9.020  -1.776 123.198  0.00  0.00    +0.000 A 
ATOM      2  C   UNL     1      -7.811  -1.107 122.983  0.00  0.00    +0.000 A 
ATOM      3  C   UNL     1      -6.598  -1.673 123.387  0.00  0.00    +0.000 A 
ATOM      4  C   UNL     1      -6.604  -2.917 124.006  0.00  0.00    +0.000 A 
ATOM      5  C   UNL     1      -7.795  -3.598 124.218  0.00  0.00    +0.000 A 
ATOM      6  C   UNL     1      -9.005  -3.030 123.813  0.00  0.00    +0.000 A 
ENDROOT
BRANCH   1   8
ATOM      7  C   UNL     1     -10.003   0.292 122.569  0.00  0.00    +0.000 C 
ATOM      8  O   UNL     1     -10.135  -1.112 122.767  0.00  0.00    +0.000 OA
ENDBRANCH   1   8
BRANCH   4   9
ATOM      9  O   UNL     1      -5.452  -3.513 124.428  0.00  0.00    +0.000 OA
ATOM     10  H   UNL     1      -5.005  -3.905 123.660  0.00  0.00    +0.000 HD
ENDBRANCH   4   9
TORSDOF 2
ENDMDL
MODEL 9
REMARK VINA RESULT:      -4.1     11.173     11.673
REMARK  Name = Mequinol
REMARK  3 active torsions:
REMARK  status: ('A' for Active; 'I' for Inactive)
REMARK    1  A    between atoms: C_1  and  O_2
REMARK    2  A    between atoms: O_2  and  C_3
REMARK    3  A    between atoms: C_6  and  O_7
REMARK                            x       y       z     vdW  Elec       q    Type
REMARK                         _______ _______ _______ _____ _____    ______ ____
ROOT
ATOM      1  C   UNL     1      -7.074  -2.592 126.043  0.00  0.00    +0.000 A 
ATOM      2  C   UNL     1      -8.393  -2.607 126.509  0.00  0.00    +0.000 A 
ATOM      3  C   UNL     1      -9.453  -2.908 125.648  0.00  0.00    +0.000 A 
ATOM      4  C   UNL     1      -9.183  -3.198 124.316  0.00  0.00    +0.000 A 
ATOM      5  C   UNL     1      -7.878  -3.197 123.841  0.00  0.00    +0.000 A 
ATOM      6  C   UNL     1      -6.821  -2.895 124.704  0.00  0.00    +0.000 A 
ENDROOT
BRANCH   1   8
ATOM      7  C   UNL     1      -5.640  -0.936 126.958  0.00  0.00    +0.000 C 
ATOM      8  O   UNL     1      -6.132  -2.271 126.981  0.00  0.00    +0.000 OA
ENDBRANCH   1   8
BRANCH   4   9
ATOM      9  O   UNL     1     -10.177  -3.491 123.431  0.00  0.00    +0.000 OA
ATOM     10  H   UNL     1     -10.993  -3.669 123.927  0.00  0.00    +0.000 HD
ENDBRANCH   4   9
TORSDOF 2
ENDMDL
