MODEL 1
REMARK VINA RESULT:      -6.9      0.000      0.000
REMARK  Name = Meradimate
REMARK  8 active torsions:
REMARK  status: ('A' for Active; 'I' for Inactive)
REMARK    1  A    between atoms: C_1  and  C_2
REMARK    2  A    between atoms: C_2  and  C_3
REMARK    3  A    between atoms: C_2  and  C_4
REMARK    4  A    between atoms: C_7  and  C_8
REMARK    5  A    between atoms: C_10  and  O_11
REMARK    6  A    between atoms: O_11  and  C_12
REMARK    7  A    between atoms: C_12  and  C_14
REMARK    8  A    between atoms: C_19  and  N_20
REMARK                            x       y       z     vdW  Elec       q    Type
REMARK                         _______ _______ _______ _____ _____    ______ ____
ROOT
ATOM      1  O   UNL     1      -8.356   1.372 123.093  0.00  0.00    +0.000 OA
ENDROOT
BRANCH   1   8
ATOM      2  C   UNL     1      -7.487   3.682 122.440  0.00  0.00    +0.000 C 
ATOM      3  C   UNL     1      -6.018   3.523 122.888  0.00  0.00    +0.000 C 
ATOM      4  C   UNL     1      -5.820   3.858 124.357  0.00  0.00    +0.000 C 
ATOM      5  C   UNL     1      -6.737   3.008 125.241  0.00  0.00    +0.000 C 
ATOM      6  C   UNL     1      -6.328   1.534 125.230  0.00  0.00    +0.000 C 
ATOM      7  C   UNL     1      -8.205   3.176 124.803  0.00  0.00    +0.000 C 
ATOM      8  C   UNL     1      -8.475   2.826 123.311  0.00  0.00    +0.000 C 
BRANCH   2  10
ATOM      9  C   UNL     1      -6.377   4.070 120.218  0.00  0.00    +0.000 C 
ATOM     10  C   UNL     1      -7.601   3.453 120.918  0.00  0.00    +0.000 C 
ATOM     11  C   UNL     1      -8.984   3.840 120.402  0.00  0.00    +0.000 C 
ENDBRANCH   2  10
ENDBRANCH   1   8
BRANCH   1  12
ATOM     12  C   UNL     1      -9.407   0.491 123.165  0.00  0.00    +0.000 C 
ATOM     13  O   UNL     1     -10.552   0.624 122.732  0.00  0.00    +0.000 OA
BRANCH  12  14
ATOM     14  C   UNL     1      -9.007  -0.798 123.781  0.00  0.00    +0.000 A 
ATOM     15  C   UNL     1      -8.685  -1.965 123.032  0.00  0.00    +0.000 A 
ATOM     16  C   UNL     1      -8.549  -3.199 123.658  0.00  0.00    +0.000 A 
ATOM     17  C   UNL     1      -8.783  -3.273 125.023  0.00  0.00    +0.000 A 
ATOM     18  C   UNL     1      -9.093  -2.114 125.756  0.00  0.00    +0.000 A 
ATOM     19  C   UNL     1      -9.157  -0.852 125.160  0.00  0.00    +0.000 A 
BRANCH  19  20
ATOM     20  N   UNL     1      -9.648   0.259 125.860  0.00  0.00    +0.000 N 
ATOM     21  H   UNL     1     -10.562   0.596 125.599  0.00  0.00    +0.000 HD
ATOM     22  H   UNL     1      -9.521   0.194 126.873  0.00  0.00    +0.000 HD
ENDBRANCH  19  20
ENDBRANCH  12  14
ENDBRANCH   1  12
TORSDOF 5
ENDMDL
MODEL 2
REMARK VINA RESULT:      -6.6      2.045      6.178
REMARK  Name = Meradimate
REMARK  8 active torsions:
REMARK  status: ('A' for Active; 'I' for Inactive)
REMARK    1  A    between atoms: C_1  and  C_2
REMARK    2  A    between atoms: C_2  and  C_3
REMARK    3  A    between atoms: C_2  and  C_4
REMARK    4  A    between atoms: C_7  and  C_8
REMARK    5  A    between atoms: C_10  and  O_11
REMARK    6  A    between atoms: O_11  and  C_12
REMARK    7  A    between atoms: C_12  and  C_14
REMARK    8  A    between atoms: C_19  and  N_20
REMARK                            x       y       z     vdW  Elec       q    Type
REMARK                         _______ _______ _______ _____ _____    ______ ____
ROOT
ATOM      1  O   UNL     1      -8.056  -0.067 125.633  0.00  0.00    +0.000 OA
ENDROOT
BRANCH   1   8
ATOM      2  C   UNL     1      -8.403  -2.578 125.936  0.00  0.00    +0.000 C 
ATOM      3  C   UNL     1      -7.125  -3.086 125.234  0.00  0.00    +0.000 C 
ATOM      4  C   UNL     1      -7.310  -3.236 123.733  0.00  0.00    +0.000 C 
ATOM      5  C   UNL     1      -7.772  -1.919 123.103  0.00  0.00    +0.000 C 
ATOM      6  C   UNL     1      -6.674  -0.854 123.148  0.00  0.00    +0.000 C 
ATOM      7  C   UNL     1      -9.054  -1.418 123.795  0.00  0.00    +0.000 C 
ATOM      8  C   UNL     1      -8.921  -1.224 125.333  0.00  0.00    +0.000 C 
BRANCH   2  10
ATOM      9  C   UNL     1      -6.707  -2.315 127.774  0.00  0.00    +0.000 C 
ATOM     10  C   UNL     1      -8.194  -2.568 127.466  0.00  0.00    +0.000 C 
ATOM     11  C   UNL     1      -8.861  -3.772 128.124  0.00  0.00    +0.000 C 
ENDBRANCH   2  10
ENDBRANCH   1   8
BRANCH   1  12
ATOM     12  C   UNL     1      -8.512   1.216 125.805  0.00  0.00    +0.000 C 
ATOM     13  O   UNL     1      -9.041   1.717 126.798  0.00  0.00    +0.000 OA
BRANCH  12  14
ATOM     14  C   UNL     1      -8.217   2.071 124.630  0.00  0.00    +0.000 A 
ATOM     15  C   UNL     1      -9.108   2.240 123.533  0.00  0.00    +0.000 A 
ATOM     16  C   UNL     1      -8.687   2.856 122.360  0.00  0.00    +0.000 A 
ATOM     17  C   UNL     1      -7.364   3.260 122.268  0.00  0.00    +0.000 A 
ATOM     18  C   UNL     1      -6.492   3.096 123.358  0.00  0.00    +0.000 A 
ATOM     19  C   UNL     1      -6.916   2.550 124.573  0.00  0.00    +0.000 A 
BRANCH  19  20
ATOM     20  N   UNL     1      -5.999   2.222 125.581  0.00  0.00    +0.000 N 
ATOM     21  H   UNL     1      -5.026   2.411 125.394  0.00  0.00    +0.000 HD
ATOM     22  H   UNL     1      -6.291   2.521 126.514  0.00  0.00    +0.000 HD
ENDBRANCH  19  20
ENDBRANCH  12  14
ENDBRANCH   1  12
TORSDOF 5
ENDMDL
MODEL 3
REMARK VINA RESULT:      -6.6      2.041      6.016
REMARK  Name = Meradimate
REMARK  8 active torsions:
REMARK  status: ('A' for Active; 'I' for Inactive)
REMARK    1  A    between atoms: C_1  and  C_2
REMARK    2  A    between atoms: C_2  and  C_3
REMARK    3  A    between atoms: C_2  and  C_4
REMARK    4  A    between atoms: C_7  and  C_8
REMARK    5  A    between atoms: C_10  and  O_11
REMARK    6  A    between atoms: O_11  and  C_12
REMARK    7  A    between atoms: C_12  and  C_14
REMARK    8  A    between atoms: C_19  and  N_20
REMARK                            x       y       z     vdW  Elec       q    Type
REMARK                         _______ _______ _______ _____ _____    ______ ____
ROOT
ATOM      1  O   UNL     1      -8.908  -0.582 125.190  0.00  0.00    +0.000 OA
ENDROOT
BRANCH   1   8
ATOM      2  C   UNL     1      -7.190  -2.169 126.212  0.00  0.00    +0.000 C 
ATOM      3  C   UNL     1      -6.770  -2.928 124.934  0.00  0.00    +0.000 C 
ATOM      4  C   UNL     1      -7.685  -4.103 124.631  0.00  0.00    +0.000 C 
ATOM      5  C   UNL     1      -9.143  -3.649 124.523  0.00  0.00    +0.000 C 
ATOM      6  C   UNL     1      -9.376  -2.784 123.283  0.00  0.00    +0.000 C 
ATOM      7  C   UNL     1      -9.566  -2.904 125.803  0.00  0.00    +0.000 C 
ATOM      8  C   UNL     1      -8.679  -1.674 126.154  0.00  0.00    +0.000 C 
BRANCH   2  10
ATOM      9  C   UNL     1      -5.191  -0.913 125.345  0.00  0.00    +0.000 C 
ATOM     10  C   UNL     1      -6.155  -1.070 126.535  0.00  0.00    +0.000 C 
ATOM     11  C   UNL     1      -5.546  -1.274 127.920  0.00  0.00    +0.000 C 
ENDBRANCH   2  10
ENDBRANCH   1   8
BRANCH   1  12
ATOM     12  C   UNL     1      -8.853   0.753 125.505  0.00  0.00    +0.000 C 
ATOM     13  O   UNL     1      -9.193   1.311 126.549  0.00  0.00    +0.000 OA
BRANCH  12  14
ATOM     14  C   UNL     1      -8.211   1.549 124.431  0.00  0.00    +0.000 A 
ATOM     15  C   UNL     1      -6.882   2.054 124.510  0.00  0.00    +0.000 A 
ATOM     16  C   UNL     1      -6.417   2.984 123.588  0.00  0.00    +0.000 A 
ATOM     17  C   UNL     1      -7.295   3.445 122.618  0.00  0.00    +0.000 A 
ATOM     18  C   UNL     1      -8.603   2.936 122.543  0.00  0.00    +0.000 A 
ATOM     19  C   UNL     1      -9.065   1.944 123.411  0.00  0.00    +0.000 A 
BRANCH  19  20
ATOM     20  N   UNL     1     -10.420   1.582 123.446  0.00  0.00    +0.000 N 
ATOM     21  H   UNL     1     -11.091   2.309 123.250  0.00  0.00    +0.000 HD
ATOM     22  H   UNL     1     -10.623   0.708 122.957  0.00  0.00    +0.000 HD
ENDBRANCH  19  20
ENDBRANCH  12  14
ENDBRANCH   1  12
TORSDOF 5
ENDMDL
MODEL 4
REMARK VINA RESULT:      -6.5      4.407      6.407
REMARK  Name = Meradimate
REMARK  8 active torsions:
REMARK  status: ('A' for Active; 'I' for Inactive)
REMARK    1  A    between atoms: C_1  and  C_2
REMARK    2  A    between atoms: C_2  and  C_3
REMARK    3  A    between atoms: C_2  and  C_4
REMARK    4  A    between atoms: C_7  and  C_8
REMARK    5  A    between atoms: C_10  and  O_11
REMARK    6  A    between atoms: O_11  and  C_12
REMARK    7  A    between atoms: C_12  and  C_14
REMARK    8  A    between atoms: C_19  and  N_20
REMARK                            x       y       z     vdW  Elec       q    Type
REMARK                         _______ _______ _______ _____ _____    ______ ____
ROOT
ATOM      1  O   UNL     1      -6.602  -1.369 126.108  0.00  0.00    +0.000 OA
ENDROOT
BRANCH   1   8
ATOM      2  C   UNL     1      -6.739  -3.329 124.477  0.00  0.00    +0.000 C 
ATOM      3  C   UNL     1      -7.910  -2.833 123.601  0.00  0.00    +0.000 C 
ATOM      4  C   UNL     1      -9.264  -3.210 124.177  0.00  0.00    +0.000 C 
ATOM      5  C   UNL     1      -9.416  -2.687 125.608  0.00  0.00    +0.000 C 
ATOM      6  C   UNL     1      -9.508  -1.160 125.646  0.00  0.00    +0.000 C 
ATOM      7  C   UNL     1      -8.255  -3.191 126.486  0.00  0.00    +0.000 C 
ATOM      8  C   UNL     1      -6.840  -2.817 125.958  0.00  0.00    +0.000 C 
BRANCH   2  10
ATOM      9  C   UNL     1      -5.659  -2.226 122.492  0.00  0.00    +0.000 C 
ATOM     10  C   UNL     1      -5.395  -3.029 123.779  0.00  0.00    +0.000 C 
ATOM     11  C   UNL     1      -4.536  -4.285 123.669  0.00  0.00    +0.000 C 
ENDBRANCH   2  10
ENDBRANCH   1   8
BRANCH   1  12
ATOM     12  C   UNL     1      -5.718  -0.818 127.003  0.00  0.00    +0.000 C 
ATOM     13  O   UNL     1      -5.078   0.229 126.905  0.00  0.00    +0.000 OA
BRANCH  12  14
ATOM     14  C   UNL     1      -5.643  -1.601 128.260  0.00  0.00    +0.000 A 
ATOM     15  C   UNL     1      -4.729  -2.672 128.471  0.00  0.00    +0.000 A 
ATOM     16  C   UNL     1      -4.861  -3.517 129.566  0.00  0.00    +0.000 A 
ATOM     17  C   UNL     1      -5.934  -3.321 130.423  0.00  0.00    +0.000 A 
ATOM     18  C   UNL     1      -6.827  -2.257 130.212  0.00  0.00    +0.000 A 
ATOM     19  C   UNL     1      -6.668  -1.349 129.162  0.00  0.00    +0.000 A 
BRANCH  19  20
ATOM     20  N   UNL     1      -7.664  -0.412 128.854  0.00  0.00    +0.000 N 
ATOM     21  H   UNL     1      -8.203  -0.047 129.624  0.00  0.00    +0.000 HD
ATOM     22  H   UNL     1      -7.356   0.314 128.203  0.00  0.00    +0.000 HD
ENDBRANCH  19  20
ENDBRANCH  12  14
ENDBRANCH   1  12
TORSDOF 5
ENDMDL
MODEL 5
REMARK VINA RESULT:      -6.4      2.802      6.389
REMARK  Name = Meradimate
REMARK  8 active torsions:
REMARK  status: ('A' for Active; 'I' for Inactive)
REMARK    1  A    between atoms: C_1  and  C_2
REMARK    2  A    between atoms: C_2  and  C_3
REMARK    3  A    between atoms: C_2  and  C_4
REMARK    4  A    between atoms: C_7  and  C_8
REMARK    5  A    between atoms: C_10  and  O_11
REMARK    6  A    between atoms: O_11  and  C_12
REMARK    7  A    between atoms: C_12  and  C_14
REMARK    8  A    between atoms: C_19  and  N_20
REMARK                            x       y       z     vdW  Elec       q    Type
REMARK                         _______ _______ _______ _____ _____    ______ ____
ROOT
ATOM      1  O   UNL     1      -6.373  -0.634 125.617  0.00  0.00    +0.000 OA
ENDROOT
BRANCH   1   8
ATOM      2  C   UNL     1      -6.427  -3.005 124.671  0.00  0.00    +0.000 C 
ATOM      3  C   UNL     1      -7.777  -2.937 123.925  0.00  0.00    +0.000 C 
ATOM      4  C   UNL     1      -8.955  -3.265 124.827  0.00  0.00    +0.000 C 
ATOM      5  C   UNL     1      -8.980  -2.344 126.051  0.00  0.00    +0.000 C 
ATOM      6  C   UNL     1      -9.311  -0.901 125.667  0.00  0.00    +0.000 C 
ATOM      7  C   UNL     1      -7.638  -2.421 126.803  0.00  0.00    +0.000 C 
ATOM      8  C   UNL     1      -6.393  -2.074 125.936  0.00  0.00    +0.000 C 
BRANCH   2  10
ATOM      9  C   UNL     1      -5.806  -2.130 122.397  0.00  0.00    +0.000 C 
ATOM     10  C   UNL     1      -5.265  -2.789 123.678  0.00  0.00    +0.000 C 
ATOM     11  C   UNL     1      -4.425  -4.054 123.525  0.00  0.00    +0.000 C 
ENDBRANCH   2  10
ENDBRANCH   1   8
BRANCH   1  12
ATOM     12  C   UNL     1      -6.040   0.352 126.513  0.00  0.00    +0.000 C 
ATOM     13  O   UNL     1      -5.609   0.234 127.660  0.00  0.00    +0.000 OA
BRANCH  12  14
ATOM     14  C   UNL     1      -6.162   1.704 125.917  0.00  0.00    +0.000 A 
ATOM     15  C   UNL     1      -7.303   2.148 125.191  0.00  0.00    +0.000 A 
ATOM     16  C   UNL     1      -7.268   3.329 124.459  0.00  0.00    +0.000 A 
ATOM     17  C   UNL     1      -6.079   4.040 124.415  0.00  0.00    +0.000 A 
ATOM     18  C   UNL     1      -4.959   3.600 125.141  0.00  0.00    +0.000 A 
ATOM     19  C   UNL     1      -4.996   2.458 125.945  0.00  0.00    +0.000 A 
BRANCH  19  20
ATOM     20  N   UNL     1      -3.828   1.928 126.511  0.00  0.00    +0.000 N 
ATOM     21  H   UNL     1      -3.045   1.784 125.891  0.00  0.00    +0.000 HD
ATOM     22  H   UNL     1      -3.562   2.372 127.393  0.00  0.00    +0.000 HD
ENDBRANCH  19  20
ENDBRANCH  12  14
ENDBRANCH   1  12
TORSDOF 5
ENDMDL
MODEL 6
REMARK VINA RESULT:      -6.3      3.144      5.230
REMARK  Name = Meradimate
REMARK  8 active torsions:
REMARK  status: ('A' for Active; 'I' for Inactive)
REMARK    1  A    between atoms: C_1  and  C_2
REMARK    2  A    between atoms: C_2  and  C_3
REMARK    3  A    between atoms: C_2  and  C_4
REMARK    4  A    between atoms: C_7  and  C_8
REMARK    5  A    between atoms: C_10  and  O_11
REMARK    6  A    between atoms: O_11  and  C_12
REMARK    7  A    between atoms: C_12  and  C_14
REMARK    8  A    between atoms: C_19  and  N_20
REMARK                            x       y       z     vdW  Elec       q    Type
REMARK                         _______ _______ _______ _____ _____    ______ ____
ROOT
ATOM      1  O   UNL     1      -8.060  -0.760 126.065  0.00  0.00    +0.000 OA
ENDROOT
BRANCH   1   8
ATOM      2  C   UNL     1      -7.833  -0.343 123.557  0.00  0.00    +0.000 C 
ATOM      3  C   UNL     1      -9.066  -1.133 123.067  0.00  0.00    +0.000 C 
ATOM      4  C   UNL     1      -8.764  -2.607 122.856  0.00  0.00    +0.000 C 
ATOM      5  C   UNL     1      -8.202  -3.240 124.132  0.00  0.00    +0.000 C 
ATOM      6  C   UNL     1      -9.260  -3.325 125.234  0.00  0.00    +0.000 C 
ATOM      7  C   UNL     1      -6.964  -2.460 124.614  0.00  0.00    +0.000 C 
ATOM      8  C   UNL     1      -7.217  -0.946 124.869  0.00  0.00    +0.000 C 
BRANCH   2  10
ATOM      9  C   UNL     1      -9.596   1.392 123.107  0.00  0.00    +0.000 C 
ATOM     10  C   UNL     1      -8.167   1.162 123.631  0.00  0.00    +0.000 C 
ATOM     11  C   UNL     1      -7.046   2.008 123.033  0.00  0.00    +0.000 C 
ENDBRANCH   2  10
ENDBRANCH   1   8
BRANCH   1  12
ATOM     12  C   UNL     1      -7.576  -0.452 127.313  0.00  0.00    +0.000 C 
ATOM     13  O   UNL     1      -7.540   0.644 127.873  0.00  0.00    +0.000 OA
BRANCH  12  14
ATOM     14  C   UNL     1      -7.138  -1.661 128.051  0.00  0.00    +0.000 A 
ATOM     15  C   UNL     1      -8.033  -2.557 128.700  0.00  0.00    +0.000 A 
ATOM     16  C   UNL     1      -7.559  -3.534 129.569  0.00  0.00    +0.000 A 
ATOM     17  C   UNL     1      -6.197  -3.582 129.824  0.00  0.00    +0.000 A 
ATOM     18  C   UNL     1      -5.319  -2.698 129.172  0.00  0.00    +0.000 A 
ATOM     19  C   UNL     1      -5.766  -1.762 128.237  0.00  0.00    +0.000 A 
BRANCH  19  20
ATOM     20  N   UNL     1      -4.912  -0.767 127.739  0.00  0.00    +0.000 N 
ATOM     21  H   UNL     1      -4.722   0.017 128.344  0.00  0.00    +0.000 HD
ATOM     22  H   UNL     1      -4.072  -1.137 127.288  0.00  0.00    +0.000 HD
ENDBRANCH  19  20
ENDBRANCH  12  14
ENDBRANCH   1  12
TORSDOF 5
ENDMDL
MODEL 7
REMARK VINA RESULT:      -6.2      7.626     10.026
REMARK  Name = Meradimate
REMARK  8 active torsions:
REMARK  status: ('A' for Active; 'I' for Inactive)
REMARK    1  A    between atoms: C_1  and  C_2
REMARK    2  A    between atoms: C_2  and  C_3
REMARK    3  A    between atoms: C_2  and  C_4
REMARK    4  A    between atoms: C_7  and  C_8
REMARK    5  A    between atoms: C_10  and  O_11
REMARK    6  A    between atoms: O_11  and  C_12
REMARK    7  A    between atoms: C_12  and  C_14
REMARK    8  A    between atoms: C_19  and  N_20
REMARK                            x       y       z     vdW  Elec       q    Type
REMARK                         _______ _______ _______ _____ _____    ______ ____
ROOT
ATOM      1  O   UNL     1      -8.372   5.395 131.752  0.00  0.00    +0.000 OA
ENDROOT
BRANCH   1   8
ATOM      2  C   UNL     1      -8.032   2.979 131.002  0.00  0.00    +0.000 C 
ATOM      3  C   UNL     1      -8.650   2.258 132.219  0.00  0.00    +0.000 C 
ATOM      4  C   UNL     1      -7.647   2.056 133.343  0.00  0.00    +0.000 C 
ATOM      5  C   UNL     1      -7.031   3.390 133.774  0.00  0.00    +0.000 C 
ATOM      6  C   UNL     1      -8.056   4.288 134.469  0.00  0.00    +0.000 C 
ATOM      7  C   UNL     1      -6.403   4.104 132.562  0.00  0.00    +0.000 C 
ATOM      8  C   UNL     1      -7.388   4.359 131.385  0.00  0.00    +0.000 C 
BRANCH   2  10
ATOM      9  C   UNL     1     -10.481   3.053 130.437  0.00  0.00    +0.000 C 
ATOM     10  C   UNL     1      -9.058   3.041 129.850  0.00  0.00    +0.000 C 
ATOM     11  C   UNL     1      -8.743   2.008 128.772  0.00  0.00    +0.000 C 
ENDBRANCH   2  10
ENDBRANCH   1   8
BRANCH   1  12
ATOM     12  C   UNL     1      -8.520   6.590 131.092  0.00  0.00    +0.000 C 
ATOM     13  O   UNL     1      -7.656   7.413 130.788  0.00  0.00    +0.000 OA
BRANCH  12  14
ATOM     14  C   UNL     1      -9.918   6.804 130.645  0.00  0.00    +0.000 A 
ATOM     15  C   UNL     1     -10.268   7.475 129.440  0.00  0.00    +0.000 A 
ATOM     16  C   UNL     1     -11.582   7.854 129.189  0.00  0.00    +0.000 A 
ATOM     17  C   UNL     1     -12.535   7.605 130.164  0.00  0.00    +0.000 A 
ATOM     18  C   UNL     1     -12.183   6.935 131.349  0.00  0.00    +0.000 A 
ATOM     19  C   UNL     1     -10.885   6.477 131.586  0.00  0.00    +0.000 A 
BRANCH  19  20
ATOM     20  N   UNL     1     -10.507   5.981 132.842  0.00  0.00    +0.000 N 
ATOM     21  H   UNL     1      -9.529   5.774 132.976  0.00  0.00    +0.000 HD
ATOM     22  H   UNL     1     -10.918   6.493 133.625  0.00  0.00    +0.000 HD
ENDBRANCH  19  20
ENDBRANCH  12  14
ENDBRANCH   1  12
TORSDOF 5
ENDMDL
MODEL 8
REMARK VINA RESULT:      -6.1      4.750      6.563
REMARK  Name = Meradimate
REMARK  8 active torsions:
REMARK  status: ('A' for Active; 'I' for Inactive)
REMARK    1  A    between atoms: C_1  and  C_2
REMARK    2  A    between atoms: C_2  and  C_3
REMARK    3  A    between atoms: C_2  and  C_4
REMARK    4  A    between atoms: C_7  and  C_8
REMARK    5  A    between atoms: C_10  and  O_11
REMARK    6  A    between atoms: O_11  and  C_12
REMARK    7  A    between atoms: C_12  and  C_14
REMARK    8  A    between atoms: C_19  and  N_20
REMARK                            x       y       z     vdW  Elec       q    Type
REMARK                         _______ _______ _______ _____ _____    ______ ____
ROOT
ATOM      1  O   UNL     1      -6.889  -2.491 127.789  0.00  0.00    +0.000 OA
ENDROOT
BRANCH   1   8
ATOM      2  C   UNL     1      -6.690  -1.604 125.403  0.00  0.00    +0.000 C 
ATOM      3  C   UNL     1      -5.352  -0.845 125.538  0.00  0.00    +0.000 C 
ATOM      4  C   UNL     1      -5.540   0.572 126.055  0.00  0.00    +0.000 C 
ATOM      5  C   UNL     1      -6.286   0.572 127.392  0.00  0.00    +0.000 C 
ATOM      6  C   UNL     1      -5.437  -0.028 128.515  0.00  0.00    +0.000 C 
ATOM      7  C   UNL     1      -7.627  -0.174 127.255  0.00  0.00    +0.000 C 
ATOM      8  C   UNL     1      -7.498  -1.640 126.749  0.00  0.00    +0.000 C 
BRANCH   2  10
ATOM      9  C   UNL     1      -5.452  -2.834 123.593  0.00  0.00    +0.000 C 
ATOM     10  C   UNL     1      -6.449  -2.985 124.756  0.00  0.00    +0.000 C 
ATOM     11  C   UNL     1      -7.766  -3.702 124.474  0.00  0.00    +0.000 C 
ENDBRANCH   2  10
ENDBRANCH   1   8
BRANCH   1  12
ATOM     12  C   UNL     1      -7.603  -3.202 128.722  0.00  0.00    +0.000 C 
ATOM     13  O   UNL     1      -8.704  -3.739 128.601  0.00  0.00    +0.000 OA
BRANCH  12  14
ATOM     14  C   UNL     1      -6.844  -3.374 129.984  0.00  0.00    +0.000 A 
ATOM     15  C   UNL     1      -6.051  -4.519 130.280  0.00  0.00    +0.000 A 
ATOM     16  C   UNL     1      -5.558  -4.734 131.562  0.00  0.00    +0.000 A 
ATOM     17  C   UNL     1      -5.897  -3.830 132.556  0.00  0.00    +0.000 A 
ATOM     18  C   UNL     1      -6.674  -2.698 132.255  0.00  0.00    +0.000 A 
ATOM     19  C   UNL     1      -7.114  -2.423 130.958  0.00  0.00    +0.000 A 
BRANCH  19  20
ATOM     20  N   UNL     1      -8.039  -1.399 130.706  0.00  0.00    +0.000 N 
ATOM     21  H   UNL     1      -8.324  -0.837 131.493  0.00  0.00    +0.000 HD
ATOM     22  H   UNL     1      -7.818  -0.843 129.877  0.00  0.00    +0.000 HD
ENDBRANCH  19  20
ENDBRANCH  12  14
ENDBRANCH   1  12
TORSDOF 5
ENDMDL
MODEL 9
REMARK VINA RESULT:      -6.1      2.833      4.891
REMARK  Name = Meradimate
REMARK  8 active torsions:
REMARK  status: ('A' for Active; 'I' for Inactive)
REMARK    1  A    between atoms: C_1  and  C_2
REMARK    2  A    between atoms: C_2  and  C_3
REMARK    3  A    between atoms: C_2  and  C_4
REMARK    4  A    between atoms: C_7  and  C_8
REMARK    5  A    between atoms: C_10  and  O_11
REMARK    6  A    between atoms: O_11  and  C_12
REMARK    7  A    between atoms: C_12  and  C_14
REMARK    8  A    between atoms: C_19  and  N_20
REMARK                            x       y       z     vdW  Elec       q    Type
REMARK                         _______ _______ _______ _____ _____    ______ ____
ROOT
ATOM      1  O   UNL     1      -7.209  -1.027 125.432  0.00  0.00    +0.000 OA
ENDROOT
BRANCH   1   8
ATOM      2  C   UNL     1      -9.296  -0.767 123.984  0.00  0.00    +0.000 C 
ATOM      3  C   UNL     1      -8.903   0.516 123.221  0.00  0.00    +0.000 C 
ATOM      4  C   UNL     1      -9.268   1.779 123.983  0.00  0.00    +0.000 C 
ATOM      5  C   UNL     1      -8.636   1.778 125.378  0.00  0.00    +0.000 C 
ATOM      6  C   UNL     1      -7.114   1.919 125.310  0.00  0.00    +0.000 C 
ATOM      7  C   UNL     1      -9.038   0.504 126.145  0.00  0.00    +0.000 C 
ATOM      8  C   UNL     1      -8.670  -0.824 125.423  0.00  0.00    +0.000 C 
BRANCH   2  10
ATOM      9  C   UNL     1      -9.382  -3.279 123.896  0.00  0.00    +0.000 C 
ATOM     10  C   UNL     1      -9.018  -2.007 123.108  0.00  0.00    +0.000 C 
ATOM     11  C   UNL     1      -7.632  -1.937 122.473  0.00  0.00    +0.000 C 
ENDBRANCH   2  10
ENDBRANCH   1   8
BRANCH   1  12
ATOM     12  C   UNL     1      -6.589  -2.172 125.868  0.00  0.00    +0.000 C 
ATOM     13  O   UNL     1      -5.725  -2.842 125.301  0.00  0.00    +0.000 OA
BRANCH  12  14
ATOM     14  C   UNL     1      -7.006  -2.536 127.244  0.00  0.00    +0.000 A 
ATOM     15  C   UNL     1      -8.170  -3.300 127.540  0.00  0.00    +0.000 A 
ATOM     16  C   UNL     1      -8.638  -3.410 128.845  0.00  0.00    +0.000 A 
ATOM     17  C   UNL     1      -7.970  -2.718 129.843  0.00  0.00    +0.000 A 
ATOM     18  C   UNL     1      -6.817  -1.972 129.543  0.00  0.00    +0.000 A 
ATOM     19  C   UNL     1      -6.285  -1.912 128.253  0.00  0.00    +0.000 A 
BRANCH  19  20
ATOM     20  N   UNL     1      -5.252  -1.020 127.933  0.00  0.00    +0.000 N 
ATOM     21  H   UNL     1      -4.832  -1.116 127.021  0.00  0.00    +0.000 HD
ATOM     22  H   UNL     1      -5.458  -0.049 128.177  0.00  0.00    +0.000 HD
ENDBRANCH  19  20
ENDBRANCH  12  14
ENDBRANCH   1  12
TORSDOF 5
ENDMDL
