MODEL 1
REMARK VINA RESULT:      -4.8      0.000      0.000
REMARK  Name = Mercaptopurine
REMARK  0 active torsions:
REMARK  status: ('A' for Active; 'I' for Inactive)
REMARK                            x       y       z     vdW  Elec       q    Type
REMARK                         _______ _______ _______ _____ _____    ______ ____
ROOT
ATOM      1  S   UNL     1     -11.187   7.571 126.594  0.00  0.00    +0.000 S 
ATOM      2  C   UNL     1     -11.602   7.290 128.189  0.00  0.00    +0.000 A 
ATOM      3  N   UNL     1     -11.403   6.112 128.888  0.00  0.00    +0.000 NA
ATOM      4  C   UNL     1     -11.787   6.057 130.127  0.00  0.00    +0.000 A 
ATOM      5  N   UNL     1     -12.387   7.028 130.886  0.00  0.00    +0.000 N 
ATOM      6  C   UNL     1     -12.597   8.182 130.253  0.00  0.00    +0.000 A 
ATOM      7  C   UNL     1     -12.225   8.332 128.947  0.00  0.00    +0.000 A 
ATOM      8  N   UNL     1     -12.591   9.615 128.641  0.00  0.00    +0.000 N 
ATOM      9  C   UNL     1     -13.154  10.153 129.771  0.00  0.00    +0.000 A 
ATOM     10  N   UNL     1     -13.169   9.294 130.772  0.00  0.00    +0.000 NA
ATOM     11  H   UNL     1     -12.648   6.878 131.852  0.00  0.00    +0.000 HD
ATOM     12  H   UNL     1     -12.465  10.074 127.747  0.00  0.00    +0.000 HD
ENDROOT
TORSDOF 0
ENDMDL
MODEL 2
REMARK VINA RESULT:      -4.8      1.902      3.019
REMARK  Name = Mercaptopurine
REMARK  0 active torsions:
REMARK  status: ('A' for Active; 'I' for Inactive)
REMARK                            x       y       z     vdW  Elec       q    Type
REMARK                         _______ _______ _______ _____ _____    ______ ____
ROOT
ATOM      1  S   UNL     1     -13.316  10.362 129.852  0.00  0.00    +0.000 S 
ATOM      2  C   UNL     1     -12.706   8.819 130.049  0.00  0.00    +0.000 A 
ATOM      3  N   UNL     1     -12.916   7.992 131.138  0.00  0.00    +0.000 NA
ATOM      4  C   UNL     1     -12.365   6.816 131.137  0.00  0.00    +0.000 A 
ATOM      5  N   UNL     1     -11.573   6.238 130.179  0.00  0.00    +0.000 N 
ATOM      6  C   UNL     1     -11.345   6.999 129.109  0.00  0.00    +0.000 A 
ATOM      7  C   UNL     1     -11.883   8.252 129.023  0.00  0.00    +0.000 A 
ATOM      8  N   UNL     1     -11.443   8.723 127.816  0.00  0.00    +0.000 N 
ATOM      9  C   UNL     1     -10.675   7.734 127.254  0.00  0.00    +0.000 A 
ATOM     10  N   UNL     1     -10.600   6.668 128.027  0.00  0.00    +0.000 NA
ATOM     11  H   UNL     1     -11.192   5.307 130.279  0.00  0.00    +0.000 HD
ATOM     12  H   UNL     1     -11.651   9.631 127.418  0.00  0.00    +0.000 HD
ENDROOT
TORSDOF 0
ENDMDL
MODEL 3
REMARK VINA RESULT:      -4.8      1.699      2.249
REMARK  Name = Mercaptopurine
REMARK  0 active torsions:
REMARK  status: ('A' for Active; 'I' for Inactive)
REMARK                            x       y       z     vdW  Elec       q    Type
REMARK                         _______ _______ _______ _____ _____    ______ ____
ROOT
ATOM      1  S   UNL     1     -10.913   7.993 127.244  0.00  0.00    +0.000 S 
ATOM      2  C   UNL     1     -10.613   6.988 128.545  0.00  0.00    +0.000 A 
ATOM      3  N   UNL     1      -9.611   6.038 128.627  0.00  0.00    +0.000 NA
ATOM      4  C   UNL     1      -9.514   5.333 129.714  0.00  0.00    +0.000 A 
ATOM      5  N   UNL     1     -10.286   5.387 130.845  0.00  0.00    +0.000 N 
ATOM      6  C   UNL     1     -11.265   6.290 130.811  0.00  0.00    +0.000 A 
ATOM      7  C   UNL     1     -11.443   7.077 129.709  0.00  0.00    +0.000 A 
ATOM      8  N   UNL     1     -12.516   7.864 130.029  0.00  0.00    +0.000 N 
ATOM      9  C   UNL     1     -12.915   7.505 131.292  0.00  0.00    +0.000 A 
ATOM     10  N   UNL     1     -12.163   6.544 131.793  0.00  0.00    +0.000 NA
ATOM     11  H   UNL     1     -10.123   4.787 131.642  0.00  0.00    +0.000 HD
ATOM     12  H   UNL     1     -12.932   8.574 129.439  0.00  0.00    +0.000 HD
ENDROOT
TORSDOF 0
ENDMDL
MODEL 4
REMARK VINA RESULT:      -4.7      1.868      2.772
REMARK  Name = Mercaptopurine
REMARK  0 active torsions:
REMARK  status: ('A' for Active; 'I' for Inactive)
REMARK                            x       y       z     vdW  Elec       q    Type
REMARK                         _______ _______ _______ _____ _____    ______ ____
ROOT
ATOM      1  S   UNL     1      -9.372   5.255 129.704  0.00  0.00    +0.000 S 
ATOM      2  C   UNL     1     -10.210   6.593 129.158  0.00  0.00    +0.000 A 
ATOM      3  N   UNL     1      -9.976   7.276 127.978  0.00  0.00    +0.000 NA
ATOM      4  C   UNL     1     -10.720   8.304 127.700  0.00  0.00    +0.000 A 
ATOM      5  N   UNL     1     -11.749   8.843 128.429  0.00  0.00    +0.000 N 
ATOM      6  C   UNL     1     -12.011   8.216 129.575  0.00  0.00    +0.000 A 
ATOM      7  C   UNL     1     -11.279   7.124 129.949  0.00  0.00    +0.000 A 
ATOM      8  N   UNL     1     -11.820   6.756 131.152  0.00  0.00    +0.000 N 
ATOM      9  C   UNL     1     -12.833   7.640 131.425  0.00  0.00    +0.000 A 
ATOM     10  N   UNL     1     -12.970   8.543 130.473  0.00  0.00    +0.000 NA
ATOM     11  H   UNL     1     -12.268   9.653 128.118  0.00  0.00    +0.000 HD
ATOM     12  H   UNL     1     -11.522   5.977 131.725  0.00  0.00    +0.000 HD
ENDROOT
TORSDOF 0
ENDMDL
MODEL 5
REMARK VINA RESULT:      -4.7      2.006      2.976
REMARK  Name = Mercaptopurine
REMARK  0 active torsions:
REMARK  status: ('A' for Active; 'I' for Inactive)
REMARK                            x       y       z     vdW  Elec       q    Type
REMARK                         _______ _______ _______ _____ _____    ______ ____
ROOT
ATOM      1  S   UNL     1     -10.477   4.636 130.641  0.00  0.00    +0.000 S 
ATOM      2  C   UNL     1     -11.368   6.050 130.612  0.00  0.00    +0.000 A 
ATOM      3  N   UNL     1     -12.278   6.460 131.570  0.00  0.00    +0.000 NA
ATOM      4  C   UNL     1     -12.892   7.591 131.396  0.00  0.00    +0.000 A 
ATOM      5  N   UNL     1     -12.773   8.484 130.363  0.00  0.00    +0.000 N 
ATOM      6  C   UNL     1     -11.904   8.130 129.415  0.00  0.00    +0.000 A 
ATOM      7  C   UNL     1     -11.212   6.956 129.514  0.00  0.00    +0.000 A 
ATOM      8  N   UNL     1     -10.436   6.930 128.387  0.00  0.00    +0.000 N 
ATOM      9  C   UNL     1     -10.706   8.079 127.686  0.00  0.00    +0.000 A 
ATOM     10  N   UNL     1     -11.602   8.830 128.296  0.00  0.00    +0.000 NA
ATOM     11  H   UNL     1     -13.303   9.344 130.325  0.00  0.00    +0.000 HD
ATOM     12  H   UNL     1      -9.787   6.198 128.128  0.00  0.00    +0.000 HD
ENDROOT
TORSDOF 0
ENDMDL
MODEL 6
REMARK VINA RESULT:      -4.3      1.797      3.080
REMARK  Name = Mercaptopurine
REMARK  0 active torsions:
REMARK  status: ('A' for Active; 'I' for Inactive)
REMARK                            x       y       z     vdW  Elec       q    Type
REMARK                         _______ _______ _______ _____ _____    ______ ____
ROOT
ATOM      1  S   UNL     1     -13.352   9.844 128.980  0.00  0.00    +0.000 S 
ATOM      2  C   UNL     1     -12.176   8.669 128.808  0.00  0.00    +0.000 A 
ATOM      3  N   UNL     1     -11.363   8.485 127.703  0.00  0.00    +0.000 NA
ATOM      4  C   UNL     1     -10.497   7.517 127.727  0.00  0.00    +0.000 A 
ATOM      5  N   UNL     1     -10.251   6.608 128.723  0.00  0.00    +0.000 N 
ATOM      6  C   UNL     1     -11.012   6.748 129.808  0.00  0.00    +0.000 A 
ATOM      7  C   UNL     1     -11.950   7.739 129.873  0.00  0.00    +0.000 A 
ATOM      8  N   UNL     1     -12.523   7.577 131.105  0.00  0.00    +0.000 N 
ATOM      9  C   UNL     1     -11.900   6.509 131.701  0.00  0.00    +0.000 A 
ATOM     10  N   UNL     1     -10.970   5.985 130.927  0.00  0.00    +0.000 NA
ATOM     11  H   UNL     1      -9.546   5.888 128.638  0.00  0.00    +0.000 HD
ATOM     12  H   UNL     1     -13.266   8.143 131.496  0.00  0.00    +0.000 HD
ENDROOT
TORSDOF 0
ENDMDL
MODEL 7
REMARK VINA RESULT:      -4.0      9.022     10.341
REMARK  Name = Mercaptopurine
REMARK  0 active torsions:
REMARK  status: ('A' for Active; 'I' for Inactive)
REMARK                            x       y       z     vdW  Elec       q    Type
REMARK                         _______ _______ _______ _____ _____    ______ ____
ROOT
ATOM      1  S   UNL     1      -5.442   3.572 124.954  0.00  0.00    +0.000 S 
ATOM      2  C   UNL     1      -6.583   3.443 123.740  0.00  0.00    +0.000 A 
ATOM      3  N   UNL     1      -7.884   2.994 123.888  0.00  0.00    +0.000 NA
ATOM      4  C   UNL     1      -8.647   2.952 122.838  0.00  0.00    +0.000 A 
ATOM      5  N   UNL     1      -8.350   3.299 121.545  0.00  0.00    +0.000 N 
ATOM      6  C   UNL     1      -7.107   3.739 121.356  0.00  0.00    +0.000 A 
ATOM      7  C   UNL     1      -6.233   3.818 122.403  0.00  0.00    +0.000 A 
ATOM      8  N   UNL     1      -5.081   4.299 121.842  0.00  0.00    +0.000 N 
ATOM      9  C   UNL     1      -5.329   4.479 120.505  0.00  0.00    +0.000 A 
ATOM     10  N   UNL     1      -6.564   4.143 120.182  0.00  0.00    +0.000 NA
ATOM     11  H   UNL     1      -9.025   3.227 120.796  0.00  0.00    +0.000 HD
ATOM     12  H   UNL     1      -4.213   4.485 122.330  0.00  0.00    +0.000 HD
ENDROOT
TORSDOF 0
ENDMDL
MODEL 8
REMARK VINA RESULT:      -4.0      2.819      3.730
REMARK  Name = Mercaptopurine
REMARK  0 active torsions:
REMARK  status: ('A' for Active; 'I' for Inactive)
REMARK                            x       y       z     vdW  Elec       q    Type
REMARK                         _______ _______ _______ _____ _____    ______ ____
ROOT
ATOM      1  S   UNL     1      -8.466   4.636 129.147  0.00  0.00    +0.000 S 
ATOM      2  C   UNL     1      -9.154   5.085 130.603  0.00  0.00    +0.000 A 
ATOM      3  N   UNL     1      -8.597   4.909 131.857  0.00  0.00    +0.000 NA
ATOM      4  C   UNL     1      -9.266   5.313 132.894  0.00  0.00    +0.000 A 
ATOM      5  N   UNL     1     -10.496   5.916 132.941  0.00  0.00    +0.000 N 
ATOM      6  C   UNL     1     -11.072   6.107 131.754  0.00  0.00    +0.000 A 
ATOM      7  C   UNL     1     -10.441   5.714 130.608  0.00  0.00    +0.000 A 
ATOM      8  N   UNL     1     -11.311   6.062 129.611  0.00  0.00    +0.000 N 
ATOM      9  C   UNL     1     -12.402   6.639 130.213  0.00  0.00    +0.000 A 
ATOM     10  N   UNL     1     -12.278   6.678 131.525  0.00  0.00    +0.000 NA
ATOM     11  H   UNL     1     -10.931   6.193 133.811  0.00  0.00    +0.000 HD
ATOM     12  H   UNL     1     -11.170   5.919 128.619  0.00  0.00    +0.000 HD
ENDROOT
TORSDOF 0
ENDMDL
MODEL 9
REMARK VINA RESULT:      -3.8      4.389      5.684
REMARK  Name = Mercaptopurine
REMARK  0 active torsions:
REMARK  status: ('A' for Active; 'I' for Inactive)
REMARK                            x       y       z     vdW  Elec       q    Type
REMARK                         _______ _______ _______ _____ _____    ______ ____
ROOT
ATOM      1  S   UNL     1      -6.863   5.905 132.215  0.00  0.00    +0.000 S 
ATOM      2  C   UNL     1      -8.498   5.701 131.937  0.00  0.00    +0.000 A 
ATOM      3  N   UNL     1      -9.517   6.474 132.464  0.00  0.00    +0.000 NA
ATOM      4  C   UNL     1     -10.743   6.180 132.149  0.00  0.00    +0.000 A 
ATOM      5  N   UNL     1     -11.205   5.176 131.337  0.00  0.00    +0.000 N 
ATOM      6  C   UNL     1     -10.256   4.406 130.805  0.00  0.00    +0.000 A 
ATOM      7  C   UNL     1      -8.938   4.641 131.081  0.00  0.00    +0.000 A 
ATOM      8  N   UNL     1      -8.273   3.674 130.378  0.00  0.00    +0.000 N 
ATOM      9  C   UNL     1      -9.221   2.924 129.728  0.00  0.00    +0.000 A 
ATOM     10  N   UNL     1     -10.443   3.353 129.974  0.00  0.00    +0.000 NA
ATOM     11  H   UNL     1     -12.189   5.034 131.157  0.00  0.00    +0.000 HD
ATOM     12  H   UNL     1      -7.269   3.544 130.347  0.00  0.00    +0.000 HD
ENDROOT
TORSDOF 0
ENDMDL
