MODEL 1
REMARK VINA RESULT:      -6.7      0.000      0.000
REMARK  Name = Meropenem
REMARK  11 active torsions:
REMARK  status: ('A' for Active; 'I' for Inactive)
REMARK    1  A    between atoms: C_2  and  C_3
REMARK    2  A    between atoms: C_3  and  C_4
REMARK    3  A    between atoms: C_3  and  O_5
REMARK    4  A    between atoms: C_9  and  C_10
REMARK    5  A    between atoms: C_10  and  O_11
REMARK    6  A    between atoms: C_13  and  S_14
REMARK    7  A    between atoms: S_14  and  C_15
REMARK    8  A    between atoms: C_18  and  C_20
REMARK    9  A    between atoms: N_22  and  C_23
REMARK   10  A    between atoms: N_22  and  C_24
REMARK   11  A    between atoms: C_25  and  C_26
REMARK                            x       y       z     vdW  Elec       q    Type
REMARK                         _______ _______ _______ _____ _____    ______ ____
ROOT
ATOM      1  C   UNL     1      -3.896   6.044 129.385  0.00  0.00    +0.000 C 
ATOM      2  C   UNL     1      -4.801   5.239 128.412  0.00  0.00    +0.000 C 
ATOM      3  O   UNL     1      -5.079   5.296 127.241  0.00  0.00    +0.000 OA
ATOM      4  N   UNL     1      -5.220   4.391 129.403  0.00  0.00    +0.000 N 
ATOM      5  C   UNL     1      -6.540   4.132 129.761  0.00  0.00    +0.000 C 
ATOM      6  C   UNL     1      -6.856   4.710 130.951  0.00  0.00    +0.000 C 
ATOM      7  C   UNL     1      -5.780   5.706 131.334  0.00  0.00    +0.000 C 
ATOM      8  C   UNL     1      -6.066   7.165 130.940  0.00  0.00    +0.000 C 
ATOM      9  C   UNL     1      -4.597   5.199 130.492  0.00  0.00    +0.000 C 
ENDROOT
BRANCH   1  10
ATOM     10  C   UNL     1      -2.385   5.889 129.274  0.00  0.00    +0.000 C 
ATOM     11  C   UNL     1      -1.700   6.416 130.532  0.00  0.00    +0.000 C 
BRANCH  10  12
ATOM     12  O   UNL     1      -1.889   6.591 128.141  0.00  0.00    +0.000 OA
ATOM     13  H   UNL     1      -1.056   6.170 127.856  0.00  0.00    +0.000 HD
ENDBRANCH  10  12
ENDBRANCH   1  10
BRANCH   5  14
ATOM     14  C   UNL     1      -7.432   3.194 128.983  0.00  0.00    +0.000 C 
ATOM     15  O   UNL     1      -7.465   1.983 129.144  0.00  0.00    +0.000 OA
BRANCH  14  16
ATOM     16  O   UNL     1      -8.239   3.771 128.066  0.00  0.00    +0.000 OA
ATOM     17  H   UNL     1      -9.190   3.794 128.276  0.00  0.00    +0.000 HD
ENDBRANCH  14  16
ENDBRANCH   5  14
BRANCH   6  18
ATOM     18  S   UNL     1      -8.198   4.239 131.942  0.00  0.00    +0.000 S 
BRANCH  18  19
ATOM     19  C   UNL     1      -9.747   5.035 131.449  0.00  0.00    +0.000 C 
ATOM     20  C   UNL     1     -10.613   4.192 130.556  0.00  0.00    +0.000 C 
ATOM     21  N   UNL     1     -11.597   5.076 129.948  0.00  0.00    +0.000 NA
ATOM     22  C   UNL     1     -10.929   6.400 129.816  0.00  0.00    +0.000 C 
ATOM     23  C   UNL     1      -9.672   6.359 130.710  0.00  0.00    +0.000 C 
ATOM     24  H   UNL     1     -12.419   5.138 130.539  0.00  0.00    +0.000 HD
BRANCH  22  25
ATOM     25  C   UNL     1     -10.588   6.732 128.325  0.00  0.00    +0.000 C 
ATOM     26  O   UNL     1      -9.584   6.281 127.767  0.00  0.00    +0.000 OA
ATOM     27  N   UNL     1     -11.468   7.576 127.636  0.00  0.00    +0.000 N 
ATOM     28  C   UNL     1     -12.672   8.170 128.197  0.00  0.00    +0.000 C 
ATOM     29  C   UNL     1     -11.198   7.899 126.237  0.00  0.00    +0.000 C 
ENDBRANCH  22  25
ENDBRANCH  18  19
ENDBRANCH   6  18
TORSDOF 7
ENDMDL
MODEL 2
REMARK VINA RESULT:      -6.5      2.117      3.103
REMARK  Name = Meropenem
REMARK  11 active torsions:
REMARK  status: ('A' for Active; 'I' for Inactive)
REMARK    1  A    between atoms: C_2  and  C_3
REMARK    2  A    between atoms: C_3  and  C_4
REMARK    3  A    between atoms: C_3  and  O_5
REMARK    4  A    between atoms: C_9  and  C_10
REMARK    5  A    between atoms: C_10  and  O_11
REMARK    6  A    between atoms: C_13  and  S_14
REMARK    7  A    between atoms: S_14  and  C_15
REMARK    8  A    between atoms: C_18  and  C_20
REMARK    9  A    between atoms: N_22  and  C_23
REMARK   10  A    between atoms: N_22  and  C_24
REMARK   11  A    between atoms: C_25  and  C_26
REMARK                            x       y       z     vdW  Elec       q    Type
REMARK                         _______ _______ _______ _____ _____    ______ ____
ROOT
ATOM      1  C   UNL     1      -3.215   3.502 128.486  0.00  0.00    +0.000 C 
ATOM      2  C   UNL     1      -3.111   5.008 128.852  0.00  0.00    +0.000 C 
ATOM      3  O   UNL     1      -2.231   5.830 128.894  0.00  0.00    +0.000 OA
ATOM      4  N   UNL     1      -4.447   5.094 129.146  0.00  0.00    +0.000 N 
ATOM      5  C   UNL     1      -4.999   5.542 130.343  0.00  0.00    +0.000 C 
ATOM      6  C   UNL     1      -5.520   4.516 131.067  0.00  0.00    +0.000 C 
ATOM      7  C   UNL     1      -5.046   3.196 130.492  0.00  0.00    +0.000 C 
ATOM      8  C   UNL     1      -3.806   2.592 131.171  0.00  0.00    +0.000 C 
ATOM      9  C   UNL     1      -4.659   3.619 129.064  0.00  0.00    +0.000 C 
ENDROOT
BRANCH   1  10
ATOM     10  C   UNL     1      -3.106   3.096 127.023  0.00  0.00    +0.000 C 
ATOM     11  C   UNL     1      -1.642   3.008 126.601  0.00  0.00    +0.000 C 
BRANCH  10  12
ATOM     12  O   UNL     1      -3.779   4.031 126.190  0.00  0.00    +0.000 OA
ATOM     13  H   UNL     1      -4.137   3.555 125.416  0.00  0.00    +0.000 HD
ENDBRANCH  10  12
ENDBRANCH   1  10
BRANCH   5  14
ATOM     14  C   UNL     1      -5.126   7.007 130.690  0.00  0.00    +0.000 C 
ATOM     15  O   UNL     1      -4.224   7.683 131.161  0.00  0.00    +0.000 OA
BRANCH  14  16
ATOM     16  O   UNL     1      -6.327   7.572 130.436  0.00  0.00    +0.000 OA
ATOM     17  H   UNL     1      -6.761   8.024 131.183  0.00  0.00    +0.000 HD
ENDBRANCH  14  16
ENDBRANCH   5  14
BRANCH   6  18
ATOM     18  S   UNL     1      -6.684   4.706 132.337  0.00  0.00    +0.000 S 
BRANCH  18  19
ATOM     19  C   UNL     1      -8.391   4.642 131.739  0.00  0.00    +0.000 C 
ATOM     20  C   UNL     1      -8.522   4.235 130.299  0.00  0.00    +0.000 C 
ATOM     21  N   UNL     1      -9.865   4.597 129.867  0.00  0.00    +0.000 NA
ATOM     22  C   UNL     1     -10.235   5.805 130.654  0.00  0.00    +0.000 C 
ATOM     23  C   UNL     1      -9.230   5.906 131.821  0.00  0.00    +0.000 C 
ATOM     24  H   UNL     1     -10.504   3.831 130.050  0.00  0.00    +0.000 HD
BRANCH  22  25
ATOM     25  C   UNL     1     -10.248   7.094 129.767  0.00  0.00    +0.000 C 
ATOM     26  O   UNL     1      -9.228   7.757 129.561  0.00  0.00    +0.000 OA
ATOM     27  N   UNL     1     -11.474   7.481 129.212  0.00  0.00    +0.000 N 
ATOM     28  C   UNL     1     -12.736   6.781 129.396  0.00  0.00    +0.000 C 
ATOM     29  C   UNL     1     -11.530   8.667 128.362  0.00  0.00    +0.000 C 
ENDBRANCH  22  25
ENDBRANCH  18  19
ENDBRANCH   6  18
TORSDOF 7
ENDMDL
MODEL 3
REMARK VINA RESULT:      -6.5      3.919      6.018
REMARK  Name = Meropenem
REMARK  11 active torsions:
REMARK  status: ('A' for Active; 'I' for Inactive)
REMARK    1  A    between atoms: C_2  and  C_3
REMARK    2  A    between atoms: C_3  and  C_4
REMARK    3  A    between atoms: C_3  and  O_5
REMARK    4  A    between atoms: C_9  and  C_10
REMARK    5  A    between atoms: C_10  and  O_11
REMARK    6  A    between atoms: C_13  and  S_14
REMARK    7  A    between atoms: S_14  and  C_15
REMARK    8  A    between atoms: C_18  and  C_20
REMARK    9  A    between atoms: N_22  and  C_23
REMARK   10  A    between atoms: N_22  and  C_24
REMARK   11  A    between atoms: C_25  and  C_26
REMARK                            x       y       z     vdW  Elec       q    Type
REMARK                         _______ _______ _______ _____ _____    ______ ____
ROOT
ATOM      1  C   UNL     1      -7.778   0.251 124.221  0.00  0.00    +0.000 C 
ATOM      2  C   UNL     1      -7.888   1.752 123.838  0.00  0.00    +0.000 C 
ATOM      3  O   UNL     1      -7.750   2.401 122.832  0.00  0.00    +0.000 OA
ATOM      4  N   UNL     1      -8.201   2.122 125.120  0.00  0.00    +0.000 N 
ATOM      5  C   UNL     1      -7.533   3.069 125.890  0.00  0.00    +0.000 C 
ATOM      6  C   UNL     1      -6.803   2.485 126.877  0.00  0.00    +0.000 C 
ATOM      7  C   UNL     1      -6.698   0.995 126.618  0.00  0.00    +0.000 C 
ATOM      8  C   UNL     1      -5.424   0.546 125.881  0.00  0.00    +0.000 C 
ATOM      9  C   UNL     1      -7.901   0.773 125.685  0.00  0.00    +0.000 C 
ENDROOT
BRANCH   1  10
ATOM     10  C   UNL     1      -8.868  -0.704 123.752  0.00  0.00    +0.000 C 
ATOM     11  C   UNL     1      -8.276  -1.801 122.872  0.00  0.00    +0.000 C 
BRANCH  10  12
ATOM     12  O   UNL     1      -9.869  -0.006 123.023  0.00  0.00    +0.000 OA
ATOM     13  H   UNL     1      -9.873   0.925 123.316  0.00  0.00    +0.000 HD
ENDBRANCH  10  12
ENDBRANCH   1  10
BRANCH   5  14
ATOM     14  C   UNL     1      -7.739   4.556 125.722  0.00  0.00    +0.000 C 
ATOM     15  O   UNL     1      -6.845   5.351 125.474  0.00  0.00    +0.000 OA
BRANCH  14  16
ATOM     16  O   UNL     1      -9.011   4.994 125.849  0.00  0.00    +0.000 OA
ATOM     17  H   UNL     1      -9.565   4.961 125.048  0.00  0.00    +0.000 HD
ENDBRANCH  14  16
ENDBRANCH   5  14
BRANCH   6  18
ATOM     18  S   UNL     1      -6.238   3.307 128.295  0.00  0.00    +0.000 S 
BRANCH  18  19
ATOM     19  C   UNL     1      -7.553   3.605 129.502  0.00  0.00    +0.000 C 
ATOM     20  C   UNL     1      -8.881   3.014 129.122  0.00  0.00    +0.000 C 
ATOM     21  N   UNL     1      -9.892   3.645 129.958  0.00  0.00    +0.000 NA
ATOM     22  C   UNL     1      -9.395   5.022 130.230  0.00  0.00    +0.000 C 
ATOM     23  C   UNL     1      -7.900   5.043 129.848  0.00  0.00    +0.000 C 
ATOM     24  H   UNL     1     -10.004   3.120 130.820  0.00  0.00    +0.000 HD
BRANCH  22  25
ATOM     25  C   UNL     1     -10.222   6.100 129.452  0.00  0.00    +0.000 C 
ATOM     26  O   UNL     1      -9.972   6.398 128.281  0.00  0.00    +0.000 OA
ATOM     27  N   UNL     1     -11.265   6.731 130.141  0.00  0.00    +0.000 N 
ATOM     28  C   UNL     1     -11.641   6.464 131.522  0.00  0.00    +0.000 C 
ATOM     29  C   UNL     1     -12.075   7.731 129.450  0.00  0.00    +0.000 C 
ENDBRANCH  22  25
ENDBRANCH  18  19
ENDBRANCH   6  18
TORSDOF 7
ENDMDL
MODEL 4
REMARK VINA RESULT:      -6.5      4.795      6.173
REMARK  Name = Meropenem
REMARK  11 active torsions:
REMARK  status: ('A' for Active; 'I' for Inactive)
REMARK    1  A    between atoms: C_2  and  C_3
REMARK    2  A    between atoms: C_3  and  C_4
REMARK    3  A    between atoms: C_3  and  O_5
REMARK    4  A    between atoms: C_9  and  C_10
REMARK    5  A    between atoms: C_10  and  O_11
REMARK    6  A    between atoms: C_13  and  S_14
REMARK    7  A    between atoms: S_14  and  C_15
REMARK    8  A    between atoms: C_18  and  C_20
REMARK    9  A    between atoms: N_22  and  C_23
REMARK   10  A    between atoms: N_22  and  C_24
REMARK   11  A    between atoms: C_25  and  C_26
REMARK                            x       y       z     vdW  Elec       q    Type
REMARK                         _______ _______ _______ _____ _____    ______ ____
ROOT
ATOM      1  C   UNL     1      -6.602   3.722 122.618  0.00  0.00    +0.000 C 
ATOM      2  C   UNL     1      -7.986   3.070 122.350  0.00  0.00    +0.000 C 
ATOM      3  O   UNL     1      -8.954   3.336 121.685  0.00  0.00    +0.000 OA
ATOM      4  N   UNL     1      -7.727   2.023 123.196  0.00  0.00    +0.000 N 
ATOM      5  C   UNL     1      -8.509   1.623 124.275  0.00  0.00    +0.000 C 
ATOM      6  C   UNL     1      -7.923   1.941 125.460  0.00  0.00    +0.000 C 
ATOM      7  C   UNL     1      -6.778   2.905 125.219  0.00  0.00    +0.000 C 
ATOM      8  C   UNL     1      -7.128   4.394 125.385  0.00  0.00    +0.000 C 
ATOM      9  C   UNL     1      -6.479   2.640 123.733  0.00  0.00    +0.000 C 
ENDROOT
BRANCH   1  10
ATOM     10  C   UNL     1      -5.549   3.680 121.518  0.00  0.00    +0.000 C 
ATOM     11  C   UNL     1      -4.549   4.819 121.693  0.00  0.00    +0.000 C 
BRANCH  10  12
ATOM     12  O   UNL     1      -6.156   3.781 120.237  0.00  0.00    +0.000 OA
ATOM     13  H   UNL     1      -6.288   4.726 120.031  0.00  0.00    +0.000 HD
ENDBRANCH  10  12
ENDBRANCH   1  10
BRANCH   5  14
ATOM     14  C   UNL     1      -9.767   0.804 124.117  0.00  0.00    +0.000 C 
ATOM     15  O   UNL     1      -9.788  -0.415 124.026  0.00  0.00    +0.000 OA
BRANCH  14  16
ATOM     16  O   UNL     1     -10.926   1.498 124.089  0.00  0.00    +0.000 OA
ATOM     17  H   UNL     1     -10.955   2.272 123.497  0.00  0.00    +0.000 HD
ENDBRANCH  14  16
ENDBRANCH   5  14
BRANCH   6  18
ATOM     18  S   UNL     1      -8.327   1.210 126.979  0.00  0.00    +0.000 S 
BRANCH  18  19
ATOM     19  C   UNL     1      -7.888   2.249 128.395  0.00  0.00    +0.000 C 
ATOM     20  C   UNL     1      -8.253   1.656 129.727  0.00  0.00    +0.000 C 
ATOM     21  N   UNL     1      -8.202   2.731 130.708  0.00  0.00    +0.000 NA
ATOM     22  C   UNL     1      -8.574   3.972 129.973  0.00  0.00    +0.000 C 
ATOM     23  C   UNL     1      -8.469   3.650 128.468  0.00  0.00    +0.000 C 
ATOM     24  H   UNL     1      -7.266   2.802 131.094  0.00  0.00    +0.000 HD
BRANCH  22  25
ATOM     25  C   UNL     1      -9.999   4.478 130.376  0.00  0.00    +0.000 C 
ATOM     26  O   UNL     1     -11.020   3.834 130.119  0.00  0.00    +0.000 OA
ATOM     27  N   UNL     1     -10.081   5.709 131.039  0.00  0.00    +0.000 N 
ATOM     28  C   UNL     1      -8.947   6.554 131.383  0.00  0.00    +0.000 C 
ATOM     29  C   UNL     1     -11.389   6.212 131.449  0.00  0.00    +0.000 C 
ENDBRANCH  22  25
ENDBRANCH  18  19
ENDBRANCH   6  18
TORSDOF 7
ENDMDL
MODEL 5
REMARK VINA RESULT:      -6.4      3.207      6.174
REMARK  Name = Meropenem
REMARK  11 active torsions:
REMARK  status: ('A' for Active; 'I' for Inactive)
REMARK    1  A    between atoms: C_2  and  C_3
REMARK    2  A    between atoms: C_3  and  C_4
REMARK    3  A    between atoms: C_3  and  O_5
REMARK    4  A    between atoms: C_9  and  C_10
REMARK    5  A    between atoms: C_10  and  O_11
REMARK    6  A    between atoms: C_13  and  S_14
REMARK    7  A    between atoms: S_14  and  C_15
REMARK    8  A    between atoms: C_18  and  C_20
REMARK    9  A    between atoms: N_22  and  C_23
REMARK   10  A    between atoms: N_22  and  C_24
REMARK   11  A    between atoms: C_25  and  C_26
REMARK                            x       y       z     vdW  Elec       q    Type
REMARK                         _______ _______ _______ _____ _____    ______ ____
ROOT
ATOM      1  C   UNL     1      -9.875   6.978 130.357  0.00  0.00    +0.000 C 
ATOM      2  C   UNL     1     -10.346   6.254 131.647  0.00  0.00    +0.000 C 
ATOM      3  O   UNL     1     -10.916   6.572 132.660  0.00  0.00    +0.000 OA
ATOM      4  N   UNL     1      -9.848   5.048 131.228  0.00  0.00    +0.000 N 
ATOM      5  C   UNL     1      -8.950   4.242 131.920  0.00  0.00    +0.000 C 
ATOM      6  C   UNL     1      -7.715   4.268 131.351  0.00  0.00    +0.000 C 
ATOM      7  C   UNL     1      -7.640   5.406 130.353  0.00  0.00    +0.000 C 
ATOM      8  C   UNL     1      -7.041   6.715 130.894  0.00  0.00    +0.000 C 
ATOM      9  C   UNL     1      -9.132   5.640 130.060  0.00  0.00    +0.000 C 
ENDROOT
BRANCH   1  10
ATOM     10  C   UNL     1     -10.921   7.410 129.337  0.00  0.00    +0.000 C 
ATOM     11  C   UNL     1     -10.345   8.462 128.393  0.00  0.00    +0.000 C 
BRANCH  10  12
ATOM     12  O   UNL     1     -12.068   7.940 129.988  0.00  0.00    +0.000 OA
ATOM     13  H   UNL     1     -11.781   8.657 130.586  0.00  0.00    +0.000 HD
ENDBRANCH  10  12
ENDBRANCH   1  10
BRANCH   5  14
ATOM     14  C   UNL     1      -9.365   3.344 133.061  0.00  0.00    +0.000 C 
ATOM     15  O   UNL     1      -9.319   2.123 133.028  0.00  0.00    +0.000 OA
BRANCH  14  16
ATOM     16  O   UNL     1      -9.800   3.969 134.177  0.00  0.00    +0.000 OA
ATOM     17  H   UNL     1     -10.234   3.411 134.848  0.00  0.00    +0.000 HD
ENDBRANCH  14  16
ENDBRANCH   5  14
BRANCH   6  18
ATOM     18  S   UNL     1      -6.491   3.070 131.613  0.00  0.00    +0.000 S 
BRANCH  18  19
ATOM     19  C   UNL     1      -6.626   1.670 130.474  0.00  0.00    +0.000 C 
ATOM     20  C   UNL     1      -5.698   1.746 129.294  0.00  0.00    +0.000 C 
ATOM     21  N   UNL     1      -6.178   0.794 128.303  0.00  0.00    +0.000 NA
ATOM     22  C   UNL     1      -7.655   0.736 128.474  0.00  0.00    +0.000 C 
ATOM     23  C   UNL     1      -7.975   1.388 129.836  0.00  0.00    +0.000 C 
ATOM     24  H   UNL     1      -5.755  -0.115 128.465  0.00  0.00    +0.000 HD
BRANCH  22  25
ATOM     25  C   UNL     1      -8.404   1.436 127.291  0.00  0.00    +0.000 C 
ATOM     26  O   UNL     1      -8.611   2.652 127.274  0.00  0.00    +0.000 OA
ATOM     27  N   UNL     1      -8.844   0.623 126.238  0.00  0.00    +0.000 N 
ATOM     28  C   UNL     1      -8.662  -0.818 126.159  0.00  0.00    +0.000 C 
ATOM     29  C   UNL     1      -9.531   1.235 125.104  0.00  0.00    +0.000 C 
ENDBRANCH  22  25
ENDBRANCH  18  19
ENDBRANCH   6  18
TORSDOF 7
ENDMDL
MODEL 6
REMARK VINA RESULT:      -6.4      5.465      8.332
REMARK  Name = Meropenem
REMARK  11 active torsions:
REMARK  status: ('A' for Active; 'I' for Inactive)
REMARK    1  A    between atoms: C_2  and  C_3
REMARK    2  A    between atoms: C_3  and  C_4
REMARK    3  A    between atoms: C_3  and  O_5
REMARK    4  A    between atoms: C_9  and  C_10
REMARK    5  A    between atoms: C_10  and  O_11
REMARK    6  A    between atoms: C_13  and  S_14
REMARK    7  A    between atoms: S_14  and  C_15
REMARK    8  A    between atoms: C_18  and  C_20
REMARK    9  A    between atoms: N_22  and  C_23
REMARK   10  A    between atoms: N_22  and  C_24
REMARK   11  A    between atoms: C_25  and  C_26
REMARK                            x       y       z     vdW  Elec       q    Type
REMARK                         _______ _______ _______ _____ _____    ______ ____
ROOT
ATOM      1  C   UNL     1      -7.663  -2.480 126.241  0.00  0.00    +0.000 C 
ATOM      2  C   UNL     1      -8.978  -2.135 125.490  0.00  0.00    +0.000 C 
ATOM      3  O   UNL     1      -9.916  -2.756 125.058  0.00  0.00    +0.000 OA
ATOM      4  N   UNL     1      -8.689  -0.796 125.467  0.00  0.00    +0.000 N 
ATOM      5  C   UNL     1      -8.633   0.015 124.337  0.00  0.00    +0.000 C 
ATOM      6  C   UNL     1      -7.351   0.345 124.023  0.00  0.00    +0.000 C 
ATOM      7  C   UNL     1      -6.394  -0.532 124.805  0.00  0.00    +0.000 C 
ATOM      8  C   UNL     1      -5.891  -1.780 124.060  0.00  0.00    +0.000 C 
ATOM      9  C   UNL     1      -7.295  -0.990 125.965  0.00  0.00    +0.000 C 
ENDROOT
BRANCH   1  10
ATOM     10  C   UNL     1      -7.744  -2.894 127.705  0.00  0.00    +0.000 C 
ATOM     11  C   UNL     1      -8.888  -3.880 127.918  0.00  0.00    +0.000 C 
BRANCH  10  12
ATOM     12  O   UNL     1      -7.941  -1.759 128.538  0.00  0.00    +0.000 OA
ATOM     13  H   UNL     1      -7.779  -0.954 128.008  0.00  0.00    +0.000 HD
ENDBRANCH  10  12
ENDBRANCH   1  10
BRANCH   5  14
ATOM     14  C   UNL     1      -9.866   0.566 123.662  0.00  0.00    +0.000 C 
ATOM     15  O   UNL     1     -10.430   0.035 122.717  0.00  0.00    +0.000 OA
BRANCH  14  16
ATOM     16  O   UNL     1     -10.354   1.718 124.172  0.00  0.00    +0.000 OA
ATOM     17  H   UNL     1     -10.236   2.519 123.630  0.00  0.00    +0.000 HD
ENDBRANCH  14  16
ENDBRANCH   5  14
BRANCH   6  18
ATOM     18  S   UNL     1      -6.905   1.683 123.016  0.00  0.00    +0.000 S 
BRANCH  18  19
ATOM     19  C   UNL     1      -7.078   3.279 123.852  0.00  0.00    +0.000 C 
ATOM     20  C   UNL     1      -5.983   4.258 123.538  0.00  0.00    +0.000 C 
ATOM     21  N   UNL     1      -6.039   5.308 124.545  0.00  0.00    +0.000 NA
ATOM     22  C   UNL     1      -6.539   4.656 125.787  0.00  0.00    +0.000 C 
ATOM     23  C   UNL     1      -7.132   3.294 125.370  0.00  0.00    +0.000 C 
ATOM     24  H   UNL     1      -6.665   6.046 124.241  0.00  0.00    +0.000 HD
BRANCH  22  25
ATOM     25  C   UNL     1      -5.411   4.510 126.861  0.00  0.00    +0.000 C 
ATOM     26  O   UNL     1      -4.214   4.539 126.561  0.00  0.00    +0.000 OA
ATOM     27  N   UNL     1      -5.808   4.335 128.192  0.00  0.00    +0.000 N 
ATOM     28  C   UNL     1      -7.187   4.277 128.655  0.00  0.00    +0.000 C 
ATOM     29  C   UNL     1      -4.789   4.212 129.231  0.00  0.00    +0.000 C 
ENDBRANCH  22  25
ENDBRANCH  18  19
ENDBRANCH   6  18
TORSDOF 7
ENDMDL
MODEL 7
REMARK VINA RESULT:      -6.3      7.045      9.479
REMARK  Name = Meropenem
REMARK  11 active torsions:
REMARK  status: ('A' for Active; 'I' for Inactive)
REMARK    1  A    between atoms: C_2  and  C_3
REMARK    2  A    between atoms: C_3  and  C_4
REMARK    3  A    between atoms: C_3  and  O_5
REMARK    4  A    between atoms: C_9  and  C_10
REMARK    5  A    between atoms: C_10  and  O_11
REMARK    6  A    between atoms: C_13  and  S_14
REMARK    7  A    between atoms: S_14  and  C_15
REMARK    8  A    between atoms: C_18  and  C_20
REMARK    9  A    between atoms: N_22  and  C_23
REMARK   10  A    between atoms: N_22  and  C_24
REMARK   11  A    between atoms: C_25  and  C_26
REMARK                            x       y       z     vdW  Elec       q    Type
REMARK                         _______ _______ _______ _____ _____    ______ ____
ROOT
ATOM      1  C   UNL     1      -8.516   1.529 123.791  0.00  0.00    +0.000 C 
ATOM      2  C   UNL     1      -9.166   0.233 123.236  0.00  0.00    +0.000 C 
ATOM      3  O   UNL     1     -10.134  -0.034 122.571  0.00  0.00    +0.000 OA
ATOM      4  N   UNL     1      -8.211  -0.567 123.808  0.00  0.00    +0.000 N 
ATOM      5  C   UNL     1      -8.441  -1.635 124.671  0.00  0.00    +0.000 C 
ATOM      6  C   UNL     1      -8.090  -1.328 125.949  0.00  0.00    +0.000 C 
ATOM      7  C   UNL     1      -7.871   0.167 126.071  0.00  0.00    +0.000 C 
ATOM      8  C   UNL     1      -9.083   0.968 126.575  0.00  0.00    +0.000 C 
ATOM      9  C   UNL     1      -7.616   0.548 124.602  0.00  0.00    +0.000 C 
ENDROOT
BRANCH   1  10
ATOM     10  C   UNL     1      -7.798   2.460 122.823  0.00  0.00    +0.000 C 
ATOM     11  C   UNL     1      -6.589   3.103 123.497  0.00  0.00    +0.000 C 
BRANCH  10  12
ATOM     12  O   UNL     1      -8.675   3.479 122.361  0.00  0.00    +0.000 OA
ATOM     13  H   UNL     1      -9.255   3.746 123.100  0.00  0.00    +0.000 HD
ENDBRANCH  10  12
ENDBRANCH   1  10
BRANCH   5  14
ATOM     14  C   UNL     1      -8.877  -2.998 124.190  0.00  0.00    +0.000 C 
ATOM     15  O   UNL     1      -8.225  -4.021 124.338  0.00  0.00    +0.000 OA
BRANCH  14  16
ATOM     16  O   UNL     1     -10.077  -3.050 123.571  0.00  0.00    +0.000 OA
ATOM     17  H   UNL     1     -10.625  -2.246 123.616  0.00  0.00    +0.000 HD
ENDBRANCH  14  16
ENDBRANCH   5  14
BRANCH   6  18
ATOM     18  S   UNL     1      -7.776  -2.500 127.186  0.00  0.00    +0.000 S 
BRANCH  18  19
ATOM     19  C   UNL     1      -7.592  -1.756 128.826  0.00  0.00    +0.000 C 
ATOM     20  C   UNL     1      -6.190  -1.322 129.149  0.00  0.00    +0.000 C 
ATOM     21  N   UNL     1      -6.122  -1.114 130.588  0.00  0.00    +0.000 NA
ATOM     22  C   UNL     1      -7.087  -2.078 131.186  0.00  0.00    +0.000 C 
ATOM     23  C   UNL     1      -7.989  -2.580 130.038  0.00  0.00    +0.000 C 
ATOM     24  H   UNL     1      -6.376  -0.157 130.811  0.00  0.00    +0.000 HD
BRANCH  22  25
ATOM     25  C   UNL     1      -6.354  -3.249 131.921  0.00  0.00    +0.000 C 
ATOM     26  O   UNL     1      -5.377  -3.822 131.431  0.00  0.00    +0.000 OA
ATOM     27  N   UNL     1      -6.856  -3.639 133.170  0.00  0.00    +0.000 N 
ATOM     28  C   UNL     1      -8.005  -3.042 133.835  0.00  0.00    +0.000 C 
ATOM     29  C   UNL     1      -6.194  -4.716 133.901  0.00  0.00    +0.000 C 
ENDBRANCH  22  25
ENDBRANCH  18  19
ENDBRANCH   6  18
TORSDOF 7
ENDMDL
MODEL 8
REMARK VINA RESULT:      -6.2      4.170      7.223
REMARK  Name = Meropenem
REMARK  11 active torsions:
REMARK  status: ('A' for Active; 'I' for Inactive)
REMARK    1  A    between atoms: C_2  and  C_3
REMARK    2  A    between atoms: C_3  and  C_4
REMARK    3  A    between atoms: C_3  and  O_5
REMARK    4  A    between atoms: C_9  and  C_10
REMARK    5  A    between atoms: C_10  and  O_11
REMARK    6  A    between atoms: C_13  and  S_14
REMARK    7  A    between atoms: S_14  and  C_15
REMARK    8  A    between atoms: C_18  and  C_20
REMARK    9  A    between atoms: N_22  and  C_23
REMARK   10  A    between atoms: N_22  and  C_24
REMARK   11  A    between atoms: C_25  and  C_26
REMARK                            x       y       z     vdW  Elec       q    Type
REMARK                         _______ _______ _______ _____ _____    ______ ____
ROOT
ATOM      1  C   UNL     1      -9.945   6.928 130.276  0.00  0.00    +0.000 C 
ATOM      2  C   UNL     1     -10.424   6.219 131.572  0.00  0.00    +0.000 C 
ATOM      3  O   UNL     1     -11.102   6.518 132.522  0.00  0.00    +0.000 OA
ATOM      4  N   UNL     1      -9.757   5.063 131.261  0.00  0.00    +0.000 N 
ATOM      5  C   UNL     1      -8.825   4.409 132.062  0.00  0.00    +0.000 C 
ATOM      6  C   UNL     1      -7.563   4.557 131.579  0.00  0.00    +0.000 C 
ATOM      7  C   UNL     1      -7.546   5.642 130.521  0.00  0.00    +0.000 C 
ATOM      8  C   UNL     1      -7.149   7.041 131.023  0.00  0.00    +0.000 C 
ATOM      9  C   UNL     1      -9.030   5.677 130.112  0.00  0.00    +0.000 C 
ENDROOT
BRANCH   1  10
ATOM     10  C   UNL     1     -10.954   7.175 129.162  0.00  0.00    +0.000 C 
ATOM     11  C   UNL     1     -11.878   8.334 129.526  0.00  0.00    +0.000 C 
BRANCH  10  12
ATOM     12  O   UNL     1     -11.734   6.011 128.923  0.00  0.00    +0.000 OA
ATOM     13  H   UNL     1     -11.442   5.311 129.539  0.00  0.00    +0.000 HD
ENDBRANCH  10  12
ENDBRANCH   1  10
BRANCH   5  14
ATOM     14  C   UNL     1      -9.217   3.528 133.224  0.00  0.00    +0.000 C 
ATOM     15  O   UNL     1      -9.118   2.310 133.228  0.00  0.00    +0.000 OA
BRANCH  14  16
ATOM     16  O   UNL     1      -9.693   4.165 134.316  0.00  0.00    +0.000 OA
ATOM     17  H   UNL     1      -9.100   4.818 134.732  0.00  0.00    +0.000 HD
ENDBRANCH  14  16
ENDBRANCH   5  14
BRANCH   6  18
ATOM     18  S   UNL     1      -6.229   3.531 131.997  0.00  0.00    +0.000 S 
BRANCH  18  19
ATOM     19  C   UNL     1      -5.439   4.009 133.553  0.00  0.00    +0.000 C 
ATOM     20  C   UNL     1      -5.885   3.203 134.740  0.00  0.00    +0.000 C 
ATOM     21  N   UNL     1      -5.479   3.930 135.934  0.00  0.00    +0.000 NA
ATOM     22  C   UNL     1      -5.522   5.373 135.569  0.00  0.00    +0.000 C 
ATOM     23  C   UNL     1      -5.594   5.443 134.029  0.00  0.00    +0.000 C 
ATOM     24  H   UNL     1      -4.542   3.650 136.207  0.00  0.00    +0.000 HD
BRANCH  22  25
ATOM     25  C   UNL     1      -6.722   6.108 136.254  0.00  0.00    +0.000 C 
ATOM     26  O   UNL     1      -7.888   5.729 136.115  0.00  0.00    +0.000 OA
ATOM     27  N   UNL     1      -6.426   7.233 137.035  0.00  0.00    +0.000 N 
ATOM     28  C   UNL     1      -5.092   7.771 137.258  0.00  0.00    +0.000 C 
ATOM     29  C   UNL     1      -7.512   7.940 137.707  0.00  0.00    +0.000 C 
ENDBRANCH  22  25
ENDBRANCH  18  19
ENDBRANCH   6  18
TORSDOF 7
ENDMDL
MODEL 9
REMARK VINA RESULT:      -6.2      2.147      4.076
REMARK  Name = Meropenem
REMARK  11 active torsions:
REMARK  status: ('A' for Active; 'I' for Inactive)
REMARK    1  A    between atoms: C_2  and  C_3
REMARK    2  A    between atoms: C_3  and  C_4
REMARK    3  A    between atoms: C_3  and  O_5
REMARK    4  A    between atoms: C_9  and  C_10
REMARK    5  A    between atoms: C_10  and  O_11
REMARK    6  A    between atoms: C_13  and  S_14
REMARK    7  A    between atoms: S_14  and  C_15
REMARK    8  A    between atoms: C_18  and  C_20
REMARK    9  A    between atoms: N_22  and  C_23
REMARK   10  A    between atoms: N_22  and  C_24
REMARK   11  A    between atoms: C_25  and  C_26
REMARK                            x       y       z     vdW  Elec       q    Type
REMARK                         _______ _______ _______ _____ _____    ______ ____
ROOT
ATOM      1  C   UNL     1      -7.634   2.768 126.773  0.00  0.00    +0.000 C 
ATOM      2  C   UNL     1      -6.162   3.211 126.996  0.00  0.00    +0.000 C 
ATOM      3  O   UNL     1      -5.077   2.806 126.666  0.00  0.00    +0.000 OA
ATOM      4  N   UNL     1      -6.535   4.286 127.760  0.00  0.00    +0.000 N 
ATOM      5  C   UNL     1      -6.099   4.569 129.052  0.00  0.00    +0.000 C 
ATOM      6  C   UNL     1      -7.077   4.342 129.969  0.00  0.00    +0.000 C 
ATOM      7  C   UNL     1      -8.203   3.555 129.327  0.00  0.00    +0.000 C 
ATOM      8  C   UNL     1      -8.136   2.032 129.528  0.00  0.00    +0.000 C 
ATOM      9  C   UNL     1      -7.962   3.859 127.838  0.00  0.00    +0.000 C 
ENDROOT
BRANCH   1  10
ATOM     10  C   UNL     1      -8.255   2.962 125.396  0.00  0.00    +0.000 C 
ATOM     11  C   UNL     1      -7.172   2.992 124.321  0.00  0.00    +0.000 C 
BRANCH  10  12
ATOM     12  O   UNL     1      -8.999   4.173 125.346  0.00  0.00    +0.000 OA
ATOM     13  H   UNL     1      -9.256   4.340 124.419  0.00  0.00    +0.000 HD
ENDBRANCH  10  12
ENDBRANCH   1  10
BRANCH   5  14
ATOM     14  C   UNL     1      -4.757   5.196 129.345  0.00  0.00    +0.000 C 
ATOM     15  O   UNL     1      -4.517   6.389 129.242  0.00  0.00    +0.000 OA
BRANCH  14  16
ATOM     16  O   UNL     1      -3.787   4.350 129.757  0.00  0.00    +0.000 OA
ATOM     17  H   UNL     1      -3.074   4.735 130.298  0.00  0.00    +0.000 HD
ENDBRANCH  14  16
ENDBRANCH   5  14
BRANCH   6  18
ATOM     18  S   UNL     1      -7.092   5.008 131.569  0.00  0.00    +0.000 S 
BRANCH  18  19
ATOM     19  C   UNL     1      -8.584   5.973 131.911  0.00  0.00    +0.000 C 
ATOM     20  C   UNL     1      -9.721   5.168 132.475  0.00  0.00    +0.000 C 
ATOM     21  N   UNL     1     -10.929   5.967 132.335  0.00  0.00    +0.000 NA
ATOM     22  C   UNL     1     -10.733   6.792 131.111  0.00  0.00    +0.000 C 
ATOM     23  C   UNL     1      -9.231   6.731 130.765  0.00  0.00    +0.000 C 
ATOM     24  H   UNL     1     -11.054   6.552 133.154  0.00  0.00    +0.000 HD
BRANCH  22  25
ATOM     25  C   UNL     1     -11.637   6.303 129.931  0.00  0.00    +0.000 C 
ATOM     26  O   UNL     1     -11.641   5.128 129.553  0.00  0.00    +0.000 OA
ATOM     27  N   UNL     1     -12.446   7.257 129.301  0.00  0.00    +0.000 N 
ATOM     28  C   UNL     1     -12.512   8.666 129.657  0.00  0.00    +0.000 C 
ATOM     29  C   UNL     1     -13.318   6.842 128.206  0.00  0.00    +0.000 C 
ENDBRANCH  22  25
ENDBRANCH  18  19
ENDBRANCH   6  18
TORSDOF 7
ENDMDL
