MODEL 1
REMARK VINA RESULT:      -5.6      0.000      0.000
REMARK  Name = Mesalazine
REMARK  4 active torsions:
REMARK  status: ('A' for Active; 'I' for Inactive)
REMARK    1  A    between atoms: N_1  and  C_2
REMARK    2  A    between atoms: C_4  and  C_5
REMARK    3  A    between atoms: C_5  and  O_6
REMARK    4  A    between atoms: C_8  and  O_9
REMARK                            x       y       z     vdW  Elec       q    Type
REMARK                         _______ _______ _______ _____ _____    ______ ____
ROOT
ATOM      1  C   UNL     1     -12.799   9.307 129.532  0.00  0.00    +0.000 A 
ATOM      2  C   UNL     1     -12.167   8.789 128.394  0.00  0.00    +0.000 A 
ATOM      3  C   UNL     1     -11.698   7.467 128.360  0.00  0.00    +0.000 A 
ATOM      4  C   UNL     1     -11.903   6.657 129.490  0.00  0.00    +0.000 A 
ATOM      5  C   UNL     1     -12.526   7.166 130.629  0.00  0.00    +0.000 A 
ATOM      6  C   UNL     1     -12.968   8.489 130.648  0.00  0.00    +0.000 A 
ENDROOT
BRANCH   1   7
ATOM      7  N   UNL     1     -13.238  10.618 129.540  0.00  0.00    +0.000 N 
ATOM      8  H   UNL     1     -12.943  11.278 128.835  0.00  0.00    +0.000 HD
ATOM      9  H   UNL     1     -13.871  10.946 130.258  0.00  0.00    +0.000 HD
ENDBRANCH   1   7
BRANCH   3  10
ATOM     10  C   UNL     1     -10.978   6.895 127.185  0.00  0.00    +0.000 C 
ATOM     11  O   UNL     1      -9.811   6.535 127.283  0.00  0.00    +0.000 OA
BRANCH  10  12
ATOM     12  O   UNL     1     -11.645   6.797 126.020  0.00  0.00    +0.000 OA
ATOM     13  H   UNL     1     -12.217   7.531 125.745  0.00  0.00    +0.000 HD
ENDBRANCH  10  12
ENDBRANCH   3  10
BRANCH   4  14
ATOM     14  O   UNL     1     -11.526   5.341 129.561  0.00  0.00    +0.000 OA
ATOM     15  H   UNL     1     -11.137   5.173 130.450  0.00  0.00    +0.000 HD
ENDBRANCH   4  14
TORSDOF 4
ENDMDL
MODEL 2
REMARK VINA RESULT:      -5.5      2.337      2.870
REMARK  Name = Mesalazine
REMARK  4 active torsions:
REMARK  status: ('A' for Active; 'I' for Inactive)
REMARK    1  A    between atoms: N_1  and  C_2
REMARK    2  A    between atoms: C_4  and  C_5
REMARK    3  A    between atoms: C_5  and  O_6
REMARK    4  A    between atoms: C_8  and  O_9
REMARK                            x       y       z     vdW  Elec       q    Type
REMARK                         _______ _______ _______ _____ _____    ______ ____
ROOT
ATOM      1  C   UNL     1     -11.712   6.226 130.673  0.00  0.00    +0.000 A 
ATOM      2  C   UNL     1     -11.390   6.289 129.311  0.00  0.00    +0.000 A 
ATOM      3  C   UNL     1     -11.796   7.371 128.516  0.00  0.00    +0.000 A 
ATOM      4  C   UNL     1     -12.515   8.414 129.126  0.00  0.00    +0.000 A 
ATOM      5  C   UNL     1     -12.845   8.357 130.479  0.00  0.00    +0.000 A 
ATOM      6  C   UNL     1     -12.447   7.262 131.247  0.00  0.00    +0.000 A 
ENDROOT
BRANCH   1   7
ATOM      7  N   UNL     1     -11.310   5.140 131.427  0.00  0.00    +0.000 N 
ATOM      8  H   UNL     1     -11.677   4.214 131.258  0.00  0.00    +0.000 HD
ATOM      9  H   UNL     1     -10.631   5.249 132.170  0.00  0.00    +0.000 HD
ENDBRANCH   1   7
BRANCH   3  10
ATOM     10  C   UNL     1     -11.513   7.451 127.054  0.00  0.00    +0.000 C 
ATOM     11  O   UNL     1     -10.773   8.319 126.607  0.00  0.00    +0.000 OA
BRANCH  10  12
ATOM     12  O   UNL     1     -12.101   6.549 126.245  0.00  0.00    +0.000 OA
ATOM     13  H   UNL     1     -12.132   6.727 125.291  0.00  0.00    +0.000 HD
ENDBRANCH  10  12
ENDBRANCH   3  10
BRANCH   4  14
ATOM     14  O   UNL     1     -12.931   9.540 128.463  0.00  0.00    +0.000 OA
ATOM     15  H   UNL     1     -12.937   9.352 127.497  0.00  0.00    +0.000 HD
ENDBRANCH   4  14
TORSDOF 4
ENDMDL
MODEL 3
REMARK VINA RESULT:      -5.4      1.809      3.295
REMARK  Name = Mesalazine
REMARK  4 active torsions:
REMARK  status: ('A' for Active; 'I' for Inactive)
REMARK    1  A    between atoms: N_1  and  C_2
REMARK    2  A    between atoms: C_4  and  C_5
REMARK    3  A    between atoms: C_5  and  O_6
REMARK    4  A    between atoms: C_8  and  O_9
REMARK                            x       y       z     vdW  Elec       q    Type
REMARK                         _______ _______ _______ _____ _____    ______ ____
ROOT
ATOM      1  C   UNL     1     -12.320   8.774 128.725  0.00  0.00    +0.000 A 
ATOM      2  C   UNL     1     -12.116   8.180 129.977  0.00  0.00    +0.000 A 
ATOM      3  C   UNL     1     -11.111   7.220 130.174  0.00  0.00    +0.000 A 
ATOM      4  C   UNL     1     -10.287   6.885 129.085  0.00  0.00    +0.000 A 
ATOM      5  C   UNL     1     -10.487   7.467 127.834  0.00  0.00    +0.000 A 
ATOM      6  C   UNL     1     -11.504   8.405 127.656  0.00  0.00    +0.000 A 
ENDROOT
BRANCH   1   7
ATOM      7  N   UNL     1     -13.327   9.706 128.560  0.00  0.00    +0.000 N 
ATOM      8  H   UNL     1     -13.339  10.335 127.770  0.00  0.00    +0.000 HD
ATOM      9  H   UNL     1     -14.080   9.777 129.231  0.00  0.00    +0.000 HD
ENDBRANCH   1   7
BRANCH   3  10
ATOM     10  C   UNL     1     -10.895   6.532 131.479  0.00  0.00    +0.000 C 
ATOM     11  O   UNL     1      -9.793   6.541 132.014  0.00  0.00    +0.000 OA
BRANCH  10  12
ATOM     12  O   UNL     1     -11.940   5.898 132.042  0.00  0.00    +0.000 OA
ATOM     13  H   UNL     1     -11.920   4.929 132.106  0.00  0.00    +0.000 HD
ENDBRANCH  10  12
ENDBRANCH   3  10
BRANCH   4  14
ATOM     14  O   UNL     1      -9.249   5.993 129.163  0.00  0.00    +0.000 OA
ATOM     15  H   UNL     1      -8.414   6.493 129.311  0.00  0.00    +0.000 HD
ENDBRANCH   4  14
TORSDOF 4
ENDMDL
MODEL 4
REMARK VINA RESULT:      -5.2      8.879     10.359
REMARK  Name = Mesalazine
REMARK  4 active torsions:
REMARK  status: ('A' for Active; 'I' for Inactive)
REMARK    1  A    between atoms: N_1  and  C_2
REMARK    2  A    between atoms: C_4  and  C_5
REMARK    3  A    between atoms: C_5  and  O_6
REMARK    4  A    between atoms: C_8  and  O_9
REMARK                            x       y       z     vdW  Elec       q    Type
REMARK                         _______ _______ _______ _____ _____    ______ ____
ROOT
ATOM      1  C   UNL     1      -8.796   4.188 119.363  0.00  0.00    +0.000 A 
ATOM      2  C   UNL     1      -8.830   3.722 120.684  0.00  0.00    +0.000 A 
ATOM      3  C   UNL     1      -7.653   3.575 121.435  0.00  0.00    +0.000 A 
ATOM      4  C   UNL     1      -6.432   3.935 120.840  0.00  0.00    +0.000 A 
ATOM      5  C   UNL     1      -6.389   4.393 119.524  0.00  0.00    +0.000 A 
ATOM      6  C   UNL     1      -7.568   4.514 118.788  0.00  0.00    +0.000 A 
ENDROOT
BRANCH   1   7
ATOM      7  N   UNL     1      -9.970   4.309 118.645  0.00  0.00    +0.000 N 
ATOM      8  H   UNL     1     -10.624   3.543 118.569  0.00  0.00    +0.000 HD
ATOM      9  H   UNL     1     -10.202   5.175 118.176  0.00  0.00    +0.000 HD
ENDBRANCH   1   7
BRANCH   3  10
ATOM     10  C   UNL     1      -7.645   3.038 122.827  0.00  0.00    +0.000 C 
ATOM     11  O   UNL     1      -7.017   2.022 123.100  0.00  0.00    +0.000 OA
BRANCH  10  12
ATOM     12  O   UNL     1      -8.353   3.696 123.764  0.00  0.00    +0.000 OA
ATOM     13  H   UNL     1      -8.550   4.636 123.627  0.00  0.00    +0.000 HD
ENDBRANCH  10  12
ENDBRANCH   3  10
BRANCH   4  14
ATOM     14  O   UNL     1      -5.224   3.873 121.484  0.00  0.00    +0.000 OA
ATOM     15  H   UNL     1      -4.972   4.781 121.768  0.00  0.00    +0.000 HD
ENDBRANCH   4  14
TORSDOF 4
ENDMDL
MODEL 5
REMARK VINA RESULT:      -5.2      2.862      3.364
REMARK  Name = Mesalazine
REMARK  4 active torsions:
REMARK  status: ('A' for Active; 'I' for Inactive)
REMARK    1  A    between atoms: N_1  and  C_2
REMARK    2  A    between atoms: C_4  and  C_5
REMARK    3  A    between atoms: C_5  and  O_6
REMARK    4  A    between atoms: C_8  and  O_9
REMARK                            x       y       z     vdW  Elec       q    Type
REMARK                         _______ _______ _______ _____ _____    ______ ____
ROOT
ATOM      1  C   UNL     1     -11.585   8.091 129.402  0.00  0.00    +0.000 A 
ATOM      2  C   UNL     1     -10.272   7.656 129.622  0.00  0.00    +0.000 A 
ATOM      3  C   UNL     1      -9.941   6.874 130.739  0.00  0.00    +0.000 A 
ATOM      4  C   UNL     1     -10.969   6.509 131.626  0.00  0.00    +0.000 A 
ATOM      5  C   UNL     1     -12.278   6.943 131.418  0.00  0.00    +0.000 A 
ATOM      6  C   UNL     1     -12.581   7.736 130.310  0.00  0.00    +0.000 A 
ENDROOT
BRANCH   1   7
ATOM      7  N   UNL     1     -11.877   8.872 128.299  0.00  0.00    +0.000 N 
ATOM      8  H   UNL     1     -12.261   9.801 128.397  0.00  0.00    +0.000 HD
ATOM      9  H   UNL     1     -11.710   8.527 127.363  0.00  0.00    +0.000 HD
ENDBRANCH   1   7
BRANCH   3  10
ATOM     10  C   UNL     1      -8.547   6.432 131.032  0.00  0.00    +0.000 C 
ATOM     11  O   UNL     1      -8.334   5.347 131.559  0.00  0.00    +0.000 OA
BRANCH  10  12
ATOM     12  O   UNL     1      -7.538   7.262 130.708  0.00  0.00    +0.000 OA
ATOM     13  H   UNL     1      -6.885   6.970 130.052  0.00  0.00    +0.000 HD
ENDBRANCH  10  12
ENDBRANCH   3  10
BRANCH   4  14
ATOM     14  O   UNL     1     -10.777   5.717 132.729  0.00  0.00    +0.000 OA
ATOM     15  H   UNL     1     -10.514   4.818 132.428  0.00  0.00    +0.000 HD
ENDBRANCH   4  14
TORSDOF 4
ENDMDL
MODEL 6
REMARK VINA RESULT:      -5.1      2.462      3.377
REMARK  Name = Mesalazine
REMARK  4 active torsions:
REMARK  status: ('A' for Active; 'I' for Inactive)
REMARK    1  A    between atoms: N_1  and  C_2
REMARK    2  A    between atoms: C_4  and  C_5
REMARK    3  A    between atoms: C_5  and  O_6
REMARK    4  A    between atoms: C_8  and  O_9
REMARK                            x       y       z     vdW  Elec       q    Type
REMARK                         _______ _______ _______ _____ _____    ______ ____
ROOT
ATOM      1  C   UNL     1     -11.421   7.878 127.904  0.00  0.00    +0.000 A 
ATOM      2  C   UNL     1     -11.122   6.703 128.604  0.00  0.00    +0.000 A 
ATOM      3  C   UNL     1     -11.661   6.454 129.875  0.00  0.00    +0.000 A 
ATOM      4  C   UNL     1     -12.539   7.404 130.424  0.00  0.00    +0.000 A 
ATOM      5  C   UNL     1     -12.838   8.580 129.737  0.00  0.00    +0.000 A 
ATOM      6  C   UNL     1     -12.276   8.816 128.483  0.00  0.00    +0.000 A 
ENDROOT
BRANCH   1   7
ATOM      7  N   UNL     1     -10.863   8.101 126.659  0.00  0.00    +0.000 N 
ATOM      8  H   UNL     1     -11.246   7.678 125.826  0.00  0.00    +0.000 HD
ATOM      9  H   UNL     1     -10.054   8.699 126.555  0.00  0.00    +0.000 HD
ENDBRANCH   1   7
BRANCH   3  10
ATOM     10  C   UNL     1     -11.328   5.237 130.670  0.00  0.00    +0.000 C 
ATOM     11  O   UNL     1     -11.340   4.128 130.149  0.00  0.00    +0.000 OA
BRANCH  10  12
ATOM     12  O   UNL     1     -11.025   5.394 131.972  0.00  0.00    +0.000 OA
ATOM     13  H   UNL     1     -11.608   4.998 132.639  0.00  0.00    +0.000 HD
ENDBRANCH  10  12
ENDBRANCH   3  10
BRANCH   4  14
ATOM     14  O   UNL     1     -13.159   7.255 131.638  0.00  0.00    +0.000 OA
ATOM     15  H   UNL     1     -13.169   8.127 132.095  0.00  0.00    +0.000 HD
ENDBRANCH   4  14
TORSDOF 4
ENDMDL
MODEL 7
REMARK VINA RESULT:      -4.9     12.224     13.081
REMARK  Name = Mesalazine
REMARK  4 active torsions:
REMARK  status: ('A' for Active; 'I' for Inactive)
REMARK    1  A    between atoms: N_1  and  C_2
REMARK    2  A    between atoms: C_4  and  C_5
REMARK    3  A    between atoms: C_5  and  O_6
REMARK    4  A    between atoms: C_8  and  O_9
REMARK                            x       y       z     vdW  Elec       q    Type
REMARK                         _______ _______ _______ _____ _____    ______ ____
ROOT
ATOM      1  C   UNL     1      -5.636  -3.509 123.875  0.00  0.00    +0.000 A 
ATOM      2  C   UNL     1      -6.948  -3.779 124.288  0.00  0.00    +0.000 A 
ATOM      3  C   UNL     1      -8.019  -2.966 123.888  0.00  0.00    +0.000 A 
ATOM      4  C   UNL     1      -7.751  -1.882 123.034  0.00  0.00    +0.000 A 
ATOM      5  C   UNL     1      -6.448  -1.603 122.623  0.00  0.00    +0.000 A 
ATOM      6  C   UNL     1      -5.395  -2.413 123.048  0.00  0.00    +0.000 A 
ENDROOT
BRANCH   1   7
ATOM      7  N   UNL     1      -4.600  -4.321 124.297  0.00  0.00    +0.000 N 
ATOM      8  H   UNL     1      -4.384  -4.434 125.277  0.00  0.00    +0.000 HD
ATOM      9  H   UNL     1      -4.032  -4.824 123.628  0.00  0.00    +0.000 HD
ENDBRANCH   1   7
BRANCH   3  10
ATOM     10  C   UNL     1      -9.420  -3.193 124.344  0.00  0.00    +0.000 C 
ATOM     11  O   UNL     1      -9.735  -3.003 125.513  0.00  0.00    +0.000 OA
BRANCH  10  12
ATOM     12  O   UNL     1     -10.321  -3.620 123.439  0.00  0.00    +0.000 OA
ATOM     13  H   UNL     1     -10.001  -4.013 122.611  0.00  0.00    +0.000 HD
ENDBRANCH  10  12
ENDBRANCH   3  10
BRANCH   4  14
ATOM     14  O   UNL     1      -8.718  -1.042 122.544  0.00  0.00    +0.000 OA
ATOM     15  H   UNL     1      -8.475  -0.784 121.626  0.00  0.00    +0.000 HD
ENDBRANCH   4  14
TORSDOF 4
ENDMDL
MODEL 8
REMARK VINA RESULT:      -4.6     10.084     10.794
REMARK  Name = Mesalazine
REMARK  4 active torsions:
REMARK  status: ('A' for Active; 'I' for Inactive)
REMARK    1  A    between atoms: N_1  and  C_2
REMARK    2  A    between atoms: C_4  and  C_5
REMARK    3  A    between atoms: C_5  and  O_6
REMARK    4  A    between atoms: C_8  and  O_9
REMARK                            x       y       z     vdW  Elec       q    Type
REMARK                         _______ _______ _______ _____ _____    ______ ____
ROOT
ATOM      1  C   UNL     1      -6.943   3.300 122.050  0.00  0.00    +0.000 A 
ATOM      2  C   UNL     1      -6.949   3.841 120.758  0.00  0.00    +0.000 A 
ATOM      3  C   UNL     1      -5.974   4.765 120.351  0.00  0.00    +0.000 A 
ATOM      4  C   UNL     1      -4.965   5.116 121.265  0.00  0.00    +0.000 A 
ATOM      5  C   UNL     1      -4.955   4.586 122.555  0.00  0.00    +0.000 A 
ATOM      6  C   UNL     1      -5.945   3.684 122.945  0.00  0.00    +0.000 A 
ENDROOT
BRANCH   1   7
ATOM      7  N   UNL     1      -7.925   2.403 122.426  0.00  0.00    +0.000 N 
ATOM      8  H   UNL     1      -8.906   2.611 122.302  0.00  0.00    +0.000 HD
ATOM      9  H   UNL     1      -7.681   1.510 122.836  0.00  0.00    +0.000 HD
ENDBRANCH   1   7
BRANCH   3  10
ATOM     10  C   UNL     1      -5.975   5.399 119.001  0.00  0.00    +0.000 C 
ATOM     11  O   UNL     1      -6.475   4.824 118.042  0.00  0.00    +0.000 OA
BRANCH  10  12
ATOM     12  O   UNL     1      -5.404   6.611 118.870  0.00  0.00    +0.000 OA
ATOM     13  H   UNL     1      -5.327   7.179 119.653  0.00  0.00    +0.000 HD
ENDBRANCH  10  12
ENDBRANCH   3  10
BRANCH   4  14
ATOM     14  O   UNL     1      -3.938   5.975 120.971  0.00  0.00    +0.000 OA
ATOM     15  H   UNL     1      -3.983   6.204 120.015  0.00  0.00    +0.000 HD
ENDBRANCH   4  14
TORSDOF 4
ENDMDL
MODEL 9
REMARK VINA RESULT:      -4.5     10.914     12.234
REMARK  Name = Mesalazine
REMARK  4 active torsions:
REMARK  status: ('A' for Active; 'I' for Inactive)
REMARK    1  A    between atoms: N_1  and  C_2
REMARK    2  A    between atoms: C_4  and  C_5
REMARK    3  A    between atoms: C_5  and  O_6
REMARK    4  A    between atoms: C_8  and  O_9
REMARK                            x       y       z     vdW  Elec       q    Type
REMARK                         _______ _______ _______ _____ _____    ______ ____
ROOT
ATOM      1  C   UNL     1      -5.965  -2.908 123.671  0.00  0.00    +0.000 A 
ATOM      2  C   UNL     1      -6.729  -1.795 123.300  0.00  0.00    +0.000 A 
ATOM      3  C   UNL     1      -8.097  -1.714 123.606  0.00  0.00    +0.000 A 
ATOM      4  C   UNL     1      -8.683  -2.771 124.324  0.00  0.00    +0.000 A 
ATOM      5  C   UNL     1      -7.931  -3.886 124.693  0.00  0.00    +0.000 A 
ATOM      6  C   UNL     1      -6.577  -3.954 124.362  0.00  0.00    +0.000 A 
ENDROOT
BRANCH   1   7
ATOM      7  N   UNL     1      -4.624  -2.965 123.344  0.00  0.00    +0.000 N 
ATOM      8  H   UNL     1      -3.911  -3.056 124.053  0.00  0.00    +0.000 HD
ATOM      9  H   UNL     1      -4.325  -2.917 122.378  0.00  0.00    +0.000 HD
ENDBRANCH   1   7
BRANCH   3  10
ATOM     10  C   UNL     1      -8.953  -0.568 123.185  0.00  0.00    +0.000 C 
ATOM     11  O   UNL     1      -8.592   0.587 123.384  0.00  0.00    +0.000 OA
BRANCH  10  12
ATOM     12  O   UNL     1     -10.131  -0.840 122.592  0.00  0.00    +0.000 OA
ATOM     13  H   UNL     1     -10.141  -1.430 121.822  0.00  0.00    +0.000 HD
ENDBRANCH  10  12
ENDBRANCH   3  10
BRANCH   4  14
ATOM     14  O   UNL     1      -9.997  -2.789 124.715  0.00  0.00    +0.000 OA
ATOM     15  H   UNL     1     -10.563  -2.662 123.920  0.00  0.00    +0.000 HD
ENDBRANCH   4  14
TORSDOF 4
ENDMDL
