MODEL 1
REMARK VINA RESULT:      -8.0      0.000      0.000
REMARK  Name = Mesoridazine
REMARK  6 active torsions:
REMARK  status: ('A' for Active; 'I' for Inactive)
REMARK    1  A    between atoms: C_1  and  N_2
REMARK    2  A    between atoms: C_7  and  C_8
REMARK    3  A    between atoms: C_8  and  C_9
REMARK    4  A    between atoms: C_9  and  N_10
REMARK    5  A    between atoms: C_17  and  S_20
REMARK    6  A    between atoms: S_20  and  C_21
REMARK                            x       y       z     vdW  Elec       q    Type
REMARK                         _______ _______ _______ _____ _____    ______ ____
ROOT
ATOM      1  N   UNL     1      -8.278   5.332 130.576  0.00  0.00    +0.000 N 
ATOM      2  C   UNL     1      -8.392   5.033 131.945  0.00  0.00    +0.000 A 
ATOM      3  C   UNL     1      -9.044   3.871 132.393  0.00  0.00    +0.000 A 
ATOM      4  S   UNL     1      -9.895   2.792 131.252  0.00  0.00    +0.000 S 
ATOM      5  C   UNL     1      -8.939   3.103 129.772  0.00  0.00    +0.000 A 
ATOM      6  C   UNL     1      -8.318   4.346 129.557  0.00  0.00    +0.000 A 
ATOM      7  C   UNL     1      -7.612   4.548 128.352  0.00  0.00    +0.000 A 
ATOM      8  C   UNL     1      -7.450   3.525 127.415  0.00  0.00    +0.000 A 
ATOM      9  C   UNL     1      -8.053   2.288 127.664  0.00  0.00    +0.000 A 
ATOM     10  C   UNL     1      -8.810   2.086 128.823  0.00  0.00    +0.000 A 
ATOM     11  C   UNL     1      -8.999   3.542 133.745  0.00  0.00    +0.000 A 
ATOM     12  C   UNL     1      -8.310   4.349 134.656  0.00  0.00    +0.000 A 
ATOM     13  C   UNL     1      -7.679   5.508 134.222  0.00  0.00    +0.000 A 
ATOM     14  C   UNL     1      -7.725   5.834 132.883  0.00  0.00    +0.000 A 
ENDROOT
BRANCH   8  15
ATOM     15  S   UNL     1      -6.574   3.826 125.856  0.00  0.00    +0.000 S 
ATOM     16  C   UNL     1      -7.906   3.585 124.656  0.00  0.00    +0.000 C 
ATOM     17  O   UNL     1      -6.229   5.286 125.853  0.00  0.00    +0.000 OA
ENDBRANCH   8  15
BRANCH   1  18
ATOM     18  C   UNL     1      -8.821   6.649 130.220  0.00  0.00    +0.000 C 
BRANCH  18  19
ATOM     19  C   UNL     1     -10.265   6.513 129.760  0.00  0.00    +0.000 C 
BRANCH  19  26
ATOM     20  C   UNL     1     -12.984   7.404 131.088  0.00  0.00    +0.000 C 
ATOM     21  N   UNL     1     -12.521   7.700 129.734  0.00  0.00    +0.000 NA
ATOM     22  C   UNL     1     -13.098   6.761 128.767  0.00  0.00    +0.000 C 
ATOM     23  C   UNL     1     -12.815   7.206 127.333  0.00  0.00    +0.000 C 
ATOM     24  C   UNL     1     -11.327   7.429 127.075  0.00  0.00    +0.000 C 
ATOM     25  C   UNL     1     -10.755   8.352 128.152  0.00  0.00    +0.000 C 
ATOM     26  C   UNL     1     -11.061   7.814 129.579  0.00  0.00    +0.000 C 
ENDBRANCH  19  26
ENDBRANCH  18  19
ENDBRANCH   1  18
TORSDOF 4
ENDMDL
MODEL 2
REMARK VINA RESULT:      -7.5      3.159      5.891
REMARK  Name = Mesoridazine
REMARK  6 active torsions:
REMARK  status: ('A' for Active; 'I' for Inactive)
REMARK    1  A    between atoms: C_1  and  N_2
REMARK    2  A    between atoms: C_7  and  C_8
REMARK    3  A    between atoms: C_8  and  C_9
REMARK    4  A    between atoms: C_9  and  N_10
REMARK    5  A    between atoms: C_17  and  S_20
REMARK    6  A    between atoms: S_20  and  C_21
REMARK                            x       y       z     vdW  Elec       q    Type
REMARK                         _______ _______ _______ _____ _____    ______ ____
ROOT
ATOM      1  N   UNL     1      -8.508   5.117 133.827  0.00  0.00    +0.000 N 
ATOM      2  C   UNL     1      -7.383   5.410 134.617  0.00  0.00    +0.000 A 
ATOM      3  C   UNL     1      -6.187   5.885 134.051  0.00  0.00    +0.000 A 
ATOM      4  S   UNL     1      -5.986   5.994 132.279  0.00  0.00    +0.000 S 
ATOM      5  C   UNL     1      -7.691   6.239 131.796  0.00  0.00    +0.000 A 
ATOM      6  C   UNL     1      -8.746   5.708 132.560  0.00  0.00    +0.000 A 
ATOM      7  C   UNL     1     -10.069   5.898 132.107  0.00  0.00    +0.000 A 
ATOM      8  C   UNL     1     -10.356   6.661 130.973  0.00  0.00    +0.000 A 
ATOM      9  C   UNL     1      -9.292   7.202 130.245  0.00  0.00    +0.000 A 
ATOM     10  C   UNL     1      -7.969   6.975 130.641  0.00  0.00    +0.000 A 
ATOM     11  C   UNL     1      -5.156   6.305 134.886  0.00  0.00    +0.000 A 
ATOM     12  C   UNL     1      -5.298   6.263 136.276  0.00  0.00    +0.000 A 
ATOM     13  C   UNL     1      -6.471   5.778 136.842  0.00  0.00    +0.000 A 
ATOM     14  C   UNL     1      -7.492   5.362 136.015  0.00  0.00    +0.000 A 
ENDROOT
BRANCH   8  15
ATOM     15  S   UNL     1     -12.063   6.852 130.391  0.00  0.00    +0.000 S 
ATOM     16  C   UNL     1     -11.956   8.428 129.509  0.00  0.00    +0.000 C 
ATOM     17  O   UNL     1     -12.269   5.778 129.364  0.00  0.00    +0.000 OA
ENDBRANCH   8  15
BRANCH   1  18
ATOM     18  C   UNL     1      -8.998   3.743 133.998  0.00  0.00    +0.000 C 
BRANCH  18  19
ATOM     19  C   UNL     1      -8.220   2.793 133.100  0.00  0.00    +0.000 C 
BRANCH  19  26
ATOM     20  C   UNL     1      -7.312  -0.188 132.614  0.00  0.00    +0.000 C 
ATOM     21  N   UNL     1      -8.196   0.616 131.773  0.00  0.00    +0.000 NA
ATOM     22  C   UNL     1      -7.458   1.208 130.654  0.00  0.00    +0.000 C 
ATOM     23  C   UNL     1      -8.411   1.847 129.644  0.00  0.00    +0.000 C 
ATOM     24  C   UNL     1      -9.352   2.860 130.290  0.00  0.00    +0.000 C 
ATOM     25  C   UNL     1     -10.039   2.219 131.498  0.00  0.00    +0.000 C 
ATOM     26  C   UNL     1      -9.001   1.621 132.489  0.00  0.00    +0.000 C 
ENDBRANCH  19  26
ENDBRANCH  18  19
ENDBRANCH   1  18
TORSDOF 4
ENDMDL
MODEL 3
REMARK VINA RESULT:      -7.2      6.399      9.173
REMARK  Name = Mesoridazine
REMARK  6 active torsions:
REMARK  status: ('A' for Active; 'I' for Inactive)
REMARK    1  A    between atoms: C_1  and  N_2
REMARK    2  A    between atoms: C_7  and  C_8
REMARK    3  A    between atoms: C_8  and  C_9
REMARK    4  A    between atoms: C_9  and  N_10
REMARK    5  A    between atoms: C_17  and  S_20
REMARK    6  A    between atoms: S_20  and  C_21
REMARK                            x       y       z     vdW  Elec       q    Type
REMARK                         _______ _______ _______ _____ _____    ______ ____
ROOT
ATOM      1  N   UNL     1      -5.241  -0.150 125.915  0.00  0.00    +0.000 N 
ATOM      2  C   UNL     1      -5.739  -0.940 124.864  0.00  0.00    +0.000 A 
ATOM      3  C   UNL     1      -6.792  -0.497 124.045  0.00  0.00    +0.000 A 
ATOM      4  S   UNL     1      -7.654   1.028 124.395  0.00  0.00    +0.000 S 
ATOM      5  C   UNL     1      -6.347   1.933 125.215  0.00  0.00    +0.000 A 
ATOM      6  C   UNL     1      -5.349   1.264 125.948  0.00  0.00    +0.000 A 
ATOM      7  C   UNL     1      -4.367   2.032 126.609  0.00  0.00    +0.000 A 
ATOM      8  C   UNL     1      -4.317   3.423 126.487  0.00  0.00    +0.000 A 
ATOM      9  C   UNL     1      -5.304   4.063 125.731  0.00  0.00    +0.000 A 
ATOM     10  C   UNL     1      -6.323   3.326 125.118  0.00  0.00    +0.000 A 
ATOM     11  C   UNL     1      -7.147  -1.246 122.926  0.00  0.00    +0.000 A 
ATOM     12  C   UNL     1      -6.467  -2.425 122.608  0.00  0.00    +0.000 A 
ATOM     13  C   UNL     1      -5.437  -2.877 123.424  0.00  0.00    +0.000 A 
ATOM     14  C   UNL     1      -5.086  -2.136 124.532  0.00  0.00    +0.000 A 
ENDROOT
BRANCH   8  15
ATOM     15  S   UNL     1      -3.070   4.387 127.382  0.00  0.00    +0.000 S 
ATOM     16  C   UNL     1      -3.669   4.236 129.083  0.00  0.00    +0.000 C 
ATOM     17  O   UNL     1      -1.795   3.601 127.287  0.00  0.00    +0.000 OA
ENDBRANCH   8  15
BRANCH   1  18
ATOM     18  C   UNL     1      -5.271  -0.828 127.218  0.00  0.00    +0.000 C 
BRANCH  18  19
ATOM     19  C   UNL     1      -6.335  -1.915 127.218  0.00  0.00    +0.000 C 
BRANCH  19  26
ATOM     20  C   UNL     1      -7.388  -1.496 130.162  0.00  0.00    +0.000 C 
ATOM     21  N   UNL     1      -8.127  -2.041 129.027  0.00  0.00    +0.000 NA
ATOM     22  C   UNL     1      -8.118  -3.507 129.052  0.00  0.00    +0.000 C 
ATOM     23  C   UNL     1      -9.083  -4.081 128.015  0.00  0.00    +0.000 C 
ATOM     24  C   UNL     1      -8.816  -3.545 126.611  0.00  0.00    +0.000 C 
ATOM     25  C   UNL     1      -8.758  -2.016 126.651  0.00  0.00    +0.000 C 
ATOM     26  C   UNL     1      -7.734  -1.515 127.708  0.00  0.00    +0.000 C 
ENDBRANCH  19  26
ENDBRANCH  18  19
ENDBRANCH   1  18
TORSDOF 4
ENDMDL
MODEL 4
REMARK VINA RESULT:      -7.2      5.353      7.707
REMARK  Name = Mesoridazine
REMARK  6 active torsions:
REMARK  status: ('A' for Active; 'I' for Inactive)
REMARK    1  A    between atoms: C_1  and  N_2
REMARK    2  A    between atoms: C_7  and  C_8
REMARK    3  A    between atoms: C_8  and  C_9
REMARK    4  A    between atoms: C_9  and  N_10
REMARK    5  A    between atoms: C_17  and  S_20
REMARK    6  A    between atoms: S_20  and  C_21
REMARK                            x       y       z     vdW  Elec       q    Type
REMARK                         _______ _______ _______ _____ _____    ______ ____
ROOT
ATOM      1  N   UNL     1      -6.296  -1.423 128.120  0.00  0.00    +0.000 N 
ATOM      2  C   UNL     1      -5.757  -2.289 129.088  0.00  0.00    +0.000 A 
ATOM      3  C   UNL     1      -6.506  -3.348 129.628  0.00  0.00    +0.000 A 
ATOM      4  S   UNL     1      -8.234  -3.556 129.225  0.00  0.00    +0.000 S 
ATOM      5  C   UNL     1      -8.255  -2.817 127.596  0.00  0.00    +0.000 A 
ATOM      6  C   UNL     1      -7.359  -1.788 127.254  0.00  0.00    +0.000 A 
ATOM      7  C   UNL     1      -7.450  -1.213 125.968  0.00  0.00    +0.000 A 
ATOM      8  C   UNL     1      -8.347  -1.693 125.011  0.00  0.00    +0.000 A 
ATOM      9  C   UNL     1      -9.209  -2.736 125.365  0.00  0.00    +0.000 A 
ATOM     10  C   UNL     1      -9.178  -3.278 126.654  0.00  0.00    +0.000 A 
ATOM     11  C   UNL     1      -5.882  -4.267 130.467  0.00  0.00    +0.000 A 
ATOM     12  C   UNL     1      -4.522  -4.149 130.772  0.00  0.00    +0.000 A 
ATOM     13  C   UNL     1      -3.781  -3.093 130.256  0.00  0.00    +0.000 A 
ATOM     14  C   UNL     1      -4.400  -2.184 129.425  0.00  0.00    +0.000 A 
ENDROOT
BRANCH   8  15
ATOM     15  S   UNL     1      -8.471  -0.907 123.381  0.00  0.00    +0.000 S 
ATOM     16  C   UNL     1      -7.193  -1.803 122.465  0.00  0.00    +0.000 C 
ATOM     17  O   UNL     1      -9.798  -1.327 122.822  0.00  0.00    +0.000 OA
ENDBRANCH   8  15
BRANCH   1  18
ATOM     18  C   UNL     1      -6.237  -0.007 128.506  0.00  0.00    +0.000 C 
BRANCH  18  19
ATOM     19  C   UNL     1      -7.411   0.338 129.411  0.00  0.00    +0.000 C 
BRANCH  19  26
ATOM     20  C   UNL     1      -6.881  -0.862 132.279  0.00  0.00    +0.000 C 
ATOM     21  N   UNL     1      -7.551   0.395 131.956  0.00  0.00    +0.000 NA
ATOM     22  C   UNL     1      -9.007   0.228 131.963  0.00  0.00    +0.000 C 
ATOM     23  C   UNL     1      -9.716   1.579 131.864  0.00  0.00    +0.000 C 
ATOM     24  C   UNL     1      -9.253   2.393 130.660  0.00  0.00    +0.000 C 
ATOM     25  C   UNL     1      -7.725   2.473 130.654  0.00  0.00    +0.000 C 
ATOM     26  C   UNL     1      -7.084   1.059 130.727  0.00  0.00    +0.000 C 
ENDBRANCH  19  26
ENDBRANCH  18  19
ENDBRANCH   1  18
TORSDOF 4
ENDMDL
MODEL 5
REMARK VINA RESULT:      -7.1      5.359      7.795
REMARK  Name = Mesoridazine
REMARK  6 active torsions:
REMARK  status: ('A' for Active; 'I' for Inactive)
REMARK    1  A    between atoms: C_1  and  N_2
REMARK    2  A    between atoms: C_7  and  C_8
REMARK    3  A    between atoms: C_8  and  C_9
REMARK    4  A    between atoms: C_9  and  N_10
REMARK    5  A    between atoms: C_17  and  S_20
REMARK    6  A    between atoms: S_20  and  C_21
REMARK                            x       y       z     vdW  Elec       q    Type
REMARK                         _______ _______ _______ _____ _____    ______ ____
ROOT
ATOM      1  N   UNL     1      -5.858  -1.950 127.554  0.00  0.00    +0.000 N 
ATOM      2  C   UNL     1      -5.502  -2.640 128.726  0.00  0.00    +0.000 A 
ATOM      3  C   UNL     1      -6.467  -3.265 129.535  0.00  0.00    +0.000 A 
ATOM      4  S   UNL     1      -8.212  -3.086 129.195  0.00  0.00    +0.000 S 
ATOM      5  C   UNL     1      -8.150  -2.834 127.425  0.00  0.00    +0.000 A 
ATOM      6  C   UNL     1      -7.038  -2.224 126.817  0.00  0.00    +0.000 A 
ATOM      7  C   UNL     1      -7.064  -2.013 125.421  0.00  0.00    +0.000 A 
ATOM      8  C   UNL     1      -8.123  -2.464 124.629  0.00  0.00    +0.000 A 
ATOM      9  C   UNL     1      -9.204  -3.092 125.253  0.00  0.00    +0.000 A 
ATOM     10  C   UNL     1      -9.228  -3.256 126.643  0.00  0.00    +0.000 A 
ATOM     11  C   UNL     1      -6.053  -4.061 130.599  0.00  0.00    +0.000 A 
ATOM     12  C   UNL     1      -4.693  -4.248 130.868  0.00  0.00    +0.000 A 
ATOM     13  C   UNL     1      -3.735  -3.617 130.083  0.00  0.00    +0.000 A 
ATOM     14  C   UNL     1      -4.146  -2.829 129.030  0.00  0.00    +0.000 A 
ENDROOT
BRANCH   8  15
ATOM     15  S   UNL     1      -8.148  -2.140 122.845  0.00  0.00    +0.000 S 
ATOM     16  C   UNL     1      -9.303  -0.750 122.760  0.00  0.00    +0.000 C 
ATOM     17  O   UNL     1      -6.786  -1.611 122.504  0.00  0.00    +0.000 OA
ENDBRANCH   8  15
BRANCH   1  18
ATOM     18  C   UNL     1      -5.394  -0.557 127.533  0.00  0.00    +0.000 C 
BRANCH  18  19
ATOM     19  C   UNL     1      -6.399   0.340 128.240  0.00  0.00    +0.000 C 
BRANCH  19  26
ATOM     20  C   UNL     1      -5.102   2.974 127.087  0.00  0.00    +0.000 C 
ATOM     21  N   UNL     1      -6.464   2.803 127.588  0.00  0.00    +0.000 NA
ATOM     22  C   UNL     1      -6.571   3.256 128.978  0.00  0.00    +0.000 C 
ATOM     23  C   UNL     1      -8.031   3.306 129.429  0.00  0.00    +0.000 C 
ATOM     24  C   UNL     1      -8.753   1.979 129.216  0.00  0.00    +0.000 C 
ATOM     25  C   UNL     1      -8.548   1.512 127.774  0.00  0.00    +0.000 C 
ATOM     26  C   UNL     1      -7.038   1.459 127.405  0.00  0.00    +0.000 C 
ENDBRANCH  19  26
ENDBRANCH  18  19
ENDBRANCH   1  18
TORSDOF 4
ENDMDL
MODEL 6
REMARK VINA RESULT:      -7.1      1.312      2.014
REMARK  Name = Mesoridazine
REMARK  6 active torsions:
REMARK  status: ('A' for Active; 'I' for Inactive)
REMARK    1  A    between atoms: C_1  and  N_2
REMARK    2  A    between atoms: C_7  and  C_8
REMARK    3  A    between atoms: C_8  and  C_9
REMARK    4  A    between atoms: C_9  and  N_10
REMARK    5  A    between atoms: C_17  and  S_20
REMARK    6  A    between atoms: S_20  and  C_21
REMARK                            x       y       z     vdW  Elec       q    Type
REMARK                         _______ _______ _______ _____ _____    ______ ____
ROOT
ATOM      1  N   UNL     1      -9.081   4.591 130.742  0.00  0.00    +0.000 N 
ATOM      2  C   UNL     1      -8.754   4.554 132.109  0.00  0.00    +0.000 A 
ATOM      3  C   UNL     1      -8.172   3.417 132.696  0.00  0.00    +0.000 A 
ATOM      4  S   UNL     1      -7.958   1.906 131.768  0.00  0.00    +0.000 S 
ATOM      5  C   UNL     1      -7.803   2.584 130.120  0.00  0.00    +0.000 A 
ATOM      6  C   UNL     1      -8.442   3.786 129.765  0.00  0.00    +0.000 A 
ATOM      7  C   UNL     1      -8.319   4.251 128.438  0.00  0.00    +0.000 A 
ATOM      8  C   UNL     1      -7.518   3.593 127.501  0.00  0.00    +0.000 A 
ATOM      9  C   UNL     1      -6.871   2.415 127.884  0.00  0.00    +0.000 A 
ATOM     10  C   UNL     1      -7.029   1.902 129.176  0.00  0.00    +0.000 A 
ATOM     11  C   UNL     1      -7.728   3.482 134.014  0.00  0.00    +0.000 A 
ATOM     12  C   UNL     1      -7.851   4.662 134.754  0.00  0.00    +0.000 A 
ATOM     13  C   UNL     1      -8.442   5.783 134.185  0.00  0.00    +0.000 A 
ATOM     14  C   UNL     1      -8.882   5.718 132.880  0.00  0.00    +0.000 A 
ENDROOT
BRANCH   8  15
ATOM     15  S   UNL     1      -7.413   4.190 125.792  0.00  0.00    +0.000 S 
ATOM     16  C   UNL     1      -7.184   2.635 124.894  0.00  0.00    +0.000 C 
ATOM     17  O   UNL     1      -8.780   4.705 125.451  0.00  0.00    +0.000 OA
ENDBRANCH   8  15
BRANCH   1  18
ATOM     18  C   UNL     1     -10.492   4.913 130.489  0.00  0.00    +0.000 C 
BRANCH  18  19
ATOM     19  C   UNL     1     -10.604   6.250 129.772  0.00  0.00    +0.000 C 
BRANCH  19  26
ATOM     20  C   UNL     1     -10.825   7.280 126.799  0.00  0.00    +0.000 C 
ATOM     21  N   UNL     1     -11.753   7.540 127.897  0.00  0.00    +0.000 NA
ATOM     22  C   UNL     1     -11.483   8.842 128.513  0.00  0.00    +0.000 C 
ATOM     23  C   UNL     1     -12.590   9.226 129.495  0.00  0.00    +0.000 C 
ATOM     24  C   UNL     1     -12.833   8.149 130.549  0.00  0.00    +0.000 C 
ATOM     25  C   UNL     1     -13.032   6.797 129.861  0.00  0.00    +0.000 C 
ATOM     26  C   UNL     1     -11.851   6.469 128.904  0.00  0.00    +0.000 C 
ENDBRANCH  19  26
ENDBRANCH  18  19
ENDBRANCH   1  18
TORSDOF 4
ENDMDL
MODEL 7
REMARK VINA RESULT:      -7.0      3.014      5.944
REMARK  Name = Mesoridazine
REMARK  6 active torsions:
REMARK  status: ('A' for Active; 'I' for Inactive)
REMARK    1  A    between atoms: C_1  and  N_2
REMARK    2  A    between atoms: C_7  and  C_8
REMARK    3  A    between atoms: C_8  and  C_9
REMARK    4  A    between atoms: C_9  and  N_10
REMARK    5  A    between atoms: C_17  and  S_20
REMARK    6  A    between atoms: S_20  and  C_21
REMARK                            x       y       z     vdW  Elec       q    Type
REMARK                         _______ _______ _______ _____ _____    ______ ____
ROOT
ATOM      1  N   UNL     1      -8.320   3.985 129.655  0.00  0.00    +0.000 N 
ATOM      2  C   UNL     1      -8.383   2.729 130.282  0.00  0.00    +0.000 A 
ATOM      3  C   UNL     1      -8.812   2.590 131.613  0.00  0.00    +0.000 A 
ATOM      4  S   UNL     1      -9.156   4.021 132.626  0.00  0.00    +0.000 S 
ATOM      5  C   UNL     1      -9.638   5.182 131.353  0.00  0.00    +0.000 A 
ATOM      6  C   UNL     1      -9.110   5.094 130.052  0.00  0.00    +0.000 A 
ATOM      7  C   UNL     1      -9.494   6.063 129.101  0.00  0.00    +0.000 A 
ATOM      8  C   UNL     1     -10.439   7.050 129.397  0.00  0.00    +0.000 A 
ATOM      9  C   UNL     1     -10.970   7.100 130.689  0.00  0.00    +0.000 A 
ATOM     10  C   UNL     1     -10.556   6.188 131.665  0.00  0.00    +0.000 A 
ATOM     11  C   UNL     1      -9.002   1.315 132.140  0.00  0.00    +0.000 A 
ATOM     12  C   UNL     1      -8.774   0.177 131.360  0.00  0.00    +0.000 A 
ATOM     13  C   UNL     1      -8.332   0.307 130.049  0.00  0.00    +0.000 A 
ATOM     14  C   UNL     1      -8.144   1.570 129.529  0.00  0.00    +0.000 A 
ENDROOT
BRANCH   8  15
ATOM     15  S   UNL     1     -10.881   8.307 128.167  0.00  0.00    +0.000 S 
ATOM     16  C   UNL     1     -10.875   7.325 126.648  0.00  0.00    +0.000 C 
ATOM     17  O   UNL     1     -12.305   8.679 128.453  0.00  0.00    +0.000 OA
ENDBRANCH   8  15
BRANCH   1  18
ATOM     18  C   UNL     1      -6.992   4.301 129.113  0.00  0.00    +0.000 C 
BRANCH  18  19
ATOM     19  C   UNL     1      -5.996   4.493 130.247  0.00  0.00    +0.000 C 
BRANCH  19  26
ATOM     20  C   UNL     1      -2.992   5.340 129.798  0.00  0.00    +0.000 C 
ATOM     21  N   UNL     1      -3.927   5.885 130.778  0.00  0.00    +0.000 NA
ATOM     22  C   UNL     1      -3.737   5.256 132.088  0.00  0.00    +0.000 C 
ATOM     23  C   UNL     1      -4.539   5.982 133.168  0.00  0.00    +0.000 C 
ATOM     24  C   UNL     1      -6.019   6.100 132.815  0.00  0.00    +0.000 C 
ATOM     25  C   UNL     1      -6.163   6.689 131.411  0.00  0.00    +0.000 C 
ATOM     26  C   UNL     1      -5.343   5.877 130.369  0.00  0.00    +0.000 C 
ENDBRANCH  19  26
ENDBRANCH  18  19
ENDBRANCH   1  18
TORSDOF 4
ENDMDL
MODEL 8
REMARK VINA RESULT:      -6.9      4.495      8.274
REMARK  Name = Mesoridazine
REMARK  6 active torsions:
REMARK  status: ('A' for Active; 'I' for Inactive)
REMARK    1  A    between atoms: C_1  and  N_2
REMARK    2  A    between atoms: C_7  and  C_8
REMARK    3  A    between atoms: C_8  and  C_9
REMARK    4  A    between atoms: C_9  and  N_10
REMARK    5  A    between atoms: C_17  and  S_20
REMARK    6  A    between atoms: S_20  and  C_21
REMARK                            x       y       z     vdW  Elec       q    Type
REMARK                         _______ _______ _______ _____ _____    ______ ____
ROOT
ATOM      1  N   UNL     1      -6.733   1.008 125.922  0.00  0.00    +0.000 N 
ATOM      2  C   UNL     1      -6.453  -0.111 125.119  0.00  0.00    +0.000 A 
ATOM      3  C   UNL     1      -5.948  -1.304 125.666  0.00  0.00    +0.000 A 
ATOM      4  S   UNL     1      -5.493  -1.407 127.391  0.00  0.00    +0.000 S 
ATOM      5  C   UNL     1      -6.608  -0.184 128.071  0.00  0.00    +0.000 A 
ATOM      6  C   UNL     1      -7.030   0.919 127.306  0.00  0.00    +0.000 A 
ATOM      7  C   UNL     1      -7.877   1.874 127.909  0.00  0.00    +0.000 A 
ATOM      8  C   UNL     1      -8.363   1.708 129.208  0.00  0.00    +0.000 A 
ATOM      9  C   UNL     1      -7.952   0.589 129.939  0.00  0.00    +0.000 A 
ATOM     10  C   UNL     1      -7.064  -0.338 129.382  0.00  0.00    +0.000 A 
ATOM     11  C   UNL     1      -5.831  -2.430 124.856  0.00  0.00    +0.000 A 
ATOM     12  C   UNL     1      -6.212  -2.389 123.512  0.00  0.00    +0.000 A 
ATOM     13  C   UNL     1      -6.694  -1.208 122.960  0.00  0.00    +0.000 A 
ATOM     14  C   UNL     1      -6.810  -0.093 123.762  0.00  0.00    +0.000 A 
ENDROOT
BRANCH   8  15
ATOM     15  S   UNL     1      -9.415   2.973 129.971  0.00  0.00    +0.000 S 
ATOM     16  C   UNL     1      -8.527   3.275 131.519  0.00  0.00    +0.000 C 
ATOM     17  O   UNL     1      -9.263   4.201 129.123  0.00  0.00    +0.000 OA
ENDBRANCH   8  15
BRANCH   1  18
ATOM     18  C   UNL     1      -6.035   2.225 125.490  0.00  0.00    +0.000 C 
BRANCH  18  19
ATOM     19  C   UNL     1      -4.681   2.323 126.177  0.00  0.00    +0.000 C 
BRANCH  19  26
ATOM     20  C   UNL     1      -1.616   3.016 126.458  0.00  0.00    +0.000 C 
ATOM     21  N   UNL     1      -2.749   3.803 126.938  0.00  0.00    +0.000 NA
ATOM     22  C   UNL     1      -3.001   3.546 128.359  0.00  0.00    +0.000 C 
ATOM     23  C   UNL     1      -4.021   4.535 128.924  0.00  0.00    +0.000 C 
ATOM     24  C   UNL     1      -5.318   4.557 128.122  0.00  0.00    +0.000 C 
ATOM     25  C   UNL     1      -4.999   4.750 126.639  0.00  0.00    +0.000 C 
ATOM     26  C   UNL     1      -3.980   3.689 126.136  0.00  0.00    +0.000 C 
ENDBRANCH  19  26
ENDBRANCH  18  19
ENDBRANCH   1  18
TORSDOF 4
ENDMDL
MODEL 9
REMARK VINA RESULT:      -6.9      3.967      7.377
REMARK  Name = Mesoridazine
REMARK  6 active torsions:
REMARK  status: ('A' for Active; 'I' for Inactive)
REMARK    1  A    between atoms: C_1  and  N_2
REMARK    2  A    between atoms: C_7  and  C_8
REMARK    3  A    between atoms: C_8  and  C_9
REMARK    4  A    between atoms: C_9  and  N_10
REMARK    5  A    between atoms: C_17  and  S_20
REMARK    6  A    between atoms: S_20  and  C_21
REMARK                            x       y       z     vdW  Elec       q    Type
REMARK                         _______ _______ _______ _____ _____    ______ ____
ROOT
ATOM      1  N   UNL     1      -7.880   0.089 128.167  0.00  0.00    +0.000 N 
ATOM      2  C   UNL     1      -8.005  -1.291 127.931  0.00  0.00    +0.000 A 
ATOM      3  C   UNL     1      -7.963  -2.225 128.981  0.00  0.00    +0.000 A 
ATOM      4  S   UNL     1      -7.595  -1.716 130.654  0.00  0.00    +0.000 S 
ATOM      5  C   UNL     1      -8.211  -0.038 130.601  0.00  0.00    +0.000 A 
ATOM      6  C   UNL     1      -8.205   0.701 129.405  0.00  0.00    +0.000 A 
ATOM      7  C   UNL     1      -8.665   2.035 129.433  0.00  0.00    +0.000 A 
ATOM      8  C   UNL     1      -9.195   2.606 130.593  0.00  0.00    +0.000 A 
ATOM      9  C   UNL     1      -9.216   1.842 131.764  0.00  0.00    +0.000 A 
ATOM     10  C   UNL     1      -8.708   0.539 131.773  0.00  0.00    +0.000 A 
ATOM     11  C   UNL     1      -8.243  -3.563 128.716  0.00  0.00    +0.000 A 
ATOM     12  C   UNL     1      -8.568  -3.984 127.423  0.00  0.00    +0.000 A 
ATOM     13  C   UNL     1      -8.593  -3.068 126.377  0.00  0.00    +0.000 A 
ATOM     14  C   UNL     1      -8.315  -1.744 126.641  0.00  0.00    +0.000 A 
ENDROOT
BRANCH   8  15
ATOM     15  S   UNL     1      -9.738   4.336 130.609  0.00  0.00    +0.000 S 
ATOM     16  C   UNL     1      -8.623   5.062 129.383  0.00  0.00    +0.000 C 
ATOM     17  O   UNL     1     -11.116   4.340 130.018  0.00  0.00    +0.000 OA
ENDBRANCH   8  15
BRANCH   1  18
ATOM     18  C   UNL     1      -6.789   0.714 127.407  0.00  0.00    +0.000 C 
BRANCH  18  19
ATOM     19  C   UNL     1      -7.356   1.552 126.271  0.00  0.00    +0.000 C 
BRANCH  19  26
ATOM     20  C   UNL     1      -5.595   3.788 124.911  0.00  0.00    +0.000 C 
ATOM     21  N   UNL     1      -6.455   2.813 124.246  0.00  0.00    +0.000 NA
ATOM     22  C   UNL     1      -7.760   3.399 123.926  0.00  0.00    +0.000 C 
ATOM     23  C   UNL     1      -8.573   2.471 123.023  0.00  0.00    +0.000 C 
ATOM     24  C   UNL     1      -8.719   1.070 123.609  0.00  0.00    +0.000 C 
ATOM     25  C   UNL     1      -7.341   0.533 123.998  0.00  0.00    +0.000 C 
ATOM     26  C   UNL     1      -6.593   1.520 124.938  0.00  0.00    +0.000 C 
ENDBRANCH  19  26
ENDBRANCH  18  19
ENDBRANCH   1  18
TORSDOF 4
ENDMDL
