MODEL 1
REMARK VINA RESULT:      -8.0      0.000      0.000
REMARK  Name = Mestranol
REMARK  5 active torsions:
REMARK  status: ('A' for Active; 'I' for Inactive)
REMARK    1  A    between atoms: C_5  and  O_6
REMARK    2  A    between atoms: C_5  and  C_7
REMARK    3  A    between atoms: C_9  and  C_10
REMARK    4  A    between atoms: C_22  and  O_23
REMARK    5  A    between atoms: O_23  and  C_24
REMARK                            x       y       z     vdW  Elec       q    Type
REMARK                         _______ _______ _______ _____ _____    ______ ____
ROOT
ATOM      1  C   UNL     1      -7.831  -3.250 124.754  0.00  0.00    +0.000 C 
ATOM      2  C   UNL     1      -9.118  -3.096 124.185  0.00  0.00    +0.000 C 
ATOM      3  C   UNL     1      -8.375  -1.884 124.618  0.00  0.00    +0.000 C 
ATOM      4  C   UNL     1      -6.318  -2.200 124.814  0.00  0.00    +0.000 C 
ATOM      5  C   UNL     1      -7.110  -1.741 123.810  0.00  0.00    +0.000 C 
ATOM      6  C   UNL     1      -6.938  -1.862 122.352  0.00  0.00    +0.000 C 
ATOM      7  C   UNL     1      -7.096  -0.117 124.671  0.00  0.00    +0.000 C 
ATOM      8  C   UNL     1      -6.974  -0.317 126.303  0.00  0.00    +0.000 C 
ATOM      9  C   UNL     1      -7.888  -1.407 127.047  0.00  0.00    +0.000 C 
ATOM     10  C   UNL     1      -7.776  -1.443 128.537  0.00  0.00    +0.000 A 
ATOM     11  C   UNL     1      -8.085  -2.619 129.241  0.00  0.00    +0.000 A 
ATOM     12  C   UNL     1      -8.484  -3.931 128.600  0.00  0.00    +0.000 C 
ATOM     13  C   UNL     1      -8.823  -3.819 127.138  0.00  0.00    +0.000 C 
ATOM     14  C   UNL     1      -7.751  -2.966 126.508  0.00  0.00    +0.000 C 
ATOM     15  C   UNL     1      -7.954  -2.606 130.619  0.00  0.00    +0.000 A 
ATOM     16  C   UNL     1      -7.590  -1.440 131.293  0.00  0.00    +0.000 A 
ATOM     17  C   UNL     1      -7.370  -0.262 130.588  0.00  0.00    +0.000 A 
ATOM     18  C   UNL     1      -7.482  -0.259 129.215  0.00  0.00    +0.000 A 
ENDROOT
BRANCH   4  19
ATOM     19  O   UNL     1      -5.158  -1.403 124.368  0.00  0.00    +0.000 OA
ATOM     20  H   UNL     1      -4.451  -1.810 123.855  0.00  0.00    +0.000 HD
ENDBRANCH   4  19
BRANCH   4  21
ATOM     21  C   UNL     1      -5.581  -3.551 124.351  0.00  0.00    +0.000 C 
ATOM     22  C   UNL     1      -4.934  -4.524 123.985  0.00  0.00    +0.000 C 
ENDBRANCH   4  21
BRANCH  16  23
ATOM     23  O   UNL     1      -7.432  -1.351 132.646  0.00  0.00    +0.000 OA
ATOM     24  C   UNL     1      -7.755  -2.536 133.363  0.00  0.00    +0.000 C 
ENDBRANCH  16  23
TORSDOF 3
ENDMDL
MODEL 2
REMARK VINA RESULT:      -7.3      1.570      2.885
REMARK  Name = Mestranol
REMARK  5 active torsions:
REMARK  status: ('A' for Active; 'I' for Inactive)
REMARK    1  A    between atoms: C_5  and  O_6
REMARK    2  A    between atoms: C_5  and  C_7
REMARK    3  A    between atoms: C_9  and  C_10
REMARK    4  A    between atoms: C_22  and  O_23
REMARK    5  A    between atoms: O_23  and  C_24
REMARK                            x       y       z     vdW  Elec       q    Type
REMARK                         _______ _______ _______ _____ _____    ______ ____
ROOT
ATOM      1  C   UNL     1      -6.419  -1.989 124.497  0.00  0.00    +0.000 C 
ATOM      2  C   UNL     1      -5.888  -3.167 123.919  0.00  0.00    +0.000 C 
ATOM      3  C   UNL     1      -7.222  -3.225 124.570  0.00  0.00    +0.000 C 
ATOM      4  C   UNL     1      -8.125  -1.351 124.778  0.00  0.00    +0.000 C 
ATOM      5  C   UNL     1      -8.190  -2.331 123.839  0.00  0.00    +0.000 C 
ATOM      6  C   UNL     1      -8.416  -2.221 122.387  0.00  0.00    +0.000 C 
ATOM      7  C   UNL     1      -9.369  -3.191 124.956  0.00  0.00    +0.000 C 
ATOM      8  C   UNL     1      -9.029  -2.865 126.536  0.00  0.00    +0.000 C 
ATOM      9  C   UNL     1      -7.513  -2.934 127.059  0.00  0.00    +0.000 C 
ATOM     10  C   UNL     1      -7.320  -2.719 128.525  0.00  0.00    +0.000 A 
ATOM     11  C   UNL     1      -6.090  -2.249 129.015  0.00  0.00    +0.000 A 
ATOM     12  C   UNL     1      -4.905  -1.866 128.154  0.00  0.00    +0.000 C 
ATOM     13  C   UNL     1      -5.025  -2.308 126.720  0.00  0.00    +0.000 C 
ATOM     14  C   UNL     1      -6.424  -1.965 126.275  0.00  0.00    +0.000 C 
ATOM     15  C   UNL     1      -5.965  -2.053 130.379  0.00  0.00    +0.000 A 
ATOM     16  C   UNL     1      -7.007  -2.379 131.249  0.00  0.00    +0.000 A 
ATOM     17  C   UNL     1      -8.187  -2.923 130.755  0.00  0.00    +0.000 A 
ATOM     18  C   UNL     1      -8.336  -3.111 129.398  0.00  0.00    +0.000 A 
ENDROOT
BRANCH   4  19
ATOM     19  O   UNL     1      -9.502  -0.893 124.508  0.00  0.00    +0.000 OA
ATOM     20  H   UNL     1      -9.689  -0.319 123.757  0.00  0.00    +0.000 HD
ENDBRANCH   4  19
BRANCH   4  21
ATOM     21  C   UNL     1      -7.537  -0.007 124.123  0.00  0.00    +0.000 C 
ATOM     22  C   UNL     1      -7.153   1.070 123.685  0.00  0.00    +0.000 C 
ENDBRANCH   4  21
BRANCH  16  23
ATOM     23  O   UNL     1      -6.962  -2.207 132.603  0.00  0.00    +0.000 OA
ATOM     24  C   UNL     1      -7.791  -3.094 133.343  0.00  0.00    +0.000 C 
ENDBRANCH  16  23
TORSDOF 3
ENDMDL
MODEL 3
REMARK VINA RESULT:      -7.3      4.288      8.200
REMARK  Name = Mestranol
REMARK  5 active torsions:
REMARK  status: ('A' for Active; 'I' for Inactive)
REMARK    1  A    between atoms: C_5  and  O_6
REMARK    2  A    between atoms: C_5  and  C_7
REMARK    3  A    between atoms: C_9  and  C_10
REMARK    4  A    between atoms: C_22  and  O_23
REMARK    5  A    between atoms: O_23  and  C_24
REMARK                            x       y       z     vdW  Elec       q    Type
REMARK                         _______ _______ _______ _____ _____    ______ ____
ROOT
ATOM      1  C   UNL     1      -7.291   0.995 125.827  0.00  0.00    +0.000 C 
ATOM      2  C   UNL     1      -8.146   1.668 126.733  0.00  0.00    +0.000 C 
ATOM      3  C   UNL     1      -8.655   1.338 125.376  0.00  0.00    +0.000 C 
ATOM      4  C   UNL     1      -7.565  -0.172 124.427  0.00  0.00    +0.000 C 
ATOM      5  C   UNL     1      -8.690  -0.158 125.190  0.00  0.00    +0.000 C 
ATOM      6  C   UNL     1      -9.208  -1.182 126.113  0.00  0.00    +0.000 C 
ATOM      7  C   UNL     1      -9.596   0.350 123.674  0.00  0.00    +0.000 C 
ATOM      8  C   UNL     1      -8.631   1.249 122.684  0.00  0.00    +0.000 C 
ATOM      9  C   UNL     1      -7.734   2.430 123.297  0.00  0.00    +0.000 C 
ATOM     10  C   UNL     1      -6.971   3.249 122.307  0.00  0.00    +0.000 A 
ATOM     11  C   UNL     1      -5.805   3.928 122.699  0.00  0.00    +0.000 A 
ATOM     12  C   UNL     1      -5.187   3.858 124.079  0.00  0.00    +0.000 C 
ATOM     13  C   UNL     1      -6.081   3.235 125.118  0.00  0.00    +0.000 C 
ATOM     14  C   UNL     1      -6.676   1.999 124.494  0.00  0.00    +0.000 C 
ATOM     15  C   UNL     1      -5.127   4.662 121.742  0.00  0.00    +0.000 A 
ATOM     16  C   UNL     1      -5.624   4.781 120.444  0.00  0.00    +0.000 A 
ATOM     17  C   UNL     1      -6.824   4.172 120.094  0.00  0.00    +0.000 A 
ATOM     18  C   UNL     1      -7.506   3.424 121.029  0.00  0.00    +0.000 A 
ENDROOT
BRANCH   4  19
ATOM     19  O   UNL     1      -7.998  -1.367 123.675  0.00  0.00    +0.000 OA
ATOM     20  H   UNL     1      -8.430  -1.276 122.818  0.00  0.00    +0.000 HD
ENDBRANCH   4  19
BRANCH   4  21
ATOM     21  C   UNL     1      -6.423  -1.035 125.159  0.00  0.00    +0.000 C 
ATOM     22  C   UNL     1      -5.542  -1.744 125.629  0.00  0.00    +0.000 C 
ENDBRANCH   4  21
BRANCH  16  23
ATOM     23  O   UNL     1      -5.009   5.480 119.445  0.00  0.00    +0.000 OA
ATOM     24  C   UNL     1      -5.860   5.858 118.371  0.00  0.00    +0.000 C 
ENDBRANCH  16  23
TORSDOF 3
ENDMDL
MODEL 4
REMARK VINA RESULT:      -7.3     10.085     11.372
REMARK  Name = Mestranol
REMARK  5 active torsions:
REMARK  status: ('A' for Active; 'I' for Inactive)
REMARK    1  A    between atoms: C_5  and  O_6
REMARK    2  A    between atoms: C_5  and  C_7
REMARK    3  A    between atoms: C_9  and  C_10
REMARK    4  A    between atoms: C_22  and  O_23
REMARK    5  A    between atoms: O_23  and  C_24
REMARK                            x       y       z     vdW  Elec       q    Type
REMARK                         _______ _______ _______ _____ _____    ______ ____
ROOT
ATOM      1  C   UNL     1      -2.909   5.712 133.498  0.00  0.00    +0.000 C 
ATOM      2  C   UNL     1      -2.368   4.489 133.032  0.00  0.00    +0.000 C 
ATOM      3  C   UNL     1      -2.884   5.469 132.042  0.00  0.00    +0.000 C 
ATOM      4  C   UNL     1      -3.032   7.412 132.799  0.00  0.00    +0.000 C 
ATOM      5  C   UNL     1      -2.076   6.740 132.106  0.00  0.00    +0.000 C 
ATOM      6  C   UNL     1      -0.611   6.890 132.147  0.00  0.00    +0.000 C 
ATOM      7  C   UNL     1      -3.059   7.093 130.594  0.00  0.00    +0.000 C 
ATOM      8  C   UNL     1      -4.669   7.161 130.942  0.00  0.00    +0.000 C 
ATOM      9  C   UNL     1      -5.337   6.034 131.869  0.00  0.00    +0.000 C 
ATOM     10  C   UNL     1      -6.818   6.128 132.044  0.00  0.00    +0.000 A 
ATOM     11  C   UNL     1      -7.433   5.574 133.179  0.00  0.00    +0.000 A 
ATOM     12  C   UNL     1      -6.698   4.910 134.324  0.00  0.00    +0.000 C 
ATOM     13  C   UNL     1      -5.252   4.610 134.029  0.00  0.00    +0.000 C 
ATOM     14  C   UNL     1      -4.678   5.841 133.375  0.00  0.00    +0.000 C 
ATOM     15  C   UNL     1      -8.806   5.699 133.302  0.00  0.00    +0.000 A 
ATOM     16  C   UNL     1      -9.564   6.297 132.295  0.00  0.00    +0.000 A 
ATOM     17  C   UNL     1      -8.950   6.765 131.139  0.00  0.00    +0.000 A 
ATOM     18  C   UNL     1      -7.582   6.663 131.005  0.00  0.00    +0.000 A 
ENDROOT
BRANCH   4  19
ATOM     19  O   UNL     1      -2.635   8.717 132.232  0.00  0.00    +0.000 OA
ATOM     20  H   UNL     1      -2.127   9.345 132.757  0.00  0.00    +0.000 HD
ENDBRANCH   4  19
BRANCH   4  21
ATOM     21  C   UNL     1      -2.457   7.850 134.235  0.00  0.00    +0.000 C 
ATOM     22  C   UNL     1      -2.022   8.280 135.295  0.00  0.00    +0.000 C 
ENDBRANCH   4  21
BRANCH  16  23
ATOM     23  O   UNL     1     -10.919   6.464 132.347  0.00  0.00    +0.000 OA
ATOM     24  C   UNL     1     -11.598   6.207 131.125  0.00  0.00    +0.000 C 
ENDBRANCH  16  23
TORSDOF 3
ENDMDL
MODEL 5
REMARK VINA RESULT:      -7.3      3.059      4.776
REMARK  Name = Mestranol
REMARK  5 active torsions:
REMARK  status: ('A' for Active; 'I' for Inactive)
REMARK    1  A    between atoms: C_5  and  O_6
REMARK    2  A    between atoms: C_5  and  C_7
REMARK    3  A    between atoms: C_9  and  C_10
REMARK    4  A    between atoms: C_22  and  O_23
REMARK    5  A    between atoms: O_23  and  C_24
REMARK                            x       y       z     vdW  Elec       q    Type
REMARK                         _______ _______ _______ _____ _____    ______ ____
ROOT
ATOM      1  C   UNL     1      -7.470  -2.245 125.630  0.00  0.00    +0.000 C 
ATOM      2  C   UNL     1      -8.706  -2.340 126.314  0.00  0.00    +0.000 C 
ATOM      3  C   UNL     1      -8.571  -1.355 125.209  0.00  0.00    +0.000 C 
ATOM      4  C   UNL     1      -6.981  -1.773 123.917  0.00  0.00    +0.000 C 
ATOM      5  C   UNL     1      -8.307  -2.073 123.910  0.00  0.00    +0.000 C 
ATOM      6  C   UNL     1      -8.996  -3.254 123.362  0.00  0.00    +0.000 C 
ATOM      7  C   UNL     1      -8.589  -0.378 123.259  0.00  0.00    +0.000 C 
ATOM      8  C   UNL     1      -7.451   0.669 123.829  0.00  0.00    +0.000 C 
ATOM      9  C   UNL     1      -7.061   0.658 125.386  0.00  0.00    +0.000 C 
ATOM     10  C   UNL     1      -6.094   1.710 125.823  0.00  0.00    +0.000 A 
ATOM     11  C   UNL     1      -5.299   1.510 126.964  0.00  0.00    +0.000 A 
ATOM     12  C   UNL     1      -5.286   0.247 127.798  0.00  0.00    +0.000 C 
ATOM     13  C   UNL     1      -6.421  -0.695 127.497  0.00  0.00    +0.000 C 
ATOM     14  C   UNL     1      -6.524  -0.784 125.996  0.00  0.00    +0.000 C 
ATOM     15  C   UNL     1      -4.408   2.508 127.320  0.00  0.00    +0.000 A 
ATOM     16  C   UNL     1      -4.351   3.705 126.606  0.00  0.00    +0.000 A 
ATOM     17  C   UNL     1      -5.205   3.922 125.530  0.00  0.00    +0.000 A 
ATOM     18  C   UNL     1      -6.088   2.935 125.152  0.00  0.00    +0.000 A 
ENDROOT
BRANCH   4  19
ATOM     19  O   UNL     1      -6.893  -1.778 122.443  0.00  0.00    +0.000 OA
ATOM     20  H   UNL     1      -7.631  -2.093 121.909  0.00  0.00    +0.000 HD
ENDBRANCH   4  19
BRANCH   4  21
ATOM     21  C   UNL     1      -6.118  -3.127 123.983  0.00  0.00    +0.000 C 
ATOM     22  C   UNL     1      -5.387  -4.110 123.980  0.00  0.00    +0.000 C 
ENDBRANCH   4  21
BRANCH  16  23
ATOM     23  O   UNL     1      -3.496   4.731 126.891  0.00  0.00    +0.000 OA
ATOM     24  C   UNL     1      -2.406   4.382 127.734  0.00  0.00    +0.000 C 
ENDBRANCH  16  23
TORSDOF 3
ENDMDL
MODEL 6
REMARK VINA RESULT:      -7.1      1.262      1.506
REMARK  Name = Mestranol
REMARK  5 active torsions:
REMARK  status: ('A' for Active; 'I' for Inactive)
REMARK    1  A    between atoms: C_5  and  O_6
REMARK    2  A    between atoms: C_5  and  C_7
REMARK    3  A    between atoms: C_9  and  C_10
REMARK    4  A    between atoms: C_22  and  O_23
REMARK    5  A    between atoms: O_23  and  C_24
REMARK                            x       y       z     vdW  Elec       q    Type
REMARK                         _______ _______ _______ _____ _____    ______ ____
ROOT
ATOM      1  C   UNL     1      -8.202  -3.019 125.545  0.00  0.00    +0.000 C 
ATOM      2  C   UNL     1      -9.592  -3.243 125.393  0.00  0.00    +0.000 C 
ATOM      3  C   UNL     1      -9.088  -1.845 125.420  0.00  0.00    +0.000 C 
ATOM      4  C   UNL     1      -7.047  -1.692 124.998  0.00  0.00    +0.000 C 
ATOM      5  C   UNL     1      -8.174  -1.606 124.245  0.00  0.00    +0.000 C 
ATOM      6  C   UNL     1      -8.386  -1.969 122.833  0.00  0.00    +0.000 C 
ATOM      7  C   UNL     1      -8.333   0.122 124.852  0.00  0.00    +0.000 C 
ATOM      8  C   UNL     1      -7.719   0.270 126.375  0.00  0.00    +0.000 C 
ATOM      9  C   UNL     1      -8.087  -0.819 127.495  0.00  0.00    +0.000 C 
ATOM     10  C   UNL     1      -7.563  -0.544 128.867  0.00  0.00    +0.000 A 
ATOM     11  C   UNL     1      -7.359  -1.599 129.772  0.00  0.00    +0.000 A 
ATOM     12  C   UNL     1      -7.575  -3.064 129.455  0.00  0.00    +0.000 C 
ATOM     13  C   UNL     1      -8.321  -3.307 128.170  0.00  0.00    +0.000 C 
ATOM     14  C   UNL     1      -7.715  -2.392 127.137  0.00  0.00    +0.000 C 
ATOM     15  C   UNL     1      -6.860  -1.294 131.026  0.00  0.00    +0.000 A 
ATOM     16  C   UNL     1      -6.631   0.029 131.404  0.00  0.00    +0.000 A 
ATOM     17  C   UNL     1      -6.918   1.069 130.526  0.00  0.00    +0.000 A 
ATOM     18  C   UNL     1      -7.401   0.784 129.268  0.00  0.00    +0.000 A 
ENDROOT
BRANCH   4  19
ATOM     19  O   UNL     1      -6.295  -0.776 124.117  0.00  0.00    +0.000 OA
ATOM     20  H   UNL     1      -5.778  -0.053 124.488  0.00  0.00    +0.000 HD
ENDBRANCH   4  19
BRANCH   4  21
ATOM     21  C   UNL     1      -6.150  -2.928 124.497  0.00  0.00    +0.000 C 
ATOM     22  C   UNL     1      -5.450  -3.817 124.028  0.00  0.00    +0.000 C 
ENDBRANCH   4  21
BRANCH  16  23
ATOM     23  O   UNL     1      -6.133   0.408 132.618  0.00  0.00    +0.000 OA
ATOM     24  C   UNL     1      -6.902   1.394 133.295  0.00  0.00    +0.000 C 
ENDBRANCH  16  23
TORSDOF 3
ENDMDL
MODEL 7
REMARK VINA RESULT:      -7.1      2.242      6.436
REMARK  Name = Mestranol
REMARK  5 active torsions:
REMARK  status: ('A' for Active; 'I' for Inactive)
REMARK    1  A    between atoms: C_5  and  O_6
REMARK    2  A    between atoms: C_5  and  C_7
REMARK    3  A    between atoms: C_9  and  C_10
REMARK    4  A    between atoms: C_22  and  O_23
REMARK    5  A    between atoms: O_23  and  C_24
REMARK                            x       y       z     vdW  Elec       q    Type
REMARK                         _______ _______ _______ _____ _____    ______ ____
ROOT
ATOM      1  C   UNL     1      -6.348  -3.803 130.877  0.00  0.00    +0.000 C 
ATOM      2  C   UNL     1      -5.589  -4.979 130.663  0.00  0.00    +0.000 C 
ATOM      3  C   UNL     1      -5.061  -3.681 130.166  0.00  0.00    +0.000 C 
ATOM      4  C   UNL     1      -5.927  -2.023 131.097  0.00  0.00    +0.000 C 
ATOM      5  C   UNL     1      -4.804  -2.753 131.325  0.00  0.00    +0.000 C 
ATOM      6  C   UNL     1      -4.120  -3.046 132.597  0.00  0.00    +0.000 C 
ATOM      7  C   UNL     1      -4.013  -1.776 129.984  0.00  0.00    +0.000 C 
ATOM      8  C   UNL     1      -5.120  -1.334 128.846  0.00  0.00    +0.000 C 
ATOM      9  C   UNL     1      -6.173  -2.411 128.292  0.00  0.00    +0.000 C 
ATOM     10  C   UNL     1      -7.069  -1.939 127.192  0.00  0.00    +0.000 A 
ATOM     11  C   UNL     1      -8.316  -2.551 126.985  0.00  0.00    +0.000 A 
ATOM     12  C   UNL     1      -8.892  -3.655 127.846  0.00  0.00    +0.000 C 
ATOM     13  C   UNL     1      -7.895  -4.278 128.787  0.00  0.00    +0.000 C 
ATOM     14  C   UNL     1      -7.132  -3.144 129.424  0.00  0.00    +0.000 C 
ATOM     15  C   UNL     1      -9.115  -2.070 125.962  0.00  0.00    +0.000 A 
ATOM     16  C   UNL     1      -8.666  -1.053 125.120  0.00  0.00    +0.000 A 
ATOM     17  C   UNL     1      -7.394  -0.516 125.285  0.00  0.00    +0.000 A 
ATOM     18  C   UNL     1      -6.589  -0.972 126.307  0.00  0.00    +0.000 A 
ENDROOT
BRANCH   4  19
ATOM     19  O   UNL     1      -5.333  -0.791 131.653  0.00  0.00    +0.000 OA
ATOM     20  H   UNL     1      -5.438  -0.574 132.586  0.00  0.00    +0.000 HD
ENDBRANCH   4  19
BRANCH   4  21
ATOM     21  C   UNL     1      -6.913  -2.131 132.362  0.00  0.00    +0.000 C 
ATOM     22  C   UNL     1      -7.653  -2.112 133.337  0.00  0.00    +0.000 C 
ENDBRANCH   4  21
BRANCH  16  23
ATOM     23  O   UNL     1      -9.397  -0.522 124.096  0.00  0.00    +0.000 OA
ATOM     24  C   UNL     1      -9.280  -1.212 122.859  0.00  0.00    +0.000 C 
ENDBRANCH  16  23
TORSDOF 3
ENDMDL
MODEL 8
REMARK VINA RESULT:      -7.1      7.167     10.683
REMARK  Name = Mestranol
REMARK  5 active torsions:
REMARK  status: ('A' for Active; 'I' for Inactive)
REMARK    1  A    between atoms: C_5  and  O_6
REMARK    2  A    between atoms: C_5  and  C_7
REMARK    3  A    between atoms: C_9  and  C_10
REMARK    4  A    between atoms: C_22  and  O_23
REMARK    5  A    between atoms: O_23  and  C_24
REMARK                            x       y       z     vdW  Elec       q    Type
REMARK                         _______ _______ _______ _____ _____    ______ ____
ROOT
ATOM      1  C   UNL     1      -6.156   4.958 132.634  0.00  0.00    +0.000 C 
ATOM      2  C   UNL     1      -5.592   5.818 133.607  0.00  0.00    +0.000 C 
ATOM      3  C   UNL     1      -6.916   5.200 133.876  0.00  0.00    +0.000 C 
ATOM      4  C   UNL     1      -7.297   3.513 132.702  0.00  0.00    +0.000 C 
ATOM      5  C   UNL     1      -6.780   3.700 133.944  0.00  0.00    +0.000 C 
ATOM      6  C   UNL     1      -5.772   2.906 134.668  0.00  0.00    +0.000 C 
ATOM      7  C   UNL     1      -8.512   3.866 134.536  0.00  0.00    +0.000 C 
ATOM      8  C   UNL     1      -9.473   4.521 133.367  0.00  0.00    +0.000 C 
ATOM      9  C   UNL     1      -8.972   5.804 132.544  0.00  0.00    +0.000 C 
ATOM     10  C   UNL     1      -9.954   6.382 131.577  0.00  0.00    +0.000 A 
ATOM     11  C   UNL     1      -9.506   7.125 130.472  0.00  0.00    +0.000 A 
ATOM     12  C   UNL     1      -8.052   7.358 130.119  0.00  0.00    +0.000 C 
ATOM     13  C   UNL     1      -7.090   6.982 131.214  0.00  0.00    +0.000 C 
ATOM     14  C   UNL     1      -7.534   5.641 131.741  0.00  0.00    +0.000 C 
ATOM     15  C   UNL     1     -10.454   7.628 129.599  0.00  0.00    +0.000 A 
ATOM     16  C   UNL     1     -11.816   7.461 129.845  0.00  0.00    +0.000 A 
ATOM     17  C   UNL     1     -12.246   6.796 130.989  0.00  0.00    +0.000 A 
ATOM     18  C   UNL     1     -11.317   6.275 131.863  0.00  0.00    +0.000 A 
ENDROOT
BRANCH   4  19
ATOM     19  O   UNL     1      -7.843   2.184 133.045  0.00  0.00    +0.000 OA
ATOM     20  H   UNL     1      -7.716   1.815 133.926  0.00  0.00    +0.000 HD
ENDBRANCH   4  19
BRANCH   4  21
ATOM     21  C   UNL     1      -6.197   2.827 131.752  0.00  0.00    +0.000 C 
ATOM     22  C   UNL     1      -5.435   2.252 130.985  0.00  0.00    +0.000 C 
ENDBRANCH   4  21
BRANCH  16  23
ATOM     23  O   UNL     1     -12.809   7.920 129.028  0.00  0.00    +0.000 OA
ATOM     24  C   UNL     1     -13.002   9.329 129.059  0.00  0.00    +0.000 C 
ENDBRANCH  16  23
TORSDOF 3
ENDMDL
MODEL 9
REMARK VINA RESULT:      -6.8      9.278     11.547
REMARK  Name = Mestranol
REMARK  5 active torsions:
REMARK  status: ('A' for Active; 'I' for Inactive)
REMARK    1  A    between atoms: C_5  and  O_6
REMARK    2  A    between atoms: C_5  and  C_7
REMARK    3  A    between atoms: C_9  and  C_10
REMARK    4  A    between atoms: C_22  and  O_23
REMARK    5  A    between atoms: O_23  and  C_24
REMARK                            x       y       z     vdW  Elec       q    Type
REMARK                         _______ _______ _______ _____ _____    ______ ____
ROOT
ATOM      1  C   UNL     1      -3.317   4.347 130.628  0.00  0.00    +0.000 C 
ATOM      2  C   UNL     1      -3.994   3.544 131.577  0.00  0.00    +0.000 C 
ATOM      3  C   UNL     1      -4.501   4.913 131.304  0.00  0.00    +0.000 C 
ATOM      4  C   UNL     1      -3.834   5.696 129.484  0.00  0.00    +0.000 C 
ATOM      5  C   UNL     1      -4.948   5.019 129.868  0.00  0.00    +0.000 C 
ATOM      6  C   UNL     1      -5.784   4.081 129.100  0.00  0.00    +0.000 C 
ATOM      7  C   UNL     1      -5.590   6.623 130.495  0.00  0.00    +0.000 C 
ATOM      8  C   UNL     1      -4.358   7.588 131.014  0.00  0.00    +0.000 C 
ATOM      9  C   UNL     1      -3.197   6.978 131.939  0.00  0.00    +0.000 C 
ATOM     10  C   UNL     1      -2.182   7.954 132.438  0.00  0.00    +0.000 A 
ATOM     11  C   UNL     1      -0.894   7.516 132.791  0.00  0.00    +0.000 A 
ATOM     12  C   UNL     1      -0.396   6.093 132.653  0.00  0.00    +0.000 C 
ATOM     13  C   UNL     1      -1.485   5.089 132.383  0.00  0.00    +0.000 C 
ATOM     14  C   UNL     1      -2.371   5.685 131.319  0.00  0.00    +0.000 C 
ATOM     15  C   UNL     1       0.015   8.460 133.235  0.00  0.00    +0.000 A 
ATOM     16  C   UNL     1      -0.356   9.795 133.391  0.00  0.00    +0.000 A 
ATOM     17  C   UNL     1      -1.659  10.197 133.118  0.00  0.00    +0.000 A 
ATOM     18  C   UNL     1      -2.575   9.274 132.661  0.00  0.00    +0.000 A 
ENDROOT
BRANCH   4  19
ATOM     19  O   UNL     1      -4.547   6.411 128.406  0.00  0.00    +0.000 OA
ATOM     20  H   UNL     1      -4.068   6.743 127.639  0.00  0.00    +0.000 HD
ENDBRANCH   4  19
BRANCH   4  21
ATOM     21  C   UNL     1      -3.025   4.837 128.393  0.00  0.00    +0.000 C 
ATOM     22  C   UNL     1      -2.321   4.219 127.604  0.00  0.00    +0.000 C 
ENDBRANCH   4  21
BRANCH  16  23
ATOM     23  O   UNL     1       0.484  10.784 133.815  0.00  0.00    +0.000 OA
ATOM     24  C   UNL     1       1.496  11.146 132.884  0.00  0.00    +0.000 C 
ENDBRANCH  16  23
TORSDOF 3
ENDMDL
