MODEL 1
REMARK VINA RESULT:      -5.5      0.000      0.000
REMARK  Name = Metamfetamine
REMARK  5 active torsions:
REMARK  status: ('A' for Active; 'I' for Inactive)
REMARK    1  A    between atoms: C_1  and  N_2
REMARK    2  A    between atoms: N_2  and  C_3
REMARK    3  A    between atoms: C_3  and  C_4
REMARK    4  A    between atoms: C_3  and  C_5
REMARK    5  A    between atoms: C_5  and  C_6
REMARK                            x       y       z     vdW  Elec       q    Type
REMARK                         _______ _______ _______ _____ _____    ______ ____
ROOT
ATOM      1  C   UNL     1     -11.507   8.411 128.688  0.00  0.00    +0.000 C 
ENDROOT
BRANCH   1   2
ATOM      2  C   UNL     1     -10.974   7.584 129.841  0.00  0.00    +0.000 A 
ATOM      3  C   UNL     1      -9.592   7.372 129.975  0.00  0.00    +0.000 A 
ATOM      4  C   UNL     1      -9.082   6.674 131.068  0.00  0.00    +0.000 A 
ATOM      5  C   UNL     1      -9.944   6.186 132.040  0.00  0.00    +0.000 A 
ATOM      6  C   UNL     1     -11.322   6.378 131.915  0.00  0.00    +0.000 A 
ATOM      7  C   UNL     1     -11.837   7.070 130.815  0.00  0.00    +0.000 A 
ENDBRANCH   1   2
BRANCH   1   8
ATOM      8  C   UNL     1     -13.036   8.640 128.800  0.00  0.00    +0.000 C 
ATOM      9  C   UNL     1     -13.768   7.795 127.747  0.00  0.00    +0.000 C 
BRANCH   8  11
ATOM     10  C   UNL     1     -13.389  10.731 129.980  0.00  0.00    +0.000 C 
ATOM     11  N   UNL     1     -13.356  10.076 128.675  0.00  0.00    +0.000 NA
ATOM     12  H   UNL     1     -12.631  10.525 128.111  0.00  0.00    +0.000 HD
ENDBRANCH   8  11
ENDBRANCH   1   8
TORSDOF 3
ENDMDL
MODEL 2
REMARK VINA RESULT:      -5.4      2.362      4.858
REMARK  Name = Metamfetamine
REMARK  5 active torsions:
REMARK  status: ('A' for Active; 'I' for Inactive)
REMARK    1  A    between atoms: C_1  and  N_2
REMARK    2  A    between atoms: N_2  and  C_3
REMARK    3  A    between atoms: C_3  and  C_4
REMARK    4  A    between atoms: C_3  and  C_5
REMARK    5  A    between atoms: C_5  and  C_6
REMARK                            x       y       z     vdW  Elec       q    Type
REMARK                         _______ _______ _______ _____ _____    ______ ____
ROOT
ATOM      1  C   UNL     1     -12.286   6.703 131.470  0.00  0.00    +0.000 C 
ENDROOT
BRANCH   1   2
ATOM      2  C   UNL     1     -12.682   7.437 130.204  0.00  0.00    +0.000 A 
ATOM      3  C   UNL     1     -13.174   6.719 129.101  0.00  0.00    +0.000 A 
ATOM      4  C   UNL     1     -13.608   7.385 127.957  0.00  0.00    +0.000 A 
ATOM      5  C   UNL     1     -13.563   8.771 127.904  0.00  0.00    +0.000 A 
ATOM      6  C   UNL     1     -13.066   9.498 128.987  0.00  0.00    +0.000 A 
ATOM      7  C   UNL     1     -12.620   8.832 130.133  0.00  0.00    +0.000 A 
ENDBRANCH   1   2
BRANCH   1   8
ATOM      8  C   UNL     1     -10.786   6.310 131.464  0.00  0.00    +0.000 C 
ATOM      9  C   UNL     1     -10.611   4.929 130.814  0.00  0.00    +0.000 C 
BRANCH   8  11
ATOM     10  C   UNL     1      -8.834   5.934 132.857  0.00  0.00    +0.000 C 
ATOM     11  N   UNL     1     -10.234   6.349 132.833  0.00  0.00    +0.000 NA
ATOM     12  H   UNL     1     -10.290   7.308 133.180  0.00  0.00    +0.000 HD
ENDBRANCH   8  11
ENDBRANCH   1   8
TORSDOF 3
ENDMDL
MODEL 3
REMARK VINA RESULT:      -5.4      2.376      4.830
REMARK  Name = Metamfetamine
REMARK  5 active torsions:
REMARK  status: ('A' for Active; 'I' for Inactive)
REMARK    1  A    between atoms: C_1  and  N_2
REMARK    2  A    between atoms: N_2  and  C_3
REMARK    3  A    between atoms: C_3  and  C_4
REMARK    4  A    between atoms: C_3  and  C_5
REMARK    5  A    between atoms: C_5  and  C_6
REMARK                            x       y       z     vdW  Elec       q    Type
REMARK                         _______ _______ _______ _____ _____    ______ ____
ROOT
ATOM      1  C   UNL     1     -12.244   6.597 131.570  0.00  0.00    +0.000 C 
ENDROOT
BRANCH   1   2
ATOM      2  C   UNL     1     -12.717   7.416 130.385  0.00  0.00    +0.000 A 
ATOM      3  C   UNL     1     -12.688   8.819 130.444  0.00  0.00    +0.000 A 
ATOM      4  C   UNL     1     -13.053   9.584 129.338  0.00  0.00    +0.000 A 
ATOM      5  C   UNL     1     -13.443   8.959 128.162  0.00  0.00    +0.000 A 
ATOM      6  C   UNL     1     -13.488   7.565 128.092  0.00  0.00    +0.000 A 
ATOM      7  C   UNL     1     -13.132   6.795 129.203  0.00  0.00    +0.000 A 
ENDBRANCH   1   2
BRANCH   1   8
ATOM      8  C   UNL     1     -10.710   6.373 131.541  0.00  0.00    +0.000 C 
ATOM      9  C   UNL     1     -10.389   5.063 130.806  0.00  0.00    +0.000 C 
BRANCH   8  11
ATOM     10  C   UNL     1      -8.814   5.817 132.950  0.00  0.00    +0.000 C 
ATOM     11  N   UNL     1     -10.159   6.387 132.910  0.00  0.00    +0.000 NA
ATOM     12  H   UNL     1     -10.106   7.355 133.231  0.00  0.00    +0.000 HD
ENDBRANCH   8  11
ENDBRANCH   1   8
TORSDOF 3
ENDMDL
MODEL 4
REMARK VINA RESULT:      -5.3      9.750     11.164
REMARK  Name = Metamfetamine
REMARK  5 active torsions:
REMARK  status: ('A' for Active; 'I' for Inactive)
REMARK    1  A    between atoms: C_1  and  N_2
REMARK    2  A    between atoms: N_2  and  C_3
REMARK    3  A    between atoms: C_3  and  C_4
REMARK    4  A    between atoms: C_3  and  C_5
REMARK    5  A    between atoms: C_5  and  C_6
REMARK                            x       y       z     vdW  Elec       q    Type
REMARK                         _______ _______ _______ _____ _____    ______ ____
ROOT
ATOM      1  C   UNL     1      -6.641   2.966 122.437  0.00  0.00    +0.000 C 
ENDROOT
BRANCH   1   2
ATOM      2  C   UNL     1      -6.405   3.780 121.180  0.00  0.00    +0.000 A 
ATOM      3  C   UNL     1      -7.400   3.850 120.191  0.00  0.00    +0.000 A 
ATOM      4  C   UNL     1      -7.227   4.650 119.064  0.00  0.00    +0.000 A 
ATOM      5  C   UNL     1      -6.064   5.393 118.915  0.00  0.00    +0.000 A 
ATOM      6  C   UNL     1      -5.060   5.325 119.884  0.00  0.00    +0.000 A 
ATOM      7  C   UNL     1      -5.227   4.515 121.011  0.00  0.00    +0.000 A 
ENDBRANCH   1   2
BRANCH   1   8
ATOM      8  C   UNL     1      -6.677   3.858 123.704  0.00  0.00    +0.000 C 
ATOM      9  C   UNL     1      -5.770   3.258 124.790  0.00  0.00    +0.000 C 
BRANCH   8  11
ATOM     10  C   UNL     1      -8.729   2.744 124.364  0.00  0.00    +0.000 C 
ATOM     11  N   UNL     1      -8.064   4.031 124.177  0.00  0.00    +0.000 NA
ATOM     12  H   UNL     1      -8.045   4.515 125.077  0.00  0.00    +0.000 HD
ENDBRANCH   8  11
ENDBRANCH   1   8
TORSDOF 3
ENDMDL
MODEL 5
REMARK VINA RESULT:      -5.2      0.914      2.042
REMARK  Name = Metamfetamine
REMARK  5 active torsions:
REMARK  status: ('A' for Active; 'I' for Inactive)
REMARK    1  A    between atoms: C_1  and  N_2
REMARK    2  A    between atoms: N_2  and  C_3
REMARK    3  A    between atoms: C_3  and  C_4
REMARK    4  A    between atoms: C_3  and  C_5
REMARK    5  A    between atoms: C_5  and  C_6
REMARK                            x       y       z     vdW  Elec       q    Type
REMARK                         _______ _______ _______ _____ _____    ______ ____
ROOT
ATOM      1  C   UNL     1     -12.820   7.547 130.233  0.00  0.00    +0.000 C 
ENDROOT
BRANCH   1   2
ATOM      2  C   UNL     1     -11.462   7.079 130.717  0.00  0.00    +0.000 A 
ATOM      3  C   UNL     1     -10.308   7.385 129.976  0.00  0.00    +0.000 A 
ATOM      4  C   UNL     1      -9.047   7.023 130.444  0.00  0.00    +0.000 A 
ATOM      5  C   UNL     1      -8.923   6.360 131.656  0.00  0.00    +0.000 A 
ATOM      6  C   UNL     1     -10.061   6.038 132.398  0.00  0.00    +0.000 A 
ATOM      7  C   UNL     1     -11.329   6.391 131.927  0.00  0.00    +0.000 A 
ENDBRANCH   1   2
BRANCH   1   8
ATOM      8  C   UNL     1     -12.699   8.664 129.165  0.00  0.00    +0.000 C 
ATOM      9  C   UNL     1     -13.124  10.011 129.768  0.00  0.00    +0.000 C 
BRANCH   8  11
ATOM     10  C   UNL     1     -13.044   7.064 127.373  0.00  0.00    +0.000 C 
ATOM     11  N   UNL     1     -13.490   8.323 127.966  0.00  0.00    +0.000 NA
ATOM     12  H   UNL     1     -14.469   8.219 128.238  0.00  0.00    +0.000 HD
ENDBRANCH   8  11
ENDBRANCH   1   8
TORSDOF 3
ENDMDL
MODEL 6
REMARK VINA RESULT:      -4.9      2.569      5.104
REMARK  Name = Metamfetamine
REMARK  5 active torsions:
REMARK  status: ('A' for Active; 'I' for Inactive)
REMARK    1  A    between atoms: C_1  and  N_2
REMARK    2  A    between atoms: N_2  and  C_3
REMARK    3  A    between atoms: C_3  and  C_4
REMARK    4  A    between atoms: C_3  and  C_5
REMARK    5  A    between atoms: C_5  and  C_6
REMARK                            x       y       z     vdW  Elec       q    Type
REMARK                         _______ _______ _______ _____ _____    ______ ____
ROOT
ATOM      1  C   UNL     1     -10.938   5.586 130.799  0.00  0.00    +0.000 C 
ENDROOT
BRANCH   1   2
ATOM      2  C   UNL     1     -11.474   6.767 130.014  0.00  0.00    +0.000 A 
ATOM      3  C   UNL     1     -12.424   7.624 130.595  0.00  0.00    +0.000 A 
ATOM      4  C   UNL     1     -12.873   8.752 129.914  0.00  0.00    +0.000 A 
ATOM      5  C   UNL     1     -12.375   9.042 128.651  0.00  0.00    +0.000 A 
ATOM      6  C   UNL     1     -11.439   8.194 128.055  0.00  0.00    +0.000 A 
ATOM      7  C   UNL     1     -10.994   7.055 128.733  0.00  0.00    +0.000 A 
ENDBRANCH   1   2
BRANCH   1   8
ATOM      8  C   UNL     1     -10.146   6.038 132.053  0.00  0.00    +0.000 C 
ATOM      9  C   UNL     1      -8.718   6.436 131.652  0.00  0.00    +0.000 C 
BRANCH   8  11
ATOM     10  C   UNL     1      -9.236   3.896 132.742  0.00  0.00    +0.000 C 
ATOM     11  N   UNL     1     -10.156   4.979 133.081  0.00  0.00    +0.000 NA
ATOM     12  H   UNL     1      -9.860   5.384 133.971  0.00  0.00    +0.000 HD
ENDBRANCH   8  11
ENDBRANCH   1   8
TORSDOF 3
ENDMDL
MODEL 7
REMARK VINA RESULT:      -4.7     11.214     12.211
REMARK  Name = Metamfetamine
REMARK  5 active torsions:
REMARK  status: ('A' for Active; 'I' for Inactive)
REMARK    1  A    between atoms: C_1  and  N_2
REMARK    2  A    between atoms: N_2  and  C_3
REMARK    3  A    between atoms: C_3  and  C_4
REMARK    4  A    between atoms: C_3  and  C_5
REMARK    5  A    between atoms: C_5  and  C_6
REMARK                            x       y       z     vdW  Elec       q    Type
REMARK                         _______ _______ _______ _____ _____    ______ ____
ROOT
ATOM      1  C   UNL     1      -8.973  -3.519 125.620  0.00  0.00    +0.000 C 
ENDROOT
BRANCH   1   2
ATOM      2  C   UNL     1      -8.565  -2.960 126.969  0.00  0.00    +0.000 A 
ATOM      3  C   UNL     1      -8.702  -3.745 128.126  0.00  0.00    +0.000 A 
ATOM      4  C   UNL     1      -8.267  -3.272 129.361  0.00  0.00    +0.000 A 
ATOM      5  C   UNL     1      -7.686  -2.015 129.455  0.00  0.00    +0.000 A 
ATOM      6  C   UNL     1      -7.553  -1.218 128.316  0.00  0.00    +0.000 A 
ATOM      7  C   UNL     1      -7.998  -1.686 127.077  0.00  0.00    +0.000 A 
ENDBRANCH   1   2
BRANCH   1   8
ATOM      8  C   UNL     1      -8.157  -2.887 124.463  0.00  0.00    +0.000 C 
ATOM      9  C   UNL     1      -9.017  -2.827 123.191  0.00  0.00    +0.000 C 
BRANCH   8  11
ATOM     10  C   UNL     1      -5.808  -2.739 123.871  0.00  0.00    +0.000 C 
ATOM     11  N   UNL     1      -6.902  -3.632 124.246  0.00  0.00    +0.000 NA
ATOM     12  H   UNL     1      -6.646  -4.102 125.116  0.00  0.00    +0.000 HD
ENDBRANCH   8  11
ENDBRANCH   1   8
TORSDOF 3
ENDMDL
MODEL 8
REMARK VINA RESULT:      -4.6     11.950     12.666
REMARK  Name = Metamfetamine
REMARK  5 active torsions:
REMARK  status: ('A' for Active; 'I' for Inactive)
REMARK    1  A    between atoms: C_1  and  N_2
REMARK    2  A    between atoms: N_2  and  C_3
REMARK    3  A    between atoms: C_3  and  C_4
REMARK    4  A    between atoms: C_3  and  C_5
REMARK    5  A    between atoms: C_5  and  C_6
REMARK                            x       y       z     vdW  Elec       q    Type
REMARK                         _______ _______ _______ _____ _____    ______ ____
ROOT
ATOM      1  C   UNL     1      -6.104  -2.007 125.315  0.00  0.00    +0.000 C 
ENDROOT
BRANCH   1   2
ATOM      2  C   UNL     1      -6.997  -2.506 126.434  0.00  0.00    +0.000 A 
ATOM      3  C   UNL     1      -8.216  -3.137 126.133  0.00  0.00    +0.000 A 
ATOM      4  C   UNL     1      -9.012  -3.663 127.147  0.00  0.00    +0.000 A 
ATOM      5  C   UNL     1      -8.600  -3.573 128.469  0.00  0.00    +0.000 A 
ATOM      6  C   UNL     1      -7.397  -2.939 128.785  0.00  0.00    +0.000 A 
ATOM      7  C   UNL     1      -6.600  -2.401 127.771  0.00  0.00    +0.000 A 
ENDBRANCH   1   2
BRANCH   1   8
ATOM      8  C   UNL     1      -6.174  -2.926 124.068  0.00  0.00    +0.000 C 
ATOM      9  C   UNL     1      -4.896  -3.774 123.973  0.00  0.00    +0.000 C 
BRANCH   8  11
ATOM     10  C   UNL     1      -7.598  -1.302 122.962  0.00  0.00    +0.000 C 
ATOM     11  N   UNL     1      -6.398  -2.127 122.848  0.00  0.00    +0.000 NA
ATOM     12  H   UNL     1      -5.596  -1.508 122.710  0.00  0.00    +0.000 HD
ENDBRANCH   8  11
ENDBRANCH   1   8
TORSDOF 3
ENDMDL
MODEL 9
REMARK VINA RESULT:      -4.6     10.880     11.703
REMARK  Name = Metamfetamine
REMARK  5 active torsions:
REMARK  status: ('A' for Active; 'I' for Inactive)
REMARK    1  A    between atoms: C_1  and  N_2
REMARK    2  A    between atoms: N_2  and  C_3
REMARK    3  A    between atoms: C_3  and  C_4
REMARK    4  A    between atoms: C_3  and  C_5
REMARK    5  A    between atoms: C_5  and  C_6
REMARK                            x       y       z     vdW  Elec       q    Type
REMARK                         _______ _______ _______ _____ _____    ______ ____
ROOT
ATOM      1  C   UNL     1      -7.620  -2.665 124.943  0.00  0.00    +0.000 C 
ENDROOT
BRANCH   1   2
ATOM      2  C   UNL     1      -7.840  -2.819 126.435  0.00  0.00    +0.000 A 
ATOM      3  C   UNL     1      -8.843  -3.679 126.912  0.00  0.00    +0.000 A 
ATOM      4  C   UNL     1      -9.011  -3.885 128.279  0.00  0.00    +0.000 A 
ATOM      5  C   UNL     1      -8.177  -3.242 129.183  0.00  0.00    +0.000 A 
ATOM      6  C   UNL     1      -7.184  -2.375 128.725  0.00  0.00    +0.000 A 
ATOM      7  C   UNL     1      -7.019  -2.158 127.354  0.00  0.00    +0.000 A 
ENDBRANCH   1   2
BRANCH   1   8
ATOM      8  C   UNL     1      -8.881  -2.116 124.226  0.00  0.00    +0.000 C 
ATOM      9  C   UNL     1      -9.490  -3.207 123.333  0.00  0.00    +0.000 C 
BRANCH   8  11
ATOM     10  C   UNL     1      -8.435   0.267 124.338  0.00  0.00    +0.000 C 
ATOM     11  N   UNL     1      -8.553  -0.896 123.462  0.00  0.00    +0.000 NA
ATOM     12  H   UNL     1      -7.656  -1.035 122.993  0.00  0.00    +0.000 HD
ENDBRANCH   8  11
ENDBRANCH   1   8
TORSDOF 3
ENDMDL
