MODEL 1
REMARK VINA RESULT:      -6.8      0.000      0.000
REMARK  Name = Metaxalone
REMARK  5 active torsions:
REMARK  status: ('A' for Active; 'I' for Inactive)
REMARK    1  A    between atoms: C_1  and  C_2
REMARK    2  A    between atoms: C_4  and  O_5
REMARK    3  A    between atoms: O_5  and  C_6
REMARK    4  A    between atoms: C_6  and  C_7
REMARK    5  A    between atoms: C_14  and  C_15
REMARK                            x       y       z     vdW  Elec       q    Type
REMARK                         _______ _______ _______ _____ _____    ______ ____
ROOT
ATOM      1  O   UNL     1     -12.316   6.183 131.399  0.00  0.00    +0.000 OA
ENDROOT
BRANCH   1   5
ATOM      2  C   UNL     1     -12.607   7.035 126.600  0.00  0.00    +0.000 C 
ATOM      3  C   UNL     1     -12.670   7.534 128.008  0.00  0.00    +0.000 A 
ATOM      4  C   UNL     1     -12.424   6.635 129.043  0.00  0.00    +0.000 A 
ATOM      5  C   UNL     1     -12.491   7.039 130.363  0.00  0.00    +0.000 A 
ATOM      6  C   UNL     1     -12.776   8.377 130.668  0.00  0.00    +0.000 A 
ATOM      7  C   UNL     1     -13.028   9.302 129.643  0.00  0.00    +0.000 A 
ATOM      8  C   UNL     1     -13.362  10.733 129.959  0.00  0.00    +0.000 C 
ATOM      9  C   UNL     1     -12.982   8.865 128.311  0.00  0.00    +0.000 A 
ENDBRANCH   1   5
BRANCH   1  10
ATOM     10  C   UNL     1     -11.167   6.356 132.307  0.00  0.00    +0.000 C 
BRANCH  10  11
ATOM     11  C   UNL     1      -9.970   5.993 131.420  0.00  0.00    +0.000 C 
ATOM     12  C   UNL     1      -9.178   4.765 131.028  0.00  0.00    +0.000 C 
ATOM     13  N   UNL     1      -7.845   5.263 130.931  0.00  0.00    +0.000 N 
ATOM     14  C   UNL     1      -7.845   6.624 130.941  0.00  0.00    +0.000 C 
ATOM     15  O   UNL     1      -6.853   7.329 130.745  0.00  0.00    +0.000 OA
ATOM     16  O   UNL     1      -9.095   7.105 131.192  0.00  0.00    +0.000 OA
ATOM     17  H   UNL     1      -7.044   4.762 130.562  0.00  0.00    +0.000 HD
ENDBRANCH  10  11
ENDBRANCH   1  10
TORSDOF 3
ENDMDL
MODEL 2
REMARK VINA RESULT:      -6.8      1.435      1.750
REMARK  Name = Metaxalone
REMARK  5 active torsions:
REMARK  status: ('A' for Active; 'I' for Inactive)
REMARK    1  A    between atoms: C_1  and  C_2
REMARK    2  A    between atoms: C_4  and  O_5
REMARK    3  A    between atoms: O_5  and  C_6
REMARK    4  A    between atoms: C_6  and  C_7
REMARK    5  A    between atoms: C_14  and  C_15
REMARK                            x       y       z     vdW  Elec       q    Type
REMARK                         _______ _______ _______ _____ _____    ______ ____
ROOT
ATOM      1  O   UNL     1     -12.333   6.260 131.465  0.00  0.00    +0.000 OA
ENDROOT
BRANCH   1   5
ATOM      2  C   UNL     1     -12.639   7.034 126.654  0.00  0.00    +0.000 C 
ATOM      3  C   UNL     1     -12.697   7.555 128.054  0.00  0.00    +0.000 A 
ATOM      4  C   UNL     1     -12.448   6.673 129.102  0.00  0.00    +0.000 A 
ATOM      5  C   UNL     1     -12.510   7.099 130.416  0.00  0.00    +0.000 A 
ATOM      6  C   UNL     1     -12.791   8.442 130.700  0.00  0.00    +0.000 A 
ATOM      7  C   UNL     1     -13.045   9.351 129.661  0.00  0.00    +0.000 A 
ATOM      8  C   UNL     1     -13.376  10.788 129.955  0.00  0.00    +0.000 C 
ATOM      9  C   UNL     1     -13.005   8.892 128.336  0.00  0.00    +0.000 A 
ENDBRANCH   1   5
BRANCH   1  10
ATOM     10  C   UNL     1     -11.168   6.432 132.353  0.00  0.00    +0.000 C 
BRANCH  10  11
ATOM     11  C   UNL     1     -10.011   5.874 131.517  0.00  0.00    +0.000 C 
ATOM     12  C   UNL     1      -8.919   6.386 130.603  0.00  0.00    +0.000 C 
ATOM     13  N   UNL     1      -8.832   5.368 129.609  0.00  0.00    +0.000 N 
ATOM     14  C   UNL     1      -9.516   4.259 130.004  0.00  0.00    +0.000 C 
ATOM     15  O   UNL     1      -9.511   3.181 129.407  0.00  0.00    +0.000 OA
ATOM     16  O   UNL     1     -10.203   4.500 131.154  0.00  0.00    +0.000 OA
ATOM     17  H   UNL     1      -8.119   5.291 128.891  0.00  0.00    +0.000 HD
ENDBRANCH  10  11
ENDBRANCH   1  10
TORSDOF 3
ENDMDL
MODEL 3
REMARK VINA RESULT:      -6.8      1.439      2.781
REMARK  Name = Metaxalone
REMARK  5 active torsions:
REMARK  status: ('A' for Active; 'I' for Inactive)
REMARK    1  A    between atoms: C_1  and  C_2
REMARK    2  A    between atoms: C_4  and  O_5
REMARK    3  A    between atoms: O_5  and  C_6
REMARK    4  A    between atoms: C_6  and  C_7
REMARK    5  A    between atoms: C_14  and  C_15
REMARK                            x       y       z     vdW  Elec       q    Type
REMARK                         _______ _______ _______ _____ _____    ______ ____
ROOT
ATOM      1  O   UNL     1     -12.336   6.218 131.423  0.00  0.00    +0.000 OA
ENDROOT
BRANCH   1   5
ATOM      2  C   UNL     1     -13.332  10.759 129.933  0.00  0.00    +0.000 C 
ATOM      3  C   UNL     1     -13.048   9.326 129.614  0.00  0.00    +0.000 A 
ATOM      4  C   UNL     1     -12.865   8.435 130.667  0.00  0.00    +0.000 A 
ATOM      5  C   UNL     1     -12.579   7.104 130.427  0.00  0.00    +0.000 A 
ATOM      6  C   UNL     1     -12.505   6.635 129.109  0.00  0.00    +0.000 A 
ATOM      7  C   UNL     1     -12.686   7.514 128.029  0.00  0.00    +0.000 A 
ATOM      8  C   UNL     1     -12.582   7.027 126.611  0.00  0.00    +0.000 C 
ATOM      9  C   UNL     1     -12.948   8.866 128.295  0.00  0.00    +0.000 A 
ENDBRANCH   1   5
BRANCH   1  10
ATOM     10  C   UNL     1     -11.175   6.414 132.311  0.00  0.00    +0.000 C 
BRANCH  10  11
ATOM     11  C   UNL     1     -10.010   5.860 131.482  0.00  0.00    +0.000 C 
ATOM     12  C   UNL     1      -8.919   6.376 130.570  0.00  0.00    +0.000 C 
ATOM     13  N   UNL     1      -8.820   5.353 129.582  0.00  0.00    +0.000 N 
ATOM     14  C   UNL     1      -9.496   4.241 129.981  0.00  0.00    +0.000 C 
ATOM     15  O   UNL     1      -9.480   3.159 129.390  0.00  0.00    +0.000 OA
ATOM     16  O   UNL     1     -10.189   4.483 131.127  0.00  0.00    +0.000 OA
ATOM     17  H   UNL     1      -8.103   5.278 128.867  0.00  0.00    +0.000 HD
ENDBRANCH  10  11
ENDBRANCH   1  10
TORSDOF 3
ENDMDL
MODEL 4
REMARK VINA RESULT:      -6.7      9.537     10.928
REMARK  Name = Metaxalone
REMARK  5 active torsions:
REMARK  status: ('A' for Active; 'I' for Inactive)
REMARK    1  A    between atoms: C_1  and  C_2
REMARK    2  A    between atoms: C_4  and  O_5
REMARK    3  A    between atoms: O_5  and  C_6
REMARK    4  A    between atoms: C_6  and  C_7
REMARK    5  A    between atoms: C_14  and  C_15
REMARK                            x       y       z     vdW  Elec       q    Type
REMARK                         _______ _______ _______ _____ _____    ______ ____
ROOT
ATOM      1  O   UNL     1      -8.457   2.502 123.401  0.00  0.00    +0.000 OA
ENDROOT
BRANCH   1   5
ATOM      2  C   UNL     1      -4.626   4.114 120.838  0.00  0.00    +0.000 C 
ATOM      3  C   UNL     1      -6.100   3.890 120.959  0.00  0.00    +0.000 A 
ATOM      4  C   UNL     1      -6.593   3.339 122.139  0.00  0.00    +0.000 A 
ATOM      5  C   UNL     1      -7.944   3.091 122.293  0.00  0.00    +0.000 A 
ATOM      6  C   UNL     1      -8.836   3.428 121.266  0.00  0.00    +0.000 A 
ATOM      7  C   UNL     1      -8.363   3.985 120.067  0.00  0.00    +0.000 A 
ATOM      8  C   UNL     1      -9.307   4.325 118.949  0.00  0.00    +0.000 C 
ATOM      9  C   UNL     1      -6.985   4.203 119.920  0.00  0.00    +0.000 A 
ENDBRANCH   1   5
BRANCH   1  10
ATOM     10  C   UNL     1      -9.556   1.528 123.271  0.00  0.00    +0.000 C 
BRANCH  10  11
ATOM     11  C   UNL     1      -8.862   0.187 123.535  0.00  0.00    +0.000 C 
ATOM     12  C   UNL     1      -7.521  -0.466 123.285  0.00  0.00    +0.000 C 
ATOM     13  N   UNL     1      -7.872  -1.821 123.011  0.00  0.00    +0.000 N 
ATOM     14  C   UNL     1      -9.171  -2.052 123.348  0.00  0.00    +0.000 C 
ATOM     15  O   UNL     1      -9.713  -3.159 123.341  0.00  0.00    +0.000 OA
ATOM     16  O   UNL     1      -9.791  -0.892 123.703  0.00  0.00    +0.000 OA
ATOM     17  H   UNL     1      -7.229  -2.600 122.921  0.00  0.00    +0.000 HD
ENDBRANCH  10  11
ENDBRANCH   1  10
TORSDOF 3
ENDMDL
MODEL 5
REMARK VINA RESULT:      -6.7      9.358     10.831
REMARK  Name = Metaxalone
REMARK  5 active torsions:
REMARK  status: ('A' for Active; 'I' for Inactive)
REMARK    1  A    between atoms: C_1  and  C_2
REMARK    2  A    between atoms: C_4  and  O_5
REMARK    3  A    between atoms: O_5  and  C_6
REMARK    4  A    between atoms: C_6  and  C_7
REMARK    5  A    between atoms: C_14  and  C_15
REMARK                            x       y       z     vdW  Elec       q    Type
REMARK                         _______ _______ _______ _____ _____    ______ ____
ROOT
ATOM      1  O   UNL     1      -8.445   2.594 123.476  0.00  0.00    +0.000 OA
ENDROOT
BRANCH   1   5
ATOM      2  C   UNL     1      -9.301   4.327 118.992  0.00  0.00    +0.000 C 
ATOM      3  C   UNL     1      -8.339   3.983 120.084  0.00  0.00    +0.000 A 
ATOM      4  C   UNL     1      -8.837   3.412 121.253  0.00  0.00    +0.000 A 
ATOM      5  C   UNL     1      -7.994   3.095 122.300  0.00  0.00    +0.000 A 
ATOM      6  C   UNL     1      -6.616   3.316 122.176  0.00  0.00    +0.000 A 
ATOM      7  C   UNL     1      -6.089   3.889 121.008  0.00  0.00    +0.000 A 
ATOM      8  C   UNL     1      -4.616   4.156 120.875  0.00  0.00    +0.000 C 
ATOM      9  C   UNL     1      -6.966   4.229 119.968  0.00  0.00    +0.000 A 
ENDBRANCH   1   5
BRANCH   1  10
ATOM     10  C   UNL     1      -9.560   1.628 123.481  0.00  0.00    +0.000 C 
BRANCH  10  11
ATOM     11  C   UNL     1      -8.849   0.282 123.673  0.00  0.00    +0.000 C 
ATOM     12  C   UNL     1      -7.514  -0.353 123.352  0.00  0.00    +0.000 C 
ATOM     13  N   UNL     1      -7.868  -1.700 123.045  0.00  0.00    +0.000 N 
ATOM     14  C   UNL     1      -9.152  -1.950 123.422  0.00  0.00    +0.000 C 
ATOM     15  O   UNL     1      -9.688  -3.060 123.396  0.00  0.00    +0.000 OA
ATOM     16  O   UNL     1      -9.765  -0.808 123.838  0.00  0.00    +0.000 OA
ATOM     17  H   UNL     1      -7.224  -2.471 122.905  0.00  0.00    +0.000 HD
ENDBRANCH  10  11
ENDBRANCH   1  10
TORSDOF 3
ENDMDL
MODEL 6
REMARK VINA RESULT:      -6.3      3.092      6.517
REMARK  Name = Metaxalone
REMARK  5 active torsions:
REMARK  status: ('A' for Active; 'I' for Inactive)
REMARK    1  A    between atoms: C_1  and  C_2
REMARK    2  A    between atoms: C_4  and  O_5
REMARK    3  A    between atoms: O_5  and  C_6
REMARK    4  A    between atoms: C_6  and  C_7
REMARK    5  A    between atoms: C_14  and  C_15
REMARK                            x       y       z     vdW  Elec       q    Type
REMARK                         _______ _______ _______ _____ _____    ______ ____
ROOT
ATOM      1  O   UNL     1      -8.604   7.213 130.297  0.00  0.00    +0.000 OA
ENDROOT
BRANCH   1   5
ATOM      2  C   UNL     1      -7.841   4.847 134.499  0.00  0.00    +0.000 C 
ATOM      3  C   UNL     1      -7.305   5.585 133.315  0.00  0.00    +0.000 A 
ATOM      4  C   UNL     1      -8.207   6.089 132.381  0.00  0.00    +0.000 A 
ATOM      5  C   UNL     1      -7.762   6.760 131.258  0.00  0.00    +0.000 A 
ATOM      6  C   UNL     1      -6.390   6.968 131.069  0.00  0.00    +0.000 A 
ATOM      7  C   UNL     1      -5.460   6.471 131.996  0.00  0.00    +0.000 A 
ATOM      8  C   UNL     1      -3.984   6.664 131.789  0.00  0.00    +0.000 C 
ATOM      9  C   UNL     1      -5.931   5.769 133.115  0.00  0.00    +0.000 A 
ENDBRANCH   1   5
BRANCH   1  10
ATOM     10  C   UNL     1     -10.033   6.855 130.346  0.00  0.00    +0.000 C 
BRANCH  10  11
ATOM     11  C   UNL     1     -10.658   7.783 129.298  0.00  0.00    +0.000 C 
ATOM     12  C   UNL     1     -11.957   8.524 129.067  0.00  0.00    +0.000 C 
ATOM     13  N   UNL     1     -12.131   8.429 127.655  0.00  0.00    +0.000 N 
ATOM     14  C   UNL     1     -10.985   7.991 127.064  0.00  0.00    +0.000 C 
ATOM     15  O   UNL     1     -10.800   7.933 125.847  0.00  0.00    +0.000 OA
ATOM     16  O   UNL     1     -10.066   7.630 128.002  0.00  0.00    +0.000 OA
ATOM     17  H   UNL     1     -12.827   8.919 127.103  0.00  0.00    +0.000 HD
ENDBRANCH  10  11
ENDBRANCH   1  10
TORSDOF 3
ENDMDL
MODEL 7
REMARK VINA RESULT:      -6.2      8.822     10.942
REMARK  Name = Metaxalone
REMARK  5 active torsions:
REMARK  status: ('A' for Active; 'I' for Inactive)
REMARK    1  A    between atoms: C_1  and  C_2
REMARK    2  A    between atoms: C_4  and  O_5
REMARK    3  A    between atoms: O_5  and  C_6
REMARK    4  A    between atoms: C_6  and  C_7
REMARK    5  A    between atoms: C_14  and  C_15
REMARK                            x       y       z     vdW  Elec       q    Type
REMARK                         _______ _______ _______ _____ _____    ______ ____
ROOT
ATOM      1  O   UNL     1      -6.470   0.360 124.976  0.00  0.00    +0.000 OA
ENDROOT
BRANCH   1   5
ATOM      2  C   UNL     1      -4.486  -3.988 123.977  0.00  0.00    +0.000 C 
ATOM      3  C   UNL     1      -5.695  -3.120 124.117  0.00  0.00    +0.000 A 
ATOM      4  C   UNL     1      -5.515  -1.777 124.441  0.00  0.00    +0.000 A 
ATOM      5  C   UNL     1      -6.600  -0.937 124.603  0.00  0.00    +0.000 A 
ATOM      6  C   UNL     1      -7.897  -1.428 124.406  0.00  0.00    +0.000 A 
ATOM      7  C   UNL     1      -8.105  -2.777 124.078  0.00  0.00    +0.000 A 
ATOM      8  C   UNL     1      -9.494  -3.322 123.892  0.00  0.00    +0.000 C 
ATOM      9  C   UNL     1      -6.992  -3.620 123.946  0.00  0.00    +0.000 A 
ENDBRANCH   1   5
BRANCH   1  10
ATOM     10  C   UNL     1      -7.567   1.027 125.701  0.00  0.00    +0.000 C 
BRANCH  10  11
ATOM     11  C   UNL     1      -7.581   2.433 125.087  0.00  0.00    +0.000 C 
ATOM     12  C   UNL     1      -6.637   3.363 124.359  0.00  0.00    +0.000 C 
ATOM     13  N   UNL     1      -7.006   4.646 124.860  0.00  0.00    +0.000 N 
ATOM     14  C   UNL     1      -8.186   4.571 125.534  0.00  0.00    +0.000 C 
ATOM     15  O   UNL     1      -8.812   5.542 125.966  0.00  0.00    +0.000 OA
ATOM     16  O   UNL     1      -8.587   3.276 125.662  0.00  0.00    +0.000 OA
ATOM     17  H   UNL     1      -6.682   5.542 124.509  0.00  0.00    +0.000 HD
ENDBRANCH  10  11
ENDBRANCH   1  10
TORSDOF 3
ENDMDL
MODEL 8
REMARK VINA RESULT:      -6.2      2.654      5.964
REMARK  Name = Metaxalone
REMARK  5 active torsions:
REMARK  status: ('A' for Active; 'I' for Inactive)
REMARK    1  A    between atoms: C_1  and  C_2
REMARK    2  A    between atoms: C_4  and  O_5
REMARK    3  A    between atoms: O_5  and  C_6
REMARK    4  A    between atoms: C_6  and  C_7
REMARK    5  A    between atoms: C_14  and  C_15
REMARK                            x       y       z     vdW  Elec       q    Type
REMARK                         _______ _______ _______ _____ _____    ______ ____
ROOT
ATOM      1  O   UNL     1     -10.410   6.849 131.326  0.00  0.00    +0.000 OA
ENDROOT
BRANCH   1   5
ATOM      2  C   UNL     1      -5.546   6.914 130.911  0.00  0.00    +0.000 C 
ATOM      3  C   UNL     1      -6.775   6.491 131.650  0.00  0.00    +0.000 A 
ATOM      4  C   UNL     1      -8.018   6.832 131.121  0.00  0.00    +0.000 A 
ATOM      5  C   UNL     1      -9.185   6.485 131.776  0.00  0.00    +0.000 A 
ATOM      6  C   UNL     1      -9.123   5.751 132.967  0.00  0.00    +0.000 A 
ATOM      7  C   UNL     1      -7.882   5.394 133.520  0.00  0.00    +0.000 A 
ATOM      8  C   UNL     1      -7.804   4.630 134.811  0.00  0.00    +0.000 C 
ATOM      9  C   UNL     1      -6.710   5.780 132.854  0.00  0.00    +0.000 A 
ENDBRANCH   1   5
BRANCH   1  10
ATOM     10  C   UNL     1     -11.135   5.976 130.384  0.00  0.00    +0.000 C 
BRANCH  10  11
ATOM     11  C   UNL     1     -11.417   6.906 129.198  0.00  0.00    +0.000 C 
ATOM     12  C   UNL     1     -10.648   7.639 128.122  0.00  0.00    +0.000 C 
ATOM     13  N   UNL     1     -11.374   8.858 127.985  0.00  0.00    +0.000 N 
ATOM     14  C   UNL     1     -12.573   8.771 128.626  0.00  0.00    +0.000 C 
ATOM     15  O   UNL     1     -13.462   9.622 128.572  0.00  0.00    +0.000 OA
ATOM     16  O   UNL     1     -12.659   7.609 129.331  0.00  0.00    +0.000 OA
ATOM     17  H   UNL     1     -11.239   9.559 127.264  0.00  0.00    +0.000 HD
ENDBRANCH  10  11
ENDBRANCH   1  10
TORSDOF 3
ENDMDL
MODEL 9
REMARK VINA RESULT:      -6.2      2.687      6.119
REMARK  Name = Metaxalone
REMARK  5 active torsions:
REMARK  status: ('A' for Active; 'I' for Inactive)
REMARK    1  A    between atoms: C_1  and  C_2
REMARK    2  A    between atoms: C_4  and  O_5
REMARK    3  A    between atoms: O_5  and  C_6
REMARK    4  A    between atoms: C_6  and  C_7
REMARK    5  A    between atoms: C_14  and  C_15
REMARK                            x       y       z     vdW  Elec       q    Type
REMARK                         _______ _______ _______ _____ _____    ______ ____
ROOT
ATOM      1  O   UNL     1     -10.418   6.877 131.010  0.00  0.00    +0.000 OA
ENDROOT
BRANCH   1   5
ATOM      2  C   UNL     1      -8.088   4.589 134.640  0.00  0.00    +0.000 C 
ATOM      3  C   UNL     1      -8.046   5.389 133.378  0.00  0.00    +0.000 A 
ATOM      4  C   UNL     1      -9.250   5.793 132.806  0.00  0.00    +0.000 A 
ATOM      5  C   UNL     1      -9.267   6.516 131.629  0.00  0.00    +0.000 A 
ATOM      6  C   UNL     1      -8.060   6.879 131.017  0.00  0.00    +0.000 A 
ATOM      7  C   UNL     1      -6.833   6.485 131.573  0.00  0.00    +0.000 A 
ATOM      8  C   UNL     1      -5.533   6.845 130.910  0.00  0.00    +0.000 C 
ATOM      9  C   UNL     1      -6.838   5.728 132.754  0.00  0.00    +0.000 A 
ENDBRANCH   1   5
BRANCH   1  10
ATOM     10  C   UNL     1     -10.637   6.511 129.598  0.00  0.00    +0.000 C 
BRANCH  10  11
ATOM     11  C   UNL     1     -11.787   7.433 129.177  0.00  0.00    +0.000 C 
ATOM     12  C   UNL     1     -12.324   8.077 127.918  0.00  0.00    +0.000 C 
ATOM     13  N   UNL     1     -12.780   9.346 128.379  0.00  0.00    +0.000 N 
ATOM     14  C   UNL     1     -12.823   9.370 129.740  0.00  0.00    +0.000 C 
ATOM     15  O   UNL     1     -13.295  10.288 130.413  0.00  0.00    +0.000 OA
ATOM     16  O   UNL     1     -12.276   8.235 130.259  0.00  0.00    +0.000 OA
ATOM     17  H   UNL     1     -13.324  10.017 127.847  0.00  0.00    +0.000 HD
ENDBRANCH  10  11
ENDBRANCH   1  10
TORSDOF 3
ENDMDL
