MODEL 1
REMARK VINA RESULT:      -5.8      0.000      0.000
REMARK  Name = Metaraminol
REMARK  6 active torsions:
REMARK  status: ('A' for Active; 'I' for Inactive)
REMARK    1  A    between atoms: C_1  and  C_2
REMARK    2  A    between atoms: C_2  and  N_3
REMARK    3  A    between atoms: C_2  and  C_4
REMARK    4  A    between atoms: C_4  and  O_5
REMARK    5  A    between atoms: C_4  and  C_6
REMARK    6  A    between atoms: C_8  and  O_9
REMARK                            x       y       z     vdW  Elec       q    Type
REMARK                         _______ _______ _______ _____ _____    ______ ____
ROOT
ATOM      1  C   UNL     1     -11.500   7.020 131.293  0.00  0.00    +0.000 C 
ENDROOT
BRANCH   1   2
ATOM      2  C   UNL     1     -12.286   7.463 130.070  0.00  0.00    +0.000 A 
ATOM      3  C   UNL     1     -12.536   8.809 129.767  0.00  0.00    +0.000 A 
ATOM      4  C   UNL     1     -13.325   9.195 128.698  0.00  0.00    +0.000 A 
ATOM      5  C   UNL     1     -13.809   8.247 127.818  0.00  0.00    +0.000 A 
ATOM      6  C   UNL     1     -13.494   6.905 128.030  0.00  0.00    +0.000 A 
ATOM      7  C   UNL     1     -12.746   6.511 129.147  0.00  0.00    +0.000 A 
BRANCH   4   8
ATOM      8  O   UNL     1     -13.625  10.510 128.505  0.00  0.00    +0.000 OA
ATOM      9  H   UNL     1     -13.579  10.960 129.368  0.00  0.00    +0.000 HD
ENDBRANCH   4   8
ENDBRANCH   1   2
BRANCH   1  11
ATOM     10  C   UNL     1      -9.212   7.324 130.138  0.00  0.00    +0.000 C 
ATOM     11  C   UNL     1     -10.023   6.458 131.103  0.00  0.00    +0.000 C 
BRANCH  11  12
ATOM     12  N   UNL     1      -9.170   6.332 132.299  0.00  0.00    +0.000 NA
ATOM     13  H   UNL     1      -8.195   6.355 132.001  0.00  0.00    +0.000 HD
ATOM     14  H   UNL     1      -9.298   5.425 132.742  0.00  0.00    +0.000 HD
ENDBRANCH  11  12
ENDBRANCH   1  11
BRANCH   1  15
ATOM     15  O   UNL     1     -12.325   6.092 132.007  0.00  0.00    +0.000 OA
ATOM     16  H   UNL     1     -13.183   6.077 131.554  0.00  0.00    +0.000 HD
ENDBRANCH   1  15
TORSDOF 5
ENDMDL
MODEL 2
REMARK VINA RESULT:      -5.8      9.853     10.488
REMARK  Name = Metaraminol
REMARK  6 active torsions:
REMARK  status: ('A' for Active; 'I' for Inactive)
REMARK    1  A    between atoms: C_1  and  C_2
REMARK    2  A    between atoms: C_2  and  N_3
REMARK    3  A    between atoms: C_2  and  C_4
REMARK    4  A    between atoms: C_4  and  O_5
REMARK    5  A    between atoms: C_4  and  C_6
REMARK    6  A    between atoms: C_8  and  O_9
REMARK                            x       y       z     vdW  Elec       q    Type
REMARK                         _______ _______ _______ _____ _____    ______ ____
ROOT
ATOM      1  C   UNL     1      -8.068   2.851 122.978  0.00  0.00    +0.000 C 
ENDROOT
BRANCH   1   2
ATOM      2  C   UNL     1      -7.910   3.428 121.581  0.00  0.00    +0.000 A 
ATOM      3  C   UNL     1      -8.996   3.694 120.735  0.00  0.00    +0.000 A 
ATOM      4  C   UNL     1      -8.834   4.139 119.435  0.00  0.00    +0.000 A 
ATOM      5  C   UNL     1      -7.573   4.443 118.961  0.00  0.00    +0.000 A 
ATOM      6  C   UNL     1      -6.476   4.288 119.810  0.00  0.00    +0.000 A 
ATOM      7  C   UNL     1      -6.637   3.780 121.106  0.00  0.00    +0.000 A 
BRANCH   4   8
ATOM      8  O   UNL     1      -9.914   4.284 118.618  0.00  0.00    +0.000 OA
ATOM      9  H   UNL     1     -10.549   4.877 119.060  0.00  0.00    +0.000 HD
ENDBRANCH   4   8
ENDBRANCH   1   2
BRANCH   1  11
ATOM     10  C   UNL     1      -8.660   0.378 123.416  0.00  0.00    +0.000 C 
ATOM     11  C   UNL     1      -9.222   1.792 123.254  0.00  0.00    +0.000 C 
BRANCH  11  12
ATOM     12  N   UNL     1     -10.079   1.991 124.438  0.00  0.00    +0.000 NA
ATOM     13  H   UNL     1      -9.858   2.900 124.844  0.00  0.00    +0.000 HD
ATOM     14  H   UNL     1      -9.862   1.310 125.162  0.00  0.00    +0.000 HD
ENDBRANCH  11  12
ENDBRANCH   1  11
BRANCH   1  15
ATOM     15  O   UNL     1      -8.148   3.960 123.881  0.00  0.00    +0.000 OA
ATOM     16  H   UNL     1      -7.595   4.664 123.508  0.00  0.00    +0.000 HD
ENDBRANCH   1  15
TORSDOF 5
ENDMDL
MODEL 3
REMARK VINA RESULT:      -5.5      2.285      2.628
REMARK  Name = Metaraminol
REMARK  6 active torsions:
REMARK  status: ('A' for Active; 'I' for Inactive)
REMARK    1  A    between atoms: C_1  and  C_2
REMARK    2  A    between atoms: C_2  and  N_3
REMARK    3  A    between atoms: C_2  and  C_4
REMARK    4  A    between atoms: C_4  and  O_5
REMARK    5  A    between atoms: C_4  and  C_6
REMARK    6  A    between atoms: C_8  and  O_9
REMARK                            x       y       z     vdW  Elec       q    Type
REMARK                         _______ _______ _______ _____ _____    ______ ____
ROOT
ATOM      1  C   UNL     1     -11.035   6.714 131.424  0.00  0.00    +0.000 C 
ENDROOT
BRANCH   1   2
ATOM      2  C   UNL     1     -11.170   7.182 129.984  0.00  0.00    +0.000 A 
ATOM      3  C   UNL     1     -10.507   6.568 128.914  0.00  0.00    +0.000 A 
ATOM      4  C   UNL     1     -10.572   7.056 127.621  0.00  0.00    +0.000 A 
ATOM      5  C   UNL     1     -11.396   8.123 127.326  0.00  0.00    +0.000 A 
ATOM      6  C   UNL     1     -12.152   8.697 128.349  0.00  0.00    +0.000 A 
ATOM      7  C   UNL     1     -12.039   8.239 129.668  0.00  0.00    +0.000 A 
BRANCH   4   8
ATOM      8  O   UNL     1      -9.827   6.486 126.632  0.00  0.00    +0.000 OA
ATOM      9  H   UNL     1      -9.533   7.193 126.029  0.00  0.00    +0.000 HD
ENDBRANCH   4   8
ENDBRANCH   1   2
BRANCH   1  11
ATOM     10  C   UNL     1      -8.524   6.324 131.869  0.00  0.00    +0.000 C 
ATOM     11  C   UNL     1      -9.901   5.662 131.794  0.00  0.00    +0.000 C 
BRANCH  11  12
ATOM     12  N   UNL     1     -10.028   4.921 133.062  0.00  0.00    +0.000 NA
ATOM     13  H   UNL     1      -9.184   5.079 133.612  0.00  0.00    +0.000 HD
ATOM     14  H   UNL     1     -10.060   3.918 132.895  0.00  0.00    +0.000 HD
ENDBRANCH  11  12
ENDBRANCH   1  11
BRANCH   1  15
ATOM     15  O   UNL     1     -12.328   6.256 131.837  0.00  0.00    +0.000 OA
ATOM     16  H   UNL     1     -12.337   5.294 131.709  0.00  0.00    +0.000 HD
ENDBRANCH   1  15
TORSDOF 5
ENDMDL
MODEL 4
REMARK VINA RESULT:      -5.4      2.875      5.009
REMARK  Name = Metaraminol
REMARK  6 active torsions:
REMARK  status: ('A' for Active; 'I' for Inactive)
REMARK    1  A    between atoms: C_1  and  C_2
REMARK    2  A    between atoms: C_2  and  N_3
REMARK    3  A    between atoms: C_2  and  C_4
REMARK    4  A    between atoms: C_4  and  O_5
REMARK    5  A    between atoms: C_4  and  C_6
REMARK    6  A    between atoms: C_8  and  O_9
REMARK                            x       y       z     vdW  Elec       q    Type
REMARK                         _______ _______ _______ _____ _____    ______ ____
ROOT
ATOM      1  C   UNL     1     -11.319   7.867 128.619  0.00  0.00    +0.000 C 
ENDROOT
BRANCH   1   2
ATOM      2  C   UNL     1     -10.729   7.293 129.896  0.00  0.00    +0.000 A 
ATOM      3  C   UNL     1      -9.352   7.254 130.153  0.00  0.00    +0.000 A 
ATOM      4  C   UNL     1      -8.823   6.652 131.282  0.00  0.00    +0.000 A 
ATOM      5  C   UNL     1      -9.664   6.159 132.260  0.00  0.00    +0.000 A 
ATOM      6  C   UNL     1     -11.044   6.273 132.086  0.00  0.00    +0.000 A 
ATOM      7  C   UNL     1     -11.576   6.828 130.914  0.00  0.00    +0.000 A 
BRANCH   4   8
ATOM      8  O   UNL     1      -7.474   6.547 131.437  0.00  0.00    +0.000 OA
ATOM      9  H   UNL     1      -7.299   6.182 132.323  0.00  0.00    +0.000 HD
ENDBRANCH   4   8
ENDBRANCH   1   2
BRANCH   1  11
ATOM     10  C   UNL     1     -13.735   7.495 127.793  0.00  0.00    +0.000 C 
ATOM     11  C   UNL     1     -12.300   6.969 127.746  0.00  0.00    +0.000 C 
BRANCH  11  12
ATOM     12  N   UNL     1     -12.005   6.814 126.309  0.00  0.00    +0.000 NA
ATOM     13  H   UNL     1     -12.723   7.309 125.780  0.00  0.00    +0.000 HD
ATOM     14  H   UNL     1     -12.082   5.840 126.026  0.00  0.00    +0.000 HD
ENDBRANCH  11  12
ENDBRANCH   1  11
BRANCH   1  15
ATOM     15  O   UNL     1     -10.225   8.359 127.837  0.00  0.00    +0.000 OA
ATOM     16  H   UNL     1      -9.423   7.938 128.184  0.00  0.00    +0.000 HD
ENDBRANCH   1  15
TORSDOF 5
ENDMDL
MODEL 5
REMARK VINA RESULT:      -5.4      2.171      2.811
REMARK  Name = Metaraminol
REMARK  6 active torsions:
REMARK  status: ('A' for Active; 'I' for Inactive)
REMARK    1  A    between atoms: C_1  and  C_2
REMARK    2  A    between atoms: C_2  and  N_3
REMARK    3  A    between atoms: C_2  and  C_4
REMARK    4  A    between atoms: C_4  and  O_5
REMARK    5  A    between atoms: C_4  and  C_6
REMARK    6  A    between atoms: C_8  and  O_9
REMARK                            x       y       z     vdW  Elec       q    Type
REMARK                         _______ _______ _______ _____ _____    ______ ____
ROOT
ATOM      1  C   UNL     1     -10.103   5.627 131.515  0.00  0.00    +0.000 C 
ENDROOT
BRANCH   1   2
ATOM      2  C   UNL     1     -10.909   6.683 130.777  0.00  0.00    +0.000 A 
ATOM      3  C   UNL     1     -10.480   7.278 129.584  0.00  0.00    +0.000 A 
ATOM      4  C   UNL     1     -11.183   8.298 128.968  0.00  0.00    +0.000 A 
ATOM      5  C   UNL     1     -12.409   8.692 129.466  0.00  0.00    +0.000 A 
ATOM      6  C   UNL     1     -12.917   8.049 130.595  0.00  0.00    +0.000 A 
ATOM      7  C   UNL     1     -12.175   7.059 131.253  0.00  0.00    +0.000 A 
BRANCH   4   8
ATOM      8  O   UNL     1     -10.673   8.917 127.866  0.00  0.00    +0.000 OA
ATOM      9  H   UNL     1      -9.728   8.688 127.801  0.00  0.00    +0.000 HD
ENDBRANCH   4   8
ENDBRANCH   1   2
BRANCH   1  11
ATOM     10  C   UNL     1      -9.532   3.151 131.962  0.00  0.00    +0.000 C 
ATOM     11  C   UNL     1     -10.022   4.155 130.918  0.00  0.00    +0.000 C 
BRANCH  11  12
ATOM     12  N   UNL     1     -11.256   3.557 130.375  0.00  0.00    +0.000 NA
ATOM     13  H   UNL     1     -11.980   4.275 130.357  0.00  0.00    +0.000 HD
ATOM     14  H   UNL     1     -11.609   2.830 130.993  0.00  0.00    +0.000 HD
ENDBRANCH  11  12
ENDBRANCH   1  11
BRANCH   1  15
ATOM     15  O   UNL     1     -10.568   5.617 132.870  0.00  0.00    +0.000 OA
ATOM     16  H   UNL     1      -9.995   6.222 133.366  0.00  0.00    +0.000 HD
ENDBRANCH   1  15
TORSDOF 5
ENDMDL
MODEL 6
REMARK VINA RESULT:      -5.2      2.109      2.460
REMARK  Name = Metaraminol
REMARK  6 active torsions:
REMARK  status: ('A' for Active; 'I' for Inactive)
REMARK    1  A    between atoms: C_1  and  C_2
REMARK    2  A    between atoms: C_2  and  N_3
REMARK    3  A    between atoms: C_2  and  C_4
REMARK    4  A    between atoms: C_4  and  O_5
REMARK    5  A    between atoms: C_4  and  C_6
REMARK    6  A    between atoms: C_8  and  O_9
REMARK                            x       y       z     vdW  Elec       q    Type
REMARK                         _______ _______ _______ _____ _____    ______ ____
ROOT
ATOM      1  C   UNL     1     -10.593   4.993 130.714  0.00  0.00    +0.000 C 
ENDROOT
BRANCH   1   2
ATOM      2  C   UNL     1     -11.235   6.302 130.286  0.00  0.00    +0.000 A 
ATOM      3  C   UNL     1     -10.887   6.976 129.107  0.00  0.00    +0.000 A 
ATOM      4  C   UNL     1     -11.418   8.209 128.771  0.00  0.00    +0.000 A 
ATOM      5  C   UNL     1     -12.408   8.771 129.553  0.00  0.00    +0.000 A 
ATOM      6  C   UNL     1     -12.854   8.079 130.680  0.00  0.00    +0.000 A 
ATOM      7  C   UNL     1     -12.271   6.860 131.051  0.00  0.00    +0.000 A 
BRANCH   4   8
ATOM      8  O   UNL     1     -10.972   8.872 127.668  0.00  0.00    +0.000 OA
ATOM      9  H   UNL     1     -10.441   8.251 127.137  0.00  0.00    +0.000 HD
ENDBRANCH   4   8
ENDBRANCH   1   2
BRANCH   1  11
ATOM     10  C   UNL     1      -8.653   6.251 131.860  0.00  0.00    +0.000 C 
ATOM     11  C   UNL     1      -9.534   5.001 131.901  0.00  0.00    +0.000 C 
BRANCH  11  12
ATOM     12  N   UNL     1     -10.040   4.945 133.284  0.00  0.00    +0.000 NA
ATOM     13  H   UNL     1      -9.598   5.694 133.818  0.00  0.00    +0.000 HD
ATOM     14  H   UNL     1      -9.755   4.082 133.741  0.00  0.00    +0.000 HD
ENDBRANCH  11  12
ENDBRANCH   1  11
BRANCH   1  15
ATOM     15  O   UNL     1     -10.054   4.386 129.534  0.00  0.00    +0.000 OA
ATOM     16  H   UNL     1     -10.739   3.791 129.189  0.00  0.00    +0.000 HD
ENDBRANCH   1  15
TORSDOF 5
ENDMDL
MODEL 7
REMARK VINA RESULT:      -5.2      2.505      5.295
REMARK  Name = Metaraminol
REMARK  6 active torsions:
REMARK  status: ('A' for Active; 'I' for Inactive)
REMARK    1  A    between atoms: C_1  and  C_2
REMARK    2  A    between atoms: C_2  and  N_3
REMARK    3  A    between atoms: C_2  and  C_4
REMARK    4  A    between atoms: C_4  and  O_5
REMARK    5  A    between atoms: C_4  and  C_6
REMARK    6  A    between atoms: C_8  and  O_9
REMARK                            x       y       z     vdW  Elec       q    Type
REMARK                         _______ _______ _______ _____ _____    ______ ____
ROOT
ATOM      1  C   UNL     1     -10.524   7.737 129.318  0.00  0.00    +0.000 C 
ENDROOT
BRANCH   1   2
ATOM      2  C   UNL     1      -9.720   7.060 130.417  0.00  0.00    +0.000 A 
ATOM      3  C   UNL     1     -10.293   6.210 131.372  0.00  0.00    +0.000 A 
ATOM      4  C   UNL     1      -9.565   5.669 132.417  0.00  0.00    +0.000 A 
ATOM      5  C   UNL     1      -8.201   5.869 132.485  0.00  0.00    +0.000 A 
ATOM      6  C   UNL     1      -7.578   6.626 131.492  0.00  0.00    +0.000 A 
ATOM      7  C   UNL     1      -8.327   7.223 130.469  0.00  0.00    +0.000 A 
BRANCH   4   8
ATOM      8  O   UNL     1     -10.187   4.933 133.380  0.00  0.00    +0.000 OA
ATOM      9  H   UNL     1     -10.834   4.349 132.943  0.00  0.00    +0.000 HD
ENDBRANCH   4   8
ENDBRANCH   1   2
BRANCH   1  11
ATOM     10  C   UNL     1     -12.799   8.793 128.713  0.00  0.00    +0.000 C 
ATOM     11  C   UNL     1     -12.104   7.560 129.293  0.00  0.00    +0.000 C 
BRANCH  11  12
ATOM     12  N   UNL     1     -12.664   6.425 128.535  0.00  0.00    +0.000 NA
ATOM     13  H   UNL     1     -12.598   6.641 127.540  0.00  0.00    +0.000 HD
ATOM     14  H   UNL     1     -13.657   6.317 128.725  0.00  0.00    +0.000 HD
ENDBRANCH  11  12
ENDBRANCH   1  11
BRANCH   1  15
ATOM     15  O   UNL     1      -9.934   7.352 128.071  0.00  0.00    +0.000 OA
ATOM     16  H   UNL     1     -10.167   6.421 127.928  0.00  0.00    +0.000 HD
ENDBRANCH   1  15
TORSDOF 5
ENDMDL
MODEL 8
REMARK VINA RESULT:      -5.0      2.567      5.054
REMARK  Name = Metaraminol
REMARK  6 active torsions:
REMARK  status: ('A' for Active; 'I' for Inactive)
REMARK    1  A    between atoms: C_1  and  C_2
REMARK    2  A    between atoms: C_2  and  N_3
REMARK    3  A    between atoms: C_2  and  C_4
REMARK    4  A    between atoms: C_4  and  O_5
REMARK    5  A    between atoms: C_4  and  C_6
REMARK    6  A    between atoms: C_8  and  O_9
REMARK                            x       y       z     vdW  Elec       q    Type
REMARK                         _______ _______ _______ _____ _____    ______ ____
ROOT
ATOM      1  C   UNL     1     -11.576   6.315 130.733  0.00  0.00    +0.000 C 
ENDROOT
BRANCH   1   2
ATOM      2  C   UNL     1     -10.161   6.320 131.289  0.00  0.00    +0.000 A 
ATOM      3  C   UNL     1      -9.090   6.957 130.648  0.00  0.00    +0.000 A 
ATOM      4  C   UNL     1      -7.791   6.882 131.120  0.00  0.00    +0.000 A 
ATOM      5  C   UNL     1      -7.528   6.255 132.322  0.00  0.00    +0.000 A 
ATOM      6  C   UNL     1      -8.587   5.698 133.040  0.00  0.00    +0.000 A 
ATOM      7  C   UNL     1      -9.892   5.722 132.529  0.00  0.00    +0.000 A 
BRANCH   4   8
ATOM      8  O   UNL     1      -6.768   7.430 130.407  0.00  0.00    +0.000 OA
ATOM      9  H   UNL     1      -7.152   7.964 129.688  0.00  0.00    +0.000 HD
ENDBRANCH   4   8
ENDBRANCH   1   2
BRANCH   1  11
ATOM     10  C   UNL     1     -13.037   6.790 128.660  0.00  0.00    +0.000 C 
ATOM     11  C   UNL     1     -11.967   7.356 129.595  0.00  0.00    +0.000 C 
BRANCH  11  12
ATOM     12  N   UNL     1     -12.488   8.672 130.007  0.00  0.00    +0.000 NA
ATOM     13  H   UNL     1     -11.697   9.304 130.136  0.00  0.00    +0.000 HD
ATOM     14  H   UNL     1     -12.941   8.614 130.916  0.00  0.00    +0.000 HD
ENDBRANCH  11  12
ENDBRANCH   1  11
BRANCH   1  15
ATOM     15  O   UNL     1     -12.465   6.406 131.853  0.00  0.00    +0.000 OA
ATOM     16  H   UNL     1     -11.939   6.733 132.600  0.00  0.00    +0.000 HD
ENDBRANCH   1  15
TORSDOF 5
ENDMDL
MODEL 9
REMARK VINA RESULT:      -4.7     11.197     12.268
REMARK  Name = Metaraminol
REMARK  6 active torsions:
REMARK  status: ('A' for Active; 'I' for Inactive)
REMARK    1  A    between atoms: C_1  and  C_2
REMARK    2  A    between atoms: C_2  and  N_3
REMARK    3  A    between atoms: C_2  and  C_4
REMARK    4  A    between atoms: C_4  and  O_5
REMARK    5  A    between atoms: C_4  and  C_6
REMARK    6  A    between atoms: C_8  and  O_9
REMARK                            x       y       z     vdW  Elec       q    Type
REMARK                         _______ _______ _______ _____ _____    ______ ____
ROOT
ATOM      1  C   UNL     1      -7.460  -2.593 124.857  0.00  0.00    +0.000 C 
ENDROOT
BRANCH   1   2
ATOM      2  C   UNL     1      -7.762  -2.775 126.335  0.00  0.00    +0.000 A 
ATOM      3  C   UNL     1      -7.168  -2.000 127.339  0.00  0.00    +0.000 A 
ATOM      4  C   UNL     1      -7.387  -2.233 128.686  0.00  0.00    +0.000 A 
ATOM      5  C   UNL     1      -8.303  -3.187 129.082  0.00  0.00    +0.000 A 
ATOM      6  C   UNL     1      -8.992  -3.908 128.106  0.00  0.00    +0.000 A 
ATOM      7  C   UNL     1      -8.723  -3.713 126.745  0.00  0.00    +0.000 A 
BRANCH   4   8
ATOM      8  O   UNL     1      -6.706  -1.520 129.626  0.00  0.00    +0.000 OA
ATOM      9  H   UNL     1      -5.753  -1.656 129.476  0.00  0.00    +0.000 HD
ENDBRANCH   4   8
ENDBRANCH   1   2
BRANCH   1  11
ATOM     10  C   UNL     1      -9.459  -3.032 123.285  0.00  0.00    +0.000 C 
ATOM     11  C   UNL     1      -8.570  -1.956 123.911  0.00  0.00    +0.000 C 
BRANCH  11  12
ATOM     12  N   UNL     1      -9.513  -0.988 124.501  0.00  0.00    +0.000 NA
ATOM     13  H   UNL     1      -8.981  -0.329 125.070  0.00  0.00    +0.000 HD
ATOM     14  H   UNL     1     -10.151  -1.450 125.144  0.00  0.00    +0.000 HD
ENDBRANCH  11  12
ENDBRANCH   1  11
BRANCH   1  15
ATOM     15  O   UNL     1      -7.015  -3.861 124.361  0.00  0.00    +0.000 OA
ATOM     16  H   UNL     1      -7.029  -3.802 123.393  0.00  0.00    +0.000 HD
ENDBRANCH   1  15
TORSDOF 5
ENDMDL
