MODEL 1
REMARK VINA RESULT:      -7.9      0.000      0.000
REMARK  Name = Metacycline
REMARK  9 active torsions:
REMARK  status: ('A' for Active; 'I' for Inactive)
REMARK    1  A    between atoms: C_3  and  O_4
REMARK    2  A    between atoms: C_11  and  O_12
REMARK    3  A    between atoms: C_19  and  O_20
REMARK    4  A    between atoms: C_21  and  O_22
REMARK    5  A    between atoms: C_25  and  C_26
REMARK    6  A    between atoms: C_29  and  O_30
REMARK    7  A    between atoms: C_31  and  N_32
REMARK    8  A    between atoms: N_32  and  C_33
REMARK    9  A    between atoms: N_32  and  C_34
REMARK                            x       y       z     vdW  Elec       q    Type
REMARK                         _______ _______ _______ _____ _____    ______ ____
ROOT
ATOM      1  C   UNL     1      -6.664  -0.344 126.071  0.00  0.00    +0.000 C 
ATOM      2  C   UNL     1      -6.903  -1.472 127.430  0.00  0.00    +0.000 C 
ATOM      3  C   UNL     1      -6.840  -1.058 128.824  0.00  0.00    +0.000 C 
ATOM      4  C   UNL     1      -7.506  -2.176 129.601  0.00  0.00    +0.000 C 
ATOM      5  C   UNL     1      -8.151  -3.287 129.169  0.00  0.00    +0.000 C 
ATOM      6  C   UNL     1      -7.372  -1.858 130.993  0.00  0.00    +0.000 A 
ATOM      7  C   UNL     1      -7.487  -0.522 131.436  0.00  0.00    +0.000 A 
ATOM      8  C   UNL     1      -7.372  -0.284 132.789  0.00  0.00    +0.000 A 
ATOM      9  C   UNL     1      -7.103  -1.360 133.643  0.00  0.00    +0.000 A 
ATOM     10  C   UNL     1      -6.926  -2.662 133.160  0.00  0.00    +0.000 A 
ATOM     11  C   UNL     1      -7.044  -2.912 131.820  0.00  0.00    +0.000 A 
ATOM     12  C   UNL     1      -7.741   0.568 130.437  0.00  0.00    +0.000 C 
ATOM     13  O   UNL     1      -8.056   1.710 130.753  0.00  0.00    +0.000 OA
ATOM     14  C   UNL     1      -7.614   0.135 129.021  0.00  0.00    +0.000 C 
ATOM     15  C   UNL     1      -8.212   0.596 127.929  0.00  0.00    +0.000 C 
ATOM     16  C   UNL     1      -8.031  -0.090 126.348  0.00  0.00    +0.000 C 
ATOM     17  C   UNL     1      -7.788  -1.905 125.494  0.00  0.00    +0.000 C 
ATOM     18  O   UNL     1      -6.906  -2.824 125.702  0.00  0.00    +0.000 OA
ATOM     19  C   UNL     1      -7.972  -2.370 124.084  0.00  0.00    +0.000 C 
ATOM     20  C   UNL     1      -7.087  -1.398 123.687  0.00  0.00    +0.000 C 
ATOM     21  C   UNL     1      -7.427  -0.095 124.337  0.00  0.00    +0.000 C 
ENDROOT
BRANCH  19  22
ATOM     22  C   UNL     1      -9.388  -2.946 124.189  0.00  0.00    +0.000 C 
ATOM     23  N   UNL     1      -9.885  -3.079 125.458  0.00  0.00    +0.000 N 
ATOM     24  O   UNL     1     -10.067  -3.268 123.222  0.00  0.00    +0.000 OA
ATOM     25  H   UNL     1      -9.394  -2.463 126.086  0.00  0.00    +0.000 HD
ATOM     26  H   UNL     1     -10.877  -2.909 125.525  0.00  0.00    +0.000 HD
ENDBRANCH  19  22
BRANCH  21  27
ATOM     27  N   UNL     1      -9.096  -0.109 124.138  0.00  0.00    +0.000 NA
ATOM     28  C   UNL     1     -10.109   0.363 125.108  0.00  0.00    +0.000 C 
ATOM     29  C   UNL     1      -9.562   0.093 122.765  0.00  0.00    +0.000 C 
ENDBRANCH  21  27
BRANCH   2  30
ATOM     30  O   UNL     1      -5.959  -2.537 127.525  0.00  0.00    +0.000 OA
ATOM     31  H   UNL     1      -5.145  -2.078 127.778  0.00  0.00    +0.000 HD
ENDBRANCH   2  30
BRANCH   8  32
ATOM     32  O   UNL     1      -7.511   0.953 133.347  0.00  0.00    +0.000 OA
ATOM     33  H   UNL     1      -8.016   1.525 132.731  0.00  0.00    +0.000 HD
ENDBRANCH   8  32
BRANCH  15  34
ATOM     34  O   UNL     1      -8.788   1.896 128.029  0.00  0.00    +0.000 OA
ATOM     35  H   UNL     1      -9.648   1.903 127.528  0.00  0.00    +0.000 HD
ENDBRANCH  15  34
BRANCH  16  36
ATOM     36  O   UNL     1      -7.965   1.338 125.890  0.00  0.00    +0.000 OA
ATOM     37  H   UNL     1      -8.337   1.898 126.608  0.00  0.00    +0.000 HD
ENDBRANCH  16  36
BRANCH  20  38
ATOM     38  O   UNL     1      -5.683  -1.567 123.665  0.00  0.00    +0.000 OA
ATOM     39  H   UNL     1      -5.438  -2.352 123.131  0.00  0.00    +0.000 HD
ENDBRANCH  20  38
TORSDOF 7
ENDMDL
MODEL 2
REMARK VINA RESULT:      -7.8      5.258      8.522
REMARK  Name = Metacycline
REMARK  9 active torsions:
REMARK  status: ('A' for Active; 'I' for Inactive)
REMARK    1  A    between atoms: C_3  and  O_4
REMARK    2  A    between atoms: C_11  and  O_12
REMARK    3  A    between atoms: C_19  and  O_20
REMARK    4  A    between atoms: C_21  and  O_22
REMARK    5  A    between atoms: C_25  and  C_26
REMARK    6  A    between atoms: C_29  and  O_30
REMARK    7  A    between atoms: C_31  and  N_32
REMARK    8  A    between atoms: N_32  and  C_33
REMARK    9  A    between atoms: N_32  and  C_34
REMARK                            x       y       z     vdW  Elec       q    Type
REMARK                         _______ _______ _______ _____ _____    ______ ____
ROOT
ATOM      1  C   UNL     1      -9.348   1.989 131.439  0.00  0.00    +0.000 C 
ATOM      2  C   UNL     1      -9.190   3.231 130.171  0.00  0.00    +0.000 C 
ATOM      3  C   UNL     1     -10.074   4.385 130.078  0.00  0.00    +0.000 C 
ATOM      4  C   UNL     1      -9.352   5.366 129.176  0.00  0.00    +0.000 C 
ATOM      5  C   UNL     1      -8.109   5.317 128.634  0.00  0.00    +0.000 C 
ATOM      6  C   UNL     1     -10.235   6.477 128.972  0.00  0.00    +0.000 A 
ATOM      7  C   UNL     1     -11.046   6.951 130.027  0.00  0.00    +0.000 A 
ATOM      8  C   UNL     1     -11.856   8.037 129.775  0.00  0.00    +0.000 A 
ATOM      9  C   UNL     1     -11.870   8.581 128.485  0.00  0.00    +0.000 A 
ATOM     10  C   UNL     1     -11.104   8.042 127.445  0.00  0.00    +0.000 A 
ATOM     11  C   UNL     1     -10.291   6.969 127.684  0.00  0.00    +0.000 A 
ATOM     12  C   UNL     1     -10.985   6.274 131.365  0.00  0.00    +0.000 C 
ATOM     13  O   UNL     1     -11.492   6.742 132.379  0.00  0.00    +0.000 OA
ATOM     14  C   UNL     1     -10.220   5.000 131.367  0.00  0.00    +0.000 C 
ATOM     15  C   UNL     1      -9.539   4.412 132.344  0.00  0.00    +0.000 C 
ATOM     16  C   UNL     1      -8.609   2.963 132.157  0.00  0.00    +0.000 C 
ATOM     17  C   UNL     1      -7.459   2.061 130.762  0.00  0.00    +0.000 C 
ATOM     18  O   UNL     1      -7.713   1.738 129.539  0.00  0.00    +0.000 OA
ATOM     19  C   UNL     1      -6.454   0.957 130.868  0.00  0.00    +0.000 C 
ATOM     20  C   UNL     1      -7.429   0.175 131.437  0.00  0.00    +0.000 C 
ATOM     21  C   UNL     1      -8.151   0.942 132.498  0.00  0.00    +0.000 C 
ENDROOT
BRANCH  19  22
ATOM     22  C   UNL     1      -5.170   1.789 130.951  0.00  0.00    +0.000 C 
ATOM     23  N   UNL     1      -5.299   3.117 130.646  0.00  0.00    +0.000 N 
ATOM     24  O   UNL     1      -4.081   1.333 131.276  0.00  0.00    +0.000 OA
ATOM     25  H   UNL     1      -6.258   3.404 130.757  0.00  0.00    +0.000 HD
ATOM     26  H   UNL     1      -4.702   3.720 131.191  0.00  0.00    +0.000 HD
ENDBRANCH  19  22
BRANCH  21  27
ATOM     27  N   UNL     1      -6.840   1.670 133.260  0.00  0.00    +0.000 NA
ATOM     28  C   UNL     1      -6.761   3.062 133.753  0.00  0.00    +0.000 C 
ATOM     29  C   UNL     1      -6.031   0.779 134.095  0.00  0.00    +0.000 C 
ENDBRANCH  21  27
BRANCH   2  30
ATOM     30  O   UNL     1      -9.364   2.775 128.830  0.00  0.00    +0.000 OA
ATOM     31  H   UNL     1      -8.461   2.542 128.566  0.00  0.00    +0.000 HD
ENDBRANCH   2  30
BRANCH   8  32
ATOM     32  O   UNL     1     -12.649   8.617 130.720  0.00  0.00    +0.000 OA
ATOM     33  H   UNL     1     -12.774   7.986 131.461  0.00  0.00    +0.000 HD
ENDBRANCH   8  32
BRANCH  15  34
ATOM     34  O   UNL     1      -9.844   4.843 133.668  0.00  0.00    +0.000 OA
ATOM     35  H   UNL     1     -10.831   4.807 133.796  0.00  0.00    +0.000 HD
ENDBRANCH  15  34
BRANCH  16  36
ATOM     36  O   UNL     1      -9.199   2.581 133.483  0.00  0.00    +0.000 OA
ATOM     37  H   UNL     1      -9.870   1.881 133.319  0.00  0.00    +0.000 HD
ENDBRANCH  16  36
BRANCH  20  38
ATOM     38  O   UNL     1      -8.352  -0.602 130.700  0.00  0.00    +0.000 OA
ATOM     39  H   UNL     1      -8.392  -0.299 129.768  0.00  0.00    +0.000 HD
ENDBRANCH  20  38
TORSDOF 7
ENDMDL
MODEL 3
REMARK VINA RESULT:      -7.7      4.099      7.262
REMARK  Name = Metacycline
REMARK  9 active torsions:
REMARK  status: ('A' for Active; 'I' for Inactive)
REMARK    1  A    between atoms: C_3  and  O_4
REMARK    2  A    between atoms: C_11  and  O_12
REMARK    3  A    between atoms: C_19  and  O_20
REMARK    4  A    between atoms: C_21  and  O_22
REMARK    5  A    between atoms: C_25  and  C_26
REMARK    6  A    between atoms: C_29  and  O_30
REMARK    7  A    between atoms: C_31  and  N_32
REMARK    8  A    between atoms: N_32  and  C_33
REMARK    9  A    between atoms: N_32  and  C_34
REMARK                            x       y       z     vdW  Elec       q    Type
REMARK                         _______ _______ _______ _____ _____    ______ ____
ROOT
ATOM      1  C   UNL     1      -7.037   2.905 127.962  0.00  0.00    +0.000 C 
ATOM      2  C   UNL     1      -6.718   1.367 127.117  0.00  0.00    +0.000 C 
ATOM      3  C   UNL     1      -7.648   0.779 126.165  0.00  0.00    +0.000 C 
ATOM      4  C   UNL     1      -6.834  -0.238 125.391  0.00  0.00    +0.000 C 
ATOM      5  C   UNL     1      -5.507  -0.516 125.425  0.00  0.00    +0.000 C 
ATOM      6  C   UNL     1      -7.738  -0.918 124.510  0.00  0.00    +0.000 A 
ATOM      7  C   UNL     1      -8.781  -0.213 123.871  0.00  0.00    +0.000 A 
ATOM      8  C   UNL     1      -9.603  -0.918 123.018  0.00  0.00    +0.000 A 
ATOM      9  C   UNL     1      -9.394  -2.294 122.865  0.00  0.00    +0.000 A 
ATOM     10  C   UNL     1      -8.393  -2.974 123.569  0.00  0.00    +0.000 A 
ATOM     11  C   UNL     1      -7.567  -2.284 124.413  0.00  0.00    +0.000 A 
ATOM     12  C   UNL     1      -8.944   1.256 124.128  0.00  0.00    +0.000 C 
ATOM     13  O   UNL     1      -9.682   1.977 123.466  0.00  0.00    +0.000 OA
ATOM     14  C   UNL     1      -8.102   1.776 125.237  0.00  0.00    +0.000 C 
ATOM     15  C   UNL     1      -7.593   2.987 125.429  0.00  0.00    +0.000 C 
ATOM     16  C   UNL     1      -6.537   3.411 126.735  0.00  0.00    +0.000 C 
ATOM     17  C   UNL     1      -5.060   2.575 127.833  0.00  0.00    +0.000 C 
ATOM     18  O   UNL     1      -5.033   1.482 128.518  0.00  0.00    +0.000 OA
ATOM     19  C   UNL     1      -4.017   3.182 128.718  0.00  0.00    +0.000 C 
ATOM     20  C   UNL     1      -5.026   3.784 129.430  0.00  0.00    +0.000 C 
ATOM     21  C   UNL     1      -6.006   4.421 128.498  0.00  0.00    +0.000 C 
ENDROOT
BRANCH  19  22
ATOM     22  C   UNL     1      -2.845   3.231 127.733  0.00  0.00    +0.000 C 
ATOM     23  N   UNL     1      -2.944   2.404 126.646  0.00  0.00    +0.000 N 
ATOM     24  O   UNL     1      -1.869   3.958 127.869  0.00  0.00    +0.000 OA
ATOM     25  H   UNL     1      -3.908   2.162 126.485  0.00  0.00    +0.000 HD
ATOM     26  H   UNL     1      -2.547   2.791 125.803  0.00  0.00    +0.000 HD
ENDBRANCH  19  22
BRANCH  21  27
ATOM     27  N   UNL     1      -4.938   5.142 127.418  0.00  0.00    +0.000 NA
ATOM     28  C   UNL     1      -5.078   5.214 125.946  0.00  0.00    +0.000 C 
ATOM     29  C   UNL     1      -4.236   6.322 127.928  0.00  0.00    +0.000 C 
ENDBRANCH  21  27
BRANCH   2  30
ATOM     30  O   UNL     1      -6.578   0.219 127.952  0.00  0.00    +0.000 OA
ATOM     31  H   UNL     1      -5.871  -0.277 127.515  0.00  0.00    +0.000 HD
ENDBRANCH   2  30
BRANCH   8  32
ATOM     32  O   UNL     1     -10.614  -0.344 122.306  0.00  0.00    +0.000 OA
ATOM     33  H   UNL     1     -10.261   0.431 121.819  0.00  0.00    +0.000 HD
ENDBRANCH   8  32
BRANCH  15  34
ATOM     34  O   UNL     1      -8.194   4.045 124.687  0.00  0.00    +0.000 OA
ATOM     35  H   UNL     1      -7.928   4.913 125.098  0.00  0.00    +0.000 HD
ENDBRANCH  15  34
BRANCH  16  36
ATOM     36  O   UNL     1      -7.355   4.667 126.802  0.00  0.00    +0.000 OA
ATOM     37  H   UNL     1      -8.252   4.421 127.122  0.00  0.00    +0.000 HD
ENDBRANCH  16  36
BRANCH  20  38
ATOM     38  O   UNL     1      -5.717   3.167 130.499  0.00  0.00    +0.000 OA
ATOM     39  H   UNL     1      -5.101   2.952 131.230  0.00  0.00    +0.000 HD
ENDBRANCH  20  38
TORSDOF 7
ENDMDL
MODEL 4
REMARK VINA RESULT:      -7.7      2.789      6.910
REMARK  Name = Metacycline
REMARK  9 active torsions:
REMARK  status: ('A' for Active; 'I' for Inactive)
REMARK    1  A    between atoms: C_3  and  O_4
REMARK    2  A    between atoms: C_11  and  O_12
REMARK    3  A    between atoms: C_19  and  O_20
REMARK    4  A    between atoms: C_21  and  O_22
REMARK    5  A    between atoms: C_25  and  C_26
REMARK    6  A    between atoms: C_29  and  O_30
REMARK    7  A    between atoms: C_31  and  N_32
REMARK    8  A    between atoms: N_32  and  C_33
REMARK    9  A    between atoms: N_32  and  C_34
REMARK                            x       y       z     vdW  Elec       q    Type
REMARK                         _______ _______ _______ _____ _____    ______ ____
ROOT
ATOM      1  C   UNL     1      -7.854  -1.434 130.230  0.00  0.00    +0.000 C 
ATOM      2  C   UNL     1      -7.440  -2.045 128.607  0.00  0.00    +0.000 C 
ATOM      3  C   UNL     1      -8.138  -1.623 127.401  0.00  0.00    +0.000 C 
ATOM      4  C   UNL     1      -7.227  -2.021 126.257  0.00  0.00    +0.000 C 
ATOM      5  C   UNL     1      -5.975  -2.543 126.266  0.00  0.00    +0.000 C 
ATOM      6  C   UNL     1      -7.924  -1.718 125.041  0.00  0.00    +0.000 A 
ATOM      7  C   UNL     1      -8.718  -0.554 124.941  0.00  0.00    +0.000 A 
ATOM      8  C   UNL     1      -9.343  -0.307 123.738  0.00  0.00    +0.000 A 
ATOM      9  C   UNL     1      -9.201  -1.236 122.701  0.00  0.00    +0.000 A 
ATOM     10  C   UNL     1      -8.462  -2.414 122.858  0.00  0.00    +0.000 A 
ATOM     11  C   UNL     1      -7.830  -2.668 124.044  0.00  0.00    +0.000 A 
ATOM     12  C   UNL     1      -8.837   0.361 126.124  0.00  0.00    +0.000 C 
ATOM     13  O   UNL     1      -9.329   1.482 126.060  0.00  0.00    +0.000 OA
ATOM     14  C   UNL     1      -8.269  -0.193 127.380  0.00  0.00    +0.000 C 
ATOM     15  C   UNL     1      -7.741   0.429 128.428  0.00  0.00    +0.000 C 
ATOM     16  C   UNL     1      -7.024  -0.373 129.786  0.00  0.00    +0.000 C 
ATOM     17  C   UNL     1      -5.937  -2.032 130.176  0.00  0.00    +0.000 C 
ATOM     18  O   UNL     1      -6.163  -3.272 129.902  0.00  0.00    +0.000 OA
ATOM     19  C   UNL     1      -5.114  -2.421 131.363  0.00  0.00    +0.000 C 
ATOM     20  C   UNL     1      -6.225  -2.235 132.148  0.00  0.00    +0.000 C 
ATOM     21  C   UNL     1      -6.888  -0.940 131.804  0.00  0.00    +0.000 C 
ENDROOT
BRANCH  19  22
ATOM     22  C   UNL     1      -3.729  -2.000 130.861  0.00  0.00    +0.000 C 
ATOM     23  N   UNL     1      -3.654  -1.654 129.538  0.00  0.00    +0.000 N 
ATOM     24  O   UNL     1      -2.731  -1.953 131.569  0.00  0.00    +0.000 OA
ATOM     25  H   UNL     1      -4.566  -1.395 129.198  0.00  0.00    +0.000 HD
ATOM     26  H   UNL     1      -3.000  -0.909 129.349  0.00  0.00    +0.000 HD
ENDBRANCH  19  22
BRANCH  21  27
ATOM     27  N   UNL     1      -5.533   0.048 131.688  0.00  0.00    +0.000 NA
ATOM     28  C   UNL     1      -5.283   1.097 130.674  0.00  0.00    +0.000 C 
ATOM     29  C   UNL     1      -4.911   0.405 132.965  0.00  0.00    +0.000 C 
ENDBRANCH  21  27
BRANCH   2  30
ATOM     30  O   UNL     1      -7.598  -3.449 128.415  0.00  0.00    +0.000 OA
ATOM     31  H   UNL     1      -6.718  -3.794 128.625  0.00  0.00    +0.000 HD
ENDBRANCH   2  30
BRANCH   8  32
ATOM     32  O   UNL     1     -10.098   0.804 123.500  0.00  0.00    +0.000 OA
ATOM     33  H   UNL     1     -11.034   0.605 123.717  0.00  0.00    +0.000 HD
ENDBRANCH   8  32
BRANCH  15  34
ATOM     34  O   UNL     1      -8.057   1.812 128.561  0.00  0.00    +0.000 OA
ATOM     35  H   UNL     1      -7.818   2.277 127.714  0.00  0.00    +0.000 HD
ENDBRANCH  15  34
BRANCH  16  36
ATOM     36  O   UNL     1      -7.742   0.665 130.598  0.00  0.00    +0.000 OA
ATOM     37  H   UNL     1      -7.979   1.403 129.994  0.00  0.00    +0.000 HD
ENDBRANCH  16  36
BRANCH  20  38
ATOM     38  O   UNL     1      -7.206  -3.226 132.379  0.00  0.00    +0.000 OA
ATOM     39  H   UNL     1      -8.064  -2.962 131.985  0.00  0.00    +0.000 HD
ENDBRANCH  20  38
TORSDOF 7
ENDMDL
MODEL 5
REMARK VINA RESULT:      -7.7      3.886      8.068
REMARK  Name = Metacycline
REMARK  9 active torsions:
REMARK  status: ('A' for Active; 'I' for Inactive)
REMARK    1  A    between atoms: C_3  and  O_4
REMARK    2  A    between atoms: C_11  and  O_12
REMARK    3  A    between atoms: C_19  and  O_20
REMARK    4  A    between atoms: C_21  and  O_22
REMARK    5  A    between atoms: C_25  and  C_26
REMARK    6  A    between atoms: C_29  and  O_30
REMARK    7  A    between atoms: C_31  and  N_32
REMARK    8  A    between atoms: N_32  and  C_33
REMARK    9  A    between atoms: N_32  and  C_34
REMARK                            x       y       z     vdW  Elec       q    Type
REMARK                         _______ _______ _______ _____ _____    ______ ____
ROOT
ATOM      1  C   UNL     1      -5.847   0.617 127.996  0.00  0.00    +0.000 C 
ATOM      2  C   UNL     1      -5.355   1.821 126.777  0.00  0.00    +0.000 C 
ATOM      3  C   UNL     1      -6.023   1.964 125.492  0.00  0.00    +0.000 C 
ATOM      4  C   UNL     1      -5.599   3.325 124.974  0.00  0.00    +0.000 C 
ATOM      5  C   UNL     1      -4.867   4.304 125.562  0.00  0.00    +0.000 C 
ATOM      6  C   UNL     1      -6.151   3.464 123.658  0.00  0.00    +0.000 A 
ATOM      7  C   UNL     1      -7.440   2.966 123.366  0.00  0.00    +0.000 A 
ATOM      8  C   UNL     1      -7.925   3.153 122.089  0.00  0.00    +0.000 A 
ATOM      9  C   UNL     1      -7.105   3.777 121.142  0.00  0.00    +0.000 A 
ATOM     10  C   UNL     1      -5.805   4.196 121.448  0.00  0.00    +0.000 A 
ATOM     11  C   UNL     1      -5.316   4.024 122.713  0.00  0.00    +0.000 A 
ATOM     12  C   UNL     1      -8.227   2.278 124.443  0.00  0.00    +0.000 C 
ATOM     13  O   UNL     1      -9.417   2.004 124.335  0.00  0.00    +0.000 OA
ATOM     14  C   UNL     1      -7.447   1.989 125.674  0.00  0.00    +0.000 C 
ATOM     15  C   UNL     1      -7.847   1.883 126.936  0.00  0.00    +0.000 C 
ATOM     16  C   UNL     1      -6.787   1.638 128.283  0.00  0.00    +0.000 C 
ATOM     17  C   UNL     1      -4.930   2.171 128.878  0.00  0.00    +0.000 C 
ATOM     18  O   UNL     1      -3.787   2.036 128.296  0.00  0.00    +0.000 OA
ATOM     19  C   UNL     1      -4.274   2.145 130.223  0.00  0.00    +0.000 C 
ATOM     20  C   UNL     1      -4.565   0.805 130.297  0.00  0.00    +0.000 C 
ATOM     21  C   UNL     1      -5.987   0.563 129.901  0.00  0.00    +0.000 C 
ENDROOT
BRANCH  19  22
ATOM     22  C   UNL     1      -4.498   3.601 130.643  0.00  0.00    +0.000 C 
ATOM     23  N   UNL     1      -4.924   4.448 129.656  0.00  0.00    +0.000 N 
ATOM     24  O   UNL     1      -4.328   4.016 131.782  0.00  0.00    +0.000 OA
ATOM     25  H   UNL     1      -5.353   3.922 128.912  0.00  0.00    +0.000 HD
ATOM     26  H   UNL     1      -5.563   5.159 129.978  0.00  0.00    +0.000 HD
ENDBRANCH  19  22
BRANCH  21  27
ATOM     27  N   UNL     1      -6.728   1.825 130.729  0.00  0.00    +0.000 NA
ATOM     28  C   UNL     1      -7.806   2.704 130.226  0.00  0.00    +0.000 C 
ATOM     29  C   UNL     1      -6.849   1.634 132.176  0.00  0.00    +0.000 C 
ENDBRANCH  21  27
BRANCH   2  30
ATOM     30  O   UNL     1      -4.030   1.682 126.267  0.00  0.00    +0.000 OA
ATOM     31  H   UNL     1      -3.504   1.555 127.071  0.00  0.00    +0.000 HD
ENDBRANCH   2  30
BRANCH   8  32
ATOM     32  O   UNL     1      -9.170   2.761 121.695  0.00  0.00    +0.000 OA
ATOM     33  H   UNL     1      -9.643   2.380 122.466  0.00  0.00    +0.000 HD
ENDBRANCH   8  32
BRANCH  15  34
ATOM     34  O   UNL     1      -9.241   1.665 127.135  0.00  0.00    +0.000 OA
ATOM     35  H   UNL     1      -9.466   1.884 128.080  0.00  0.00    +0.000 HD
ENDBRANCH  15  34
BRANCH  16  36
ATOM     36  O   UNL     1      -7.839   0.678 128.756  0.00  0.00    +0.000 OA
ATOM     37  H   UNL     1      -7.612   0.417 129.676  0.00  0.00    +0.000 HD
ENDBRANCH  16  36
BRANCH  20  38
ATOM     38  O   UNL     1      -3.743  -0.215 129.765  0.00  0.00    +0.000 OA
ATOM     39  H   UNL     1      -2.801  -0.047 129.980  0.00  0.00    +0.000 HD
ENDBRANCH  20  38
TORSDOF 7
ENDMDL
MODEL 6
REMARK VINA RESULT:      -7.7      2.719      7.136
REMARK  Name = Metacycline
REMARK  9 active torsions:
REMARK  status: ('A' for Active; 'I' for Inactive)
REMARK    1  A    between atoms: C_3  and  O_4
REMARK    2  A    between atoms: C_11  and  O_12
REMARK    3  A    between atoms: C_19  and  O_20
REMARK    4  A    between atoms: C_21  and  O_22
REMARK    5  A    between atoms: C_25  and  C_26
REMARK    6  A    between atoms: C_29  and  O_30
REMARK    7  A    between atoms: C_31  and  N_32
REMARK    8  A    between atoms: N_32  and  C_33
REMARK    9  A    between atoms: N_32  and  C_34
REMARK                            x       y       z     vdW  Elec       q    Type
REMARK                         _______ _______ _______ _____ _____    ______ ____
ROOT
ATOM      1  C   UNL     1      -5.299  -2.140 128.046  0.00  0.00    +0.000 C 
ATOM      2  C   UNL     1      -5.893  -0.565 127.458  0.00  0.00    +0.000 C 
ATOM      3  C   UNL     1      -6.701  -0.422 126.256  0.00  0.00    +0.000 C 
ATOM      4  C   UNL     1      -7.328   0.954 126.362  0.00  0.00    +0.000 C 
ATOM      5  C   UNL     1      -7.299   1.862 127.368  0.00  0.00    +0.000 C 
ATOM      6  C   UNL     1      -8.052   1.180 125.145  0.00  0.00    +0.000 A 
ATOM      7  C   UNL     1      -8.759   0.126 124.525  0.00  0.00    +0.000 A 
ATOM      8  C   UNL     1      -9.454   0.412 123.370  0.00  0.00    +0.000 A 
ATOM      9  C   UNL     1      -9.387   1.709 122.847  0.00  0.00    +0.000 A 
ATOM     10  C   UNL     1      -8.620   2.713 123.451  0.00  0.00    +0.000 A 
ATOM     11  C   UNL     1      -7.932   2.443 124.601  0.00  0.00    +0.000 A 
ATOM     12  C   UNL     1      -8.738  -1.240 125.145  0.00  0.00    +0.000 C 
ATOM     13  O   UNL     1      -9.482  -2.150 124.794  0.00  0.00    +0.000 OA
ATOM     14  C   UNL     1      -7.762  -1.389 126.255  0.00  0.00    +0.000 C 
ATOM     15  C   UNL     1      -7.789  -2.185 127.318  0.00  0.00    +0.000 C 
ATOM     16  C   UNL     1      -6.609  -2.167 128.586  0.00  0.00    +0.000 C 
ATOM     17  C   UNL     1      -5.446  -0.837 129.567  0.00  0.00    +0.000 C 
ATOM     18  O   UNL     1      -4.593   0.024 129.125  0.00  0.00    +0.000 OA
ATOM     19  C   UNL     1      -4.711  -0.931 130.867  0.00  0.00    +0.000 C 
ATOM     20  C   UNL     1      -4.069  -2.044 130.380  0.00  0.00    +0.000 C 
ATOM     21  C   UNL     1      -5.056  -2.973 129.748  0.00  0.00    +0.000 C 
ENDROOT
BRANCH  19  22
ATOM     22  C   UNL     1      -5.733  -0.255 131.786  0.00  0.00    +0.000 C 
ATOM     23  N   UNL     1      -6.756   0.404 131.158  0.00  0.00    +0.000 N 
ATOM     24  O   UNL     1      -5.680  -0.290 133.009  0.00  0.00    +0.000 OA
ATOM     25  H   UNL     1      -6.870   0.050 130.222  0.00  0.00    +0.000 HD
ATOM     26  H   UNL     1      -7.637   0.349 131.649  0.00  0.00    +0.000 HD
ENDBRANCH  19  22
BRANCH  21  27
ATOM     27  N   UNL     1      -6.278  -2.911 130.901  0.00  0.00    +0.000 NA
ATOM     28  C   UNL     1      -7.733  -2.824 130.647  0.00  0.00    +0.000 C 
ATOM     29  C   UNL     1      -6.013  -3.659 132.132  0.00  0.00    +0.000 C 
ENDBRANCH  21  27
BRANCH   2  30
ATOM     30  O   UNL     1      -4.887   0.383 127.103  0.00  0.00    +0.000 OA
ATOM     31  H   UNL     1      -5.396   1.075 126.655  0.00  0.00    +0.000 HD
ENDBRANCH   2  30
BRANCH   8  32
ATOM     32  O   UNL     1     -10.212  -0.505 122.704  0.00  0.00    +0.000 OA
ATOM     33  H   UNL     1      -9.719  -0.810 121.912  0.00  0.00    +0.000 HD
ENDBRANCH   8  32
BRANCH  15  34
ATOM     34  O   UNL     1      -8.670  -3.302 127.243  0.00  0.00    +0.000 OA
ATOM     35  H   UNL     1      -9.384  -3.101 126.578  0.00  0.00    +0.000 HD
ENDBRANCH  15  34
BRANCH  16  36
ATOM     36  O   UNL     1      -6.718  -3.663 128.516  0.00  0.00    +0.000 OA
ATOM     37  H   UNL     1      -5.853  -4.037 128.800  0.00  0.00    +0.000 HD
ENDBRANCH  16  36
BRANCH  20  38
ATOM     38  O   UNL     1      -2.890  -2.000 129.602  0.00  0.00    +0.000 OA
ATOM     39  H   UNL     1      -2.286  -2.733 129.848  0.00  0.00    +0.000 HD
ENDBRANCH  20  38
TORSDOF 7
ENDMDL
MODEL 7
REMARK VINA RESULT:      -7.7      3.254      6.954
REMARK  Name = Metacycline
REMARK  9 active torsions:
REMARK  status: ('A' for Active; 'I' for Inactive)
REMARK    1  A    between atoms: C_3  and  O_4
REMARK    2  A    between atoms: C_11  and  O_12
REMARK    3  A    between atoms: C_19  and  O_20
REMARK    4  A    between atoms: C_21  and  O_22
REMARK    5  A    between atoms: C_25  and  C_26
REMARK    6  A    between atoms: C_29  and  O_30
REMARK    7  A    between atoms: C_31  and  N_32
REMARK    8  A    between atoms: N_32  and  C_33
REMARK    9  A    between atoms: N_32  and  C_34
REMARK                            x       y       z     vdW  Elec       q    Type
REMARK                         _______ _______ _______ _____ _____    ______ ____
ROOT
ATOM      1  C   UNL     1      -8.389   1.907 129.195  0.00  0.00    +0.000 C 
ATOM      2  C   UNL     1      -7.788   0.428 128.401  0.00  0.00    +0.000 C 
ATOM      3  C   UNL     1      -8.372  -0.107 127.180  0.00  0.00    +0.000 C 
ATOM      4  C   UNL     1      -7.334  -1.067 126.632  0.00  0.00    +0.000 C 
ATOM      5  C   UNL     1      -6.072  -1.335 127.050  0.00  0.00    +0.000 C 
ATOM      6  C   UNL     1      -7.913  -1.699 125.482  0.00  0.00    +0.000 A 
ATOM      7  C   UNL     1      -8.733  -0.964 124.598  0.00  0.00    +0.000 A 
ATOM      8  C   UNL     1      -9.240  -1.622 123.498  0.00  0.00    +0.000 A 
ATOM      9  C   UNL     1      -8.958  -2.983 123.338  0.00  0.00    +0.000 A 
ATOM     10  C   UNL     1      -8.197  -3.697 124.272  0.00  0.00    +0.000 A 
ATOM     11  C   UNL     1      -7.683  -3.054 125.364  0.00  0.00    +0.000 A 
ATOM     12  C   UNL     1      -9.006   0.485 124.877  0.00  0.00    +0.000 C 
ATOM     13  O   UNL     1      -9.530   1.239 124.065  0.00  0.00    +0.000 OA
ATOM     14  C   UNL     1      -8.552   0.941 126.216  0.00  0.00    +0.000 C 
ATOM     15  C   UNL     1      -8.157   2.143 126.622  0.00  0.00    +0.000 C 
ATOM     16  C   UNL     1      -7.556   2.493 128.209  0.00  0.00    +0.000 C 
ATOM     17  C   UNL     1      -6.457   1.604 129.652  0.00  0.00    +0.000 C 
ATOM     18  O   UNL     1      -6.608   0.470 130.250  0.00  0.00    +0.000 OA
ATOM     19  C   UNL     1      -5.746   2.163 130.844  0.00  0.00    +0.000 C 
ATOM     20  C   UNL     1      -6.939   2.710 131.251  0.00  0.00    +0.000 C 
ATOM     21  C   UNL     1      -7.609   3.396 130.104  0.00  0.00    +0.000 C 
ENDROOT
BRANCH  19  22
ATOM     22  C   UNL     1      -4.333   2.283 130.265  0.00  0.00    +0.000 C 
ATOM     23  N   UNL     1      -4.085   1.544 129.140  0.00  0.00    +0.000 N 
ATOM     24  O   UNL     1      -3.458   2.994 130.743  0.00  0.00    +0.000 OA
ATOM     25  H   UNL     1      -4.951   1.319 128.678  0.00  0.00    +0.000 HD
ATOM     26  H   UNL     1      -3.461   1.994 128.487  0.00  0.00    +0.000 HD
ENDBRANCH  19  22
BRANCH  21  27
ATOM     27  N   UNL     1      -6.286   4.192 129.440  0.00  0.00    +0.000 NA
ATOM     28  C   UNL     1      -5.932   4.282 128.006  0.00  0.00    +0.000 C 
ATOM     29  C   UNL     1      -5.861   5.399 130.154  0.00  0.00    +0.000 C 
ENDBRANCH  21  27
BRANCH   2  30
ATOM     30  O   UNL     1      -7.875  -0.769 129.172  0.00  0.00    +0.000 OA
ATOM     31  H   UNL     1      -7.143  -0.672 129.799  0.00  0.00    +0.000 HD
ENDBRANCH   2  30
BRANCH   8  32
ATOM     32  O   UNL     1     -10.005  -1.014 122.547  0.00  0.00    +0.000 OA
ATOM     33  H   UNL     1     -10.710  -1.634 122.261  0.00  0.00    +0.000 HD
ENDBRANCH   8  32
BRANCH  15  34
ATOM     34  O   UNL     1      -8.535   3.240 125.795  0.00  0.00    +0.000 OA
ATOM     35  H   UNL     1      -8.774   4.011 126.378  0.00  0.00    +0.000 HD
ENDBRANCH  15  34
BRANCH  16  36
ATOM     36  O   UNL     1      -8.390   3.736 128.097  0.00  0.00    +0.000 OA
ATOM     37  H   UNL     1      -8.002   4.291 127.384  0.00  0.00    +0.000 HD
ENDBRANCH  16  36
BRANCH  20  38
ATOM     38  O   UNL     1      -7.902   2.022 132.024  0.00  0.00    +0.000 OA
ATOM     39  H   UNL     1      -8.809   2.298 131.772  0.00  0.00    +0.000 HD
ENDBRANCH  20  38
TORSDOF 7
ENDMDL
MODEL 8
REMARK VINA RESULT:      -7.6      2.664      3.083
REMARK  Name = Metacycline
REMARK  9 active torsions:
REMARK  status: ('A' for Active; 'I' for Inactive)
REMARK    1  A    between atoms: C_3  and  O_4
REMARK    2  A    between atoms: C_11  and  O_12
REMARK    3  A    between atoms: C_19  and  O_20
REMARK    4  A    between atoms: C_21  and  O_22
REMARK    5  A    between atoms: C_25  and  C_26
REMARK    6  A    between atoms: C_29  and  O_30
REMARK    7  A    between atoms: C_31  and  N_32
REMARK    8  A    between atoms: N_32  and  C_33
REMARK    9  A    between atoms: N_32  and  C_34
REMARK                            x       y       z     vdW  Elec       q    Type
REMARK                         _______ _______ _______ _____ _____    ______ ____
ROOT
ATOM      1  C   UNL     1      -5.650  -0.125 125.407  0.00  0.00    +0.000 C 
ATOM      2  C   UNL     1      -6.260  -1.392 126.503  0.00  0.00    +0.000 C 
ATOM      3  C   UNL     1      -5.537  -1.829 127.688  0.00  0.00    +0.000 C 
ATOM      4  C   UNL     1      -6.562  -2.563 128.530  0.00  0.00    +0.000 C 
ATOM      5  C   UNL     1      -7.897  -2.719 128.356  0.00  0.00    +0.000 C 
ATOM      6  C   UNL     1      -5.866  -3.103 129.662  0.00  0.00    +0.000 A 
ATOM      7  C   UNL     1      -4.834  -2.367 130.286  0.00  0.00    +0.000 A 
ATOM      8  C   UNL     1      -4.220  -2.930 131.384  0.00  0.00    +0.000 A 
ATOM      9  C   UNL     1      -4.613  -4.210 131.794  0.00  0.00    +0.000 A 
ATOM     10  C   UNL     1      -5.593  -4.939 131.109  0.00  0.00    +0.000 A 
ATOM     11  C   UNL     1      -6.215  -4.388 130.023  0.00  0.00    +0.000 A 
ATOM     12  C   UNL     1      -4.461  -1.018 129.747  0.00  0.00    +0.000 C 
ATOM     13  O   UNL     1      -3.730  -0.234 130.344  0.00  0.00    +0.000 OA
ATOM     14  C   UNL     1      -5.085  -0.691 128.439  0.00  0.00    +0.000 C 
ATOM     15  C   UNL     1      -5.414   0.485 127.917  0.00  0.00    +0.000 C 
ATOM     16  C   UNL     1      -6.236   0.692 126.407  0.00  0.00    +0.000 C 
ATOM     17  C   UNL     1      -7.653  -0.235 125.303  0.00  0.00    +0.000 C 
ATOM     18  O   UNL     1      -7.726  -1.449 124.872  0.00  0.00    +0.000 OA
ATOM     19  C   UNL     1      -8.492   0.246 124.162  0.00  0.00    +0.000 C 
ATOM     20  C   UNL     1      -7.335   0.573 123.498  0.00  0.00    +0.000 C 
ATOM     21  C   UNL     1      -6.411   1.315 124.409  0.00  0.00    +0.000 C 
ENDROOT
BRANCH  19  22
ATOM     22  C   UNL     1      -9.765   0.625 124.925  0.00  0.00    +0.000 C 
ATOM     23  N   UNL     1      -9.769   0.334 126.263  0.00  0.00    +0.000 N 
ATOM     24  O   UNL     1     -10.735   1.166 124.408  0.00  0.00    +0.000 OA
ATOM     25  H   UNL     1      -8.823   0.243 126.597  0.00  0.00    +0.000 HD
ATOM     26  H   UNL     1     -10.262   1.011 126.825  0.00  0.00    +0.000 HD
ENDBRANCH  19  22
BRANCH  21  27
ATOM     27  N   UNL     1      -7.511   2.359 125.136  0.00  0.00    +0.000 NA
ATOM     28  C   UNL     1      -7.533   2.777 126.555  0.00  0.00    +0.000 C 
ATOM     29  C   UNL     1      -8.018   3.429 124.275  0.00  0.00    +0.000 C 
ENDBRANCH  21  27
BRANCH   2  30
ATOM     30  O   UNL     1      -6.433  -2.684 125.922  0.00  0.00    +0.000 OA
ATOM     31  H   UNL     1      -7.199  -3.032 126.401  0.00  0.00    +0.000 HD
ENDBRANCH   2  30
BRANCH   8  32
ATOM     32  O   UNL     1      -3.244  -2.303 132.101  0.00  0.00    +0.000 OA
ATOM     33  H   UNL     1      -3.664  -1.675 132.728  0.00  0.00    +0.000 HD
ENDBRANCH   8  32
BRANCH  15  34
ATOM     34  O   UNL     1      -4.787   1.625 128.497  0.00  0.00    +0.000 OA
ATOM     35  H   UNL     1      -5.317   2.435 128.262  0.00  0.00    +0.000 HD
ENDBRANCH  15  34
BRANCH  16  36
ATOM     36  O   UNL     1      -5.268   1.819 126.196  0.00  0.00    +0.000 OA
ATOM     37  H   UNL     1      -4.533   1.704 126.839  0.00  0.00    +0.000 HD
ENDBRANCH  16  36
BRANCH  20  38
ATOM     38  O   UNL     1      -6.596  -0.332 122.703  0.00  0.00    +0.000 OA
ATOM     39  H   UNL     1      -6.069   0.149 122.030  0.00  0.00    +0.000 HD
ENDBRANCH  20  38
TORSDOF 7
ENDMDL
MODEL 9
REMARK VINA RESULT:      -7.5      5.986      7.938
REMARK  Name = Metacycline
REMARK  9 active torsions:
REMARK  status: ('A' for Active; 'I' for Inactive)
REMARK    1  A    between atoms: C_3  and  O_4
REMARK    2  A    between atoms: C_11  and  O_12
REMARK    3  A    between atoms: C_19  and  O_20
REMARK    4  A    between atoms: C_21  and  O_22
REMARK    5  A    between atoms: C_25  and  C_26
REMARK    6  A    between atoms: C_29  and  O_30
REMARK    7  A    between atoms: C_31  and  N_32
REMARK    8  A    between atoms: N_32  and  C_33
REMARK    9  A    between atoms: N_32  and  C_34
REMARK                            x       y       z     vdW  Elec       q    Type
REMARK                         _______ _______ _______ _____ _____    ______ ____
ROOT
ATOM      1  C   UNL     1      -8.357   3.274 133.851  0.00  0.00    +0.000 C 
ATOM      2  C   UNL     1      -6.742   2.681 133.385  0.00  0.00    +0.000 C 
ATOM      3  C   UNL     1      -6.382   1.271 133.398  0.00  0.00    +0.000 C 
ATOM      4  C   UNL     1      -5.128   1.174 132.552  0.00  0.00    +0.000 C 
ATOM      5  C   UNL     1      -4.487   2.113 131.813  0.00  0.00    +0.000 C 
ATOM      6  C   UNL     1      -4.678  -0.186 132.624  0.00  0.00    +0.000 A 
ATOM      7  C   UNL     1      -5.608  -1.249 132.635  0.00  0.00    +0.000 A 
ATOM      8  C   UNL     1      -5.111  -2.534 132.680  0.00  0.00    +0.000 A 
ATOM      9  C   UNL     1      -3.726  -2.719 132.761  0.00  0.00    +0.000 A 
ATOM     10  C   UNL     1      -2.837  -1.640 132.818  0.00  0.00    +0.000 A 
ATOM     11  C   UNL     1      -3.316  -0.360 132.766  0.00  0.00    +0.000 A 
ATOM     12  C   UNL     1      -7.076  -0.945 132.582  0.00  0.00    +0.000 C 
ATOM     13  O   UNL     1      -7.933  -1.798 132.381  0.00  0.00    +0.000 OA
ATOM     14  C   UNL     1      -7.405   0.494 132.757  0.00  0.00    +0.000 C 
ATOM     15  C   UNL     1      -8.432   1.199 132.296  0.00  0.00    +0.000 C 
ATOM     16  C   UNL     1      -8.621   2.908 132.507  0.00  0.00    +0.000 C 
ATOM     17  C   UNL     1      -7.472   4.569 132.596  0.00  0.00    +0.000 C 
ATOM     18  O   UNL     1      -6.463   4.857 133.346  0.00  0.00    +0.000 OA
ATOM     19  C   UNL     1      -7.814   6.019 132.459  0.00  0.00    +0.000 C 
ATOM     20  C   UNL     1      -8.721   5.863 133.478  0.00  0.00    +0.000 C 
ATOM     21  C   UNL     1      -9.550   4.640 133.247  0.00  0.00    +0.000 C 
ENDROOT
BRANCH  19  22
ATOM     22  C   UNL     1      -7.464   6.224 130.982  0.00  0.00    +0.000 C 
ATOM     23  N   UNL     1      -6.784   5.198 130.381  0.00  0.00    +0.000 N 
ATOM     24  O   UNL     1      -7.766   7.223 130.341  0.00  0.00    +0.000 OA
ATOM     25  H   UNL     1      -6.929   4.343 130.894  0.00  0.00    +0.000 HD
ATOM     26  H   UNL     1      -7.033   5.057 129.413  0.00  0.00    +0.000 HD
ENDBRANCH  19  22
BRANCH  21  27
ATOM     27  N   UNL     1      -9.866   4.820 131.606  0.00  0.00    +0.000 NA
ATOM     28  C   UNL     1      -9.866   3.754 130.580  0.00  0.00    +0.000 C 
ATOM     29  C   UNL     1     -10.841   5.860 131.270  0.00  0.00    +0.000 C 
ENDBRANCH  21  27
BRANCH   2  30
ATOM     30  O   UNL     1      -5.657   3.142 134.189  0.00  0.00    +0.000 OA
ATOM     31  H   UNL     1      -6.106   3.641 134.888  0.00  0.00    +0.000 HD
ENDBRANCH   2  30
BRANCH   8  32
ATOM     32  O   UNL     1      -5.902  -3.645 132.649  0.00  0.00    +0.000 OA
ATOM     33  H   UNL     1      -5.418  -4.367 132.192  0.00  0.00    +0.000 HD
ENDBRANCH   8  32
BRANCH  15  34
ATOM     34  O   UNL     1      -9.567   0.450 131.871  0.00  0.00    +0.000 OA
ATOM     35  H   UNL     1      -9.727   0.634 130.905  0.00  0.00    +0.000 HD
ENDBRANCH  15  34
BRANCH  16  36
ATOM     36  O   UNL     1     -10.059   2.573 132.772  0.00  0.00    +0.000 OA
ATOM     37  H   UNL     1     -10.446   2.239 131.932  0.00  0.00    +0.000 HD
ENDBRANCH  16  36
BRANCH  20  38
ATOM     38  O   UNL     1      -8.396   5.967 134.850  0.00  0.00    +0.000 OA
ATOM     39  H   UNL     1      -8.806   5.236 135.358  0.00  0.00    +0.000 HD
ENDBRANCH  20  38
TORSDOF 7
ENDMDL
