MODEL 1
REMARK VINA RESULT:      -7.1      0.000      0.000
REMARK  Name = Metamizole
REMARK  8 active torsions:
REMARK  status: ('A' for Active; 'I' for Inactive)
REMARK    1  A    between atoms: C_1  and  N_2
REMARK    2  A    between atoms: N_2  and  C_3
REMARK    3  A    between atoms: N_2  and  C_8
REMARK    4  A    between atoms: C_3  and  S_4
REMARK    5  A    between atoms: S_4  and  O_5
REMARK    6  A    between atoms: C_9  and  C_10
REMARK    7  A    between atoms: N_11  and  C_12
REMARK    8  A    between atoms: N_13  and  C_16
REMARK                            x       y       z     vdW  Elec       q    Type
REMARK                         _______ _______ _______ _____ _____    ______ ____
ROOT
ATOM      1  C   UNL     1     -10.206   5.561 130.426  0.00  0.00    +0.000 A 
ATOM      2  C   UNL     1      -8.887   5.751 130.723  0.00  0.00    +0.000 A 
ATOM      3  C   UNL     1      -8.198   7.085 130.864  0.00  0.00    +0.000 C 
ATOM      4  N   UNL     1      -8.227   4.532 131.008  0.00  0.00    +0.000 N 
ATOM      5  C   UNL     1      -6.846   4.210 131.353  0.00  0.00    +0.000 C 
ATOM      6  N   UNL     1      -9.169   3.497 130.860  0.00  0.00    +0.000 N 
ATOM      7  C   UNL     1     -10.358   4.041 130.411  0.00  0.00    +0.000 A 
ATOM      8  O   UNL     1     -11.378   3.453 130.082  0.00  0.00    +0.000 OA
ENDROOT
BRANCH   6   9
ATOM      9  C   UNL     1      -8.861   2.126 130.859  0.00  0.00    +0.000 A 
ATOM     10  C   UNL     1      -9.230   1.326 131.945  0.00  0.00    +0.000 A 
ATOM     11  C   UNL     1      -8.902  -0.029 131.971  0.00  0.00    +0.000 A 
ATOM     12  C   UNL     1      -8.276  -0.614 130.871  0.00  0.00    +0.000 A 
ATOM     13  C   UNL     1      -7.956   0.161 129.758  0.00  0.00    +0.000 A 
ATOM     14  C   UNL     1      -8.257   1.526 129.747  0.00  0.00    +0.000 A 
ENDBRANCH   6   9
BRANCH   1  16
ATOM     15  C   UNL     1     -12.106   6.809 131.400  0.00  0.00    +0.000 C 
ATOM     16  N   UNL     1     -11.344   6.368 130.222  0.00  0.00    +0.000 N 
BRANCH  16  17
ATOM     17  C   UNL     1     -11.939   6.643 128.875  0.00  0.00    +0.000 C 
BRANCH  17  18
ATOM     18  S   UNL     1     -10.871   7.190 127.440  0.00  0.00    +0.000 S 
ATOM     19  O   UNL     1     -10.735   8.628 127.441  0.00  0.00    +0.000 OA
ATOM     20  O   UNL     1      -9.698   6.338 127.345  0.00  0.00    +0.000 OA
BRANCH  18  21
ATOM     21  O   UNL     1     -11.838   6.780 126.199  0.00  0.00    +0.000 OA
ATOM     22  H   UNL     1     -12.550   7.428 126.025  0.00  0.00    +0.000 HD
ENDBRANCH  18  21
ENDBRANCH  17  18
ENDBRANCH  16  17
ENDBRANCH   1  16
TORSDOF 5
ENDMDL
MODEL 2
REMARK VINA RESULT:      -6.7      7.533      9.404
REMARK  Name = Metamizole
REMARK  8 active torsions:
REMARK  status: ('A' for Active; 'I' for Inactive)
REMARK    1  A    between atoms: C_1  and  N_2
REMARK    2  A    between atoms: N_2  and  C_3
REMARK    3  A    between atoms: N_2  and  C_8
REMARK    4  A    between atoms: C_3  and  S_4
REMARK    5  A    between atoms: S_4  and  O_5
REMARK    6  A    between atoms: C_9  and  C_10
REMARK    7  A    between atoms: N_11  and  C_12
REMARK    8  A    between atoms: N_13  and  C_16
REMARK                            x       y       z     vdW  Elec       q    Type
REMARK                         _______ _______ _______ _____ _____    ______ ____
ROOT
ATOM      1  C   UNL     1      -6.810   0.719 125.257  0.00  0.00    +0.000 A 
ATOM      2  C   UNL     1      -6.657   1.979 125.759  0.00  0.00    +0.000 A 
ATOM      3  C   UNL     1      -6.378   2.328 127.199  0.00  0.00    +0.000 C 
ATOM      4  N   UNL     1      -6.672   2.961 124.739  0.00  0.00    +0.000 N 
ATOM      5  C   UNL     1      -6.568   4.416 124.764  0.00  0.00    +0.000 C 
ATOM      6  N   UNL     1      -6.874   2.296 123.516  0.00  0.00    +0.000 N 
ATOM      7  C   UNL     1      -7.066   0.950 123.770  0.00  0.00    +0.000 A 
ATOM      8  O   UNL     1      -7.358   0.069 122.974  0.00  0.00    +0.000 OA
ENDROOT
BRANCH   6   9
ATOM      9  C   UNL     1      -7.150   2.931 122.293  0.00  0.00    +0.000 A 
ATOM     10  C   UNL     1      -6.103   3.279 121.435  0.00  0.00    +0.000 A 
ATOM     11  C   UNL     1      -6.361   3.939 120.234  0.00  0.00    +0.000 A 
ATOM     12  C   UNL     1      -7.678   4.181 119.841  0.00  0.00    +0.000 A 
ATOM     13  C   UNL     1      -8.732   3.785 120.662  0.00  0.00    +0.000 A 
ATOM     14  C   UNL     1      -8.470   3.152 121.880  0.00  0.00    +0.000 A 
ENDBRANCH   6   9
BRANCH   1  16
ATOM     15  C   UNL     1      -5.470  -1.341 125.537  0.00  0.00    +0.000 C 
ATOM     16  N   UNL     1      -6.725  -0.602 125.744  0.00  0.00    +0.000 N 
BRANCH  16  17
ATOM     17  C   UNL     1      -7.894  -1.369 126.282  0.00  0.00    +0.000 C 
BRANCH  17  18
ATOM     18  S   UNL     1      -8.890  -2.510 125.185  0.00  0.00    +0.000 S 
ATOM     19  O   UNL     1      -8.018  -3.466 124.542  0.00  0.00    +0.000 OA
ATOM     20  O   UNL     1     -10.082  -2.953 125.887  0.00  0.00    +0.000 OA
BRANCH  18  21
ATOM     21  O   UNL     1      -9.387  -1.451 124.056  0.00  0.00    +0.000 OA
ATOM     22  H   UNL     1      -9.162  -0.521 124.263  0.00  0.00    +0.000 HD
ENDBRANCH  18  21
ENDBRANCH  17  18
ENDBRANCH  16  17
ENDBRANCH   1  16
TORSDOF 5
ENDMDL
MODEL 3
REMARK VINA RESULT:      -6.7      6.399      7.440
REMARK  Name = Metamizole
REMARK  8 active torsions:
REMARK  status: ('A' for Active; 'I' for Inactive)
REMARK    1  A    between atoms: C_1  and  N_2
REMARK    2  A    between atoms: N_2  and  C_3
REMARK    3  A    between atoms: N_2  and  C_8
REMARK    4  A    between atoms: C_3  and  S_4
REMARK    5  A    between atoms: S_4  and  O_5
REMARK    6  A    between atoms: C_9  and  C_10
REMARK    7  A    between atoms: N_11  and  C_12
REMARK    8  A    between atoms: N_13  and  C_16
REMARK                            x       y       z     vdW  Elec       q    Type
REMARK                         _______ _______ _______ _____ _____    ______ ____
ROOT
ATOM      1  C   UNL     1      -8.386  -0.236 123.881  0.00  0.00    +0.000 A 
ATOM      2  C   UNL     1      -7.324  -1.073 123.696  0.00  0.00    +0.000 A 
ATOM      3  C   UNL     1      -6.481  -1.166 122.449  0.00  0.00    +0.000 C 
ATOM      4  N   UNL     1      -7.007  -1.795 124.871  0.00  0.00    +0.000 N 
ATOM      5  C   UNL     1      -5.996  -2.804 125.172  0.00  0.00    +0.000 C 
ATOM      6  N   UNL     1      -7.934  -1.420 125.860  0.00  0.00    +0.000 N 
ATOM      7  C   UNL     1      -8.856  -0.556 125.298  0.00  0.00    +0.000 A 
ATOM      8  O   UNL     1      -9.861  -0.088 125.815  0.00  0.00    +0.000 OA
ENDROOT
BRANCH   6   9
ATOM      9  C   UNL     1      -8.084  -2.057 127.104  0.00  0.00    +0.000 A 
ATOM     10  C   UNL     1      -8.728  -3.296 127.181  0.00  0.00    +0.000 A 
ATOM     11  C   UNL     1      -8.912  -3.922 128.413  0.00  0.00    +0.000 A 
ATOM     12  C   UNL     1      -8.377  -3.355 129.570  0.00  0.00    +0.000 A 
ATOM     13  C   UNL     1      -7.682  -2.150 129.496  0.00  0.00    +0.000 A 
ATOM     14  C   UNL     1      -7.526  -1.507 128.265  0.00  0.00    +0.000 A 
ENDBRANCH   6   9
BRANCH   1  16
ATOM     15  C   UNL     1     -10.225   0.454 122.377  0.00  0.00    +0.000 C 
ATOM     16  N   UNL     1      -9.027   0.793 123.160  0.00  0.00    +0.000 N 
BRANCH  16  17
ATOM     17  C   UNL     1      -8.454   2.166 122.982  0.00  0.00    +0.000 C 
BRANCH  17  18
ATOM     18  S   UNL     1      -7.805   3.139 124.442  0.00  0.00    +0.000 S 
ATOM     19  O   UNL     1      -8.897   3.780 125.136  0.00  0.00    +0.000 OA
ATOM     20  O   UNL     1      -6.831   2.344 125.171  0.00  0.00    +0.000 OA
BRANCH  18  21
ATOM     21  O   UNL     1      -6.966   4.291 123.659  0.00  0.00    +0.000 OA
ATOM     22  H   UNL     1      -6.327   4.767 124.227  0.00  0.00    +0.000 HD
ENDBRANCH  18  21
ENDBRANCH  17  18
ENDBRANCH  16  17
ENDBRANCH   1  16
TORSDOF 5
ENDMDL
MODEL 4
REMARK VINA RESULT:      -6.6      2.768      6.010
REMARK  Name = Metamizole
REMARK  8 active torsions:
REMARK  status: ('A' for Active; 'I' for Inactive)
REMARK    1  A    between atoms: C_1  and  N_2
REMARK    2  A    between atoms: N_2  and  C_3
REMARK    3  A    between atoms: N_2  and  C_8
REMARK    4  A    between atoms: C_3  and  S_4
REMARK    5  A    between atoms: S_4  and  O_5
REMARK    6  A    between atoms: C_9  and  C_10
REMARK    7  A    between atoms: N_11  and  C_12
REMARK    8  A    between atoms: N_13  and  C_16
REMARK                            x       y       z     vdW  Elec       q    Type
REMARK                         _______ _______ _______ _____ _____    ______ ____
ROOT
ATOM      1  C   UNL     1      -8.514   4.713 130.354  0.00  0.00    +0.000 A 
ATOM      2  C   UNL     1      -9.185   4.940 131.521  0.00  0.00    +0.000 A 
ATOM      3  C   UNL     1      -8.794   4.419 132.881  0.00  0.00    +0.000 C 
ATOM      4  N   UNL     1     -10.264   5.841 131.345  0.00  0.00    +0.000 N 
ATOM      5  C   UNL     1     -11.269   6.372 132.260  0.00  0.00    +0.000 C 
ATOM      6  N   UNL     1     -10.304   6.190 129.983  0.00  0.00    +0.000 N 
ATOM      7  C   UNL     1      -9.336   5.466 129.311  0.00  0.00    +0.000 A 
ATOM      8  O   UNL     1      -9.125   5.429 128.107  0.00  0.00    +0.000 OA
ENDROOT
BRANCH   6   9
ATOM      9  C   UNL     1     -11.347   6.903 129.368  0.00  0.00    +0.000 A 
ATOM     10  C   UNL     1     -12.532   6.247 129.022  0.00  0.00    +0.000 A 
ATOM     11  C   UNL     1     -13.561   6.936 128.380  0.00  0.00    +0.000 A 
ATOM     12  C   UNL     1     -13.447   8.308 128.156  0.00  0.00    +0.000 A 
ATOM     13  C   UNL     1     -12.294   8.983 128.550  0.00  0.00    +0.000 A 
ATOM     14  C   UNL     1     -11.250   8.286 129.164  0.00  0.00    +0.000 A 
ENDBRANCH   6   9
BRANCH   1  16
ATOM     15  C   UNL     1      -7.308   2.597 129.920  0.00  0.00    +0.000 C 
ATOM     16  N   UNL     1      -7.324   4.067 129.958  0.00  0.00    +0.000 N 
BRANCH  16  17
ATOM     17  C   UNL     1      -6.019   4.776 129.763  0.00  0.00    +0.000 C 
BRANCH  17  18
ATOM     18  S   UNL     1      -5.147   4.758 128.108  0.00  0.00    +0.000 S 
ATOM     19  O   UNL     1      -4.486   6.022 127.881  0.00  0.00    +0.000 OA
ATOM     20  O   UNL     1      -4.426   3.507 127.944  0.00  0.00    +0.000 OA
BRANCH  18  21
ATOM     21  O   UNL     1      -6.433   4.682 127.116  0.00  0.00    +0.000 OA
ATOM     22  H   UNL     1      -6.350   5.245 126.320  0.00  0.00    +0.000 HD
ENDBRANCH  18  21
ENDBRANCH  17  18
ENDBRANCH  16  17
ENDBRANCH   1  16
TORSDOF 5
ENDMDL
MODEL 5
REMARK VINA RESULT:      -6.5      2.963      6.144
REMARK  Name = Metamizole
REMARK  8 active torsions:
REMARK  status: ('A' for Active; 'I' for Inactive)
REMARK    1  A    between atoms: C_1  and  N_2
REMARK    2  A    between atoms: N_2  and  C_3
REMARK    3  A    between atoms: N_2  and  C_8
REMARK    4  A    between atoms: C_3  and  S_4
REMARK    5  A    between atoms: S_4  and  O_5
REMARK    6  A    between atoms: C_9  and  C_10
REMARK    7  A    between atoms: N_11  and  C_12
REMARK    8  A    between atoms: N_13  and  C_16
REMARK                            x       y       z     vdW  Elec       q    Type
REMARK                         _______ _______ _______ _____ _____    ______ ____
ROOT
ATOM      1  C   UNL     1      -8.655   4.872 130.546  0.00  0.00    +0.000 A 
ATOM      2  C   UNL     1      -9.384   5.089 131.679  0.00  0.00    +0.000 A 
ATOM      3  C   UNL     1      -9.035   4.595 133.060  0.00  0.00    +0.000 C 
ATOM      4  N   UNL     1     -10.482   5.951 131.446  0.00  0.00    +0.000 N 
ATOM      5  C   UNL     1     -11.544   6.458 132.310  0.00  0.00    +0.000 C 
ATOM      6  N   UNL     1     -10.474   6.285 130.080  0.00  0.00    +0.000 N 
ATOM      7  C   UNL     1      -9.455   5.587 129.459  0.00  0.00    +0.000 A 
ATOM      8  O   UNL     1      -9.189   5.545 128.266  0.00  0.00    +0.000 OA
ENDROOT
BRANCH   6   9
ATOM      9  C   UNL     1     -11.512   6.957 129.411  0.00  0.00    +0.000 A 
ATOM     10  C   UNL     1     -11.405   8.327 129.154  0.00  0.00    +0.000 A 
ATOM     11  C   UNL     1     -12.442   9.011 128.521  0.00  0.00    +0.000 A 
ATOM     12  C   UNL     1     -13.560   8.313 128.063  0.00  0.00    +0.000 A 
ATOM     13  C   UNL     1     -13.650   6.937 128.263  0.00  0.00    +0.000 A 
ATOM     14  C   UNL     1     -12.624   6.258 128.926  0.00  0.00    +0.000 A 
ENDBRANCH   6   9
BRANCH   1  16
ATOM     15  C   UNL     1      -7.329   2.798 130.299  0.00  0.00    +0.000 C 
ATOM     16  N   UNL     1      -7.428   4.263 130.209  0.00  0.00    +0.000 N 
BRANCH  16  17
ATOM     17  C   UNL     1      -6.163   5.024 129.955  0.00  0.00    +0.000 C 
BRANCH  17  18
ATOM     18  S   UNL     1      -5.671   6.469 131.036  0.00  0.00    +0.000 S 
ATOM     19  O   UNL     1      -5.982   6.185 132.417  0.00  0.00    +0.000 OA
ATOM     20  O   UNL     1      -4.349   6.940 130.658  0.00  0.00    +0.000 OA
BRANCH  18  21
ATOM     21  O   UNL     1      -6.726   7.587 130.506  0.00  0.00    +0.000 OA
ATOM     22  H   UNL     1      -6.501   7.956 129.628  0.00  0.00    +0.000 HD
ENDBRANCH  18  21
ENDBRANCH  17  18
ENDBRANCH  16  17
ENDBRANCH   1  16
TORSDOF 5
ENDMDL
MODEL 6
REMARK VINA RESULT:      -6.5      6.580      7.624
REMARK  Name = Metamizole
REMARK  8 active torsions:
REMARK  status: ('A' for Active; 'I' for Inactive)
REMARK    1  A    between atoms: C_1  and  N_2
REMARK    2  A    between atoms: N_2  and  C_3
REMARK    3  A    between atoms: N_2  and  C_8
REMARK    4  A    between atoms: C_3  and  S_4
REMARK    5  A    between atoms: S_4  and  O_5
REMARK    6  A    between atoms: C_9  and  C_10
REMARK    7  A    between atoms: N_11  and  C_12
REMARK    8  A    between atoms: N_13  and  C_16
REMARK                            x       y       z     vdW  Elec       q    Type
REMARK                         _______ _______ _______ _____ _____    ______ ____
ROOT
ATOM      1  C   UNL     1      -6.324   2.315 124.890  0.00  0.00    +0.000 A 
ATOM      2  C   UNL     1      -5.533   1.548 125.695  0.00  0.00    +0.000 A 
ATOM      3  C   UNL     1      -4.320   2.026 126.454  0.00  0.00    +0.000 C 
ATOM      4  N   UNL     1      -6.043   0.237 125.846  0.00  0.00    +0.000 N 
ATOM      5  C   UNL     1      -5.564  -0.935 126.572  0.00  0.00    +0.000 C 
ATOM      6  N   UNL     1      -7.215   0.148 125.073  0.00  0.00    +0.000 N 
ATOM      7  C   UNL     1      -7.386   1.339 124.390  0.00  0.00    +0.000 A 
ATOM      8  O   UNL     1      -8.235   1.611 123.553  0.00  0.00    +0.000 OA
ENDROOT
BRANCH   6   9
ATOM      9  C   UNL     1      -7.907  -1.043 124.797  0.00  0.00    +0.000 A 
ATOM     10  C   UNL     1      -7.653  -1.740 123.611  0.00  0.00    +0.000 A 
ATOM     11  C   UNL     1      -8.356  -2.906 123.310  0.00  0.00    +0.000 A 
ATOM     12  C   UNL     1      -9.260  -3.431 124.233  0.00  0.00    +0.000 A 
ATOM     13  C   UNL     1      -9.478  -2.777 125.444  0.00  0.00    +0.000 A 
ATOM     14  C   UNL     1      -8.796  -1.591 125.730  0.00  0.00    +0.000 A 
ENDBRANCH   6   9
BRANCH   1  16
ATOM     15  C   UNL     1      -7.421   4.515 125.171  0.00  0.00    +0.000 C 
ATOM     16  N   UNL     1      -6.408   3.673 124.517  0.00  0.00    +0.000 N 
BRANCH  16  17
ATOM     17  C   UNL     1      -5.665   4.265 123.358  0.00  0.00    +0.000 C 
BRANCH  17  18
ATOM     18  S   UNL     1      -6.109   3.822 121.596  0.00  0.00    +0.000 S 
ATOM     19  O   UNL     1      -5.738   4.895 120.705  0.00  0.00    +0.000 OA
ATOM     20  O   UNL     1      -5.704   2.455 121.315  0.00  0.00    +0.000 OA
BRANCH  18  21
ATOM     21  O   UNL     1      -7.731   3.807 121.712  0.00  0.00    +0.000 OA
ATOM     22  H   UNL     1      -8.130   4.699 121.756  0.00  0.00    +0.000 HD
ENDBRANCH  18  21
ENDBRANCH  17  18
ENDBRANCH  16  17
ENDBRANCH   1  16
TORSDOF 5
ENDMDL
MODEL 7
REMARK VINA RESULT:      -6.5      3.275      6.165
REMARK  Name = Metamizole
REMARK  8 active torsions:
REMARK  status: ('A' for Active; 'I' for Inactive)
REMARK    1  A    between atoms: C_1  and  N_2
REMARK    2  A    between atoms: N_2  and  C_3
REMARK    3  A    between atoms: N_2  and  C_8
REMARK    4  A    between atoms: C_3  and  S_4
REMARK    5  A    between atoms: S_4  and  O_5
REMARK    6  A    between atoms: C_9  and  C_10
REMARK    7  A    between atoms: N_11  and  C_12
REMARK    8  A    between atoms: N_13  and  C_16
REMARK                            x       y       z     vdW  Elec       q    Type
REMARK                         _______ _______ _______ _____ _____    ______ ____
ROOT
ATOM      1  C   UNL     1      -7.372   4.976 130.665  0.00  0.00    +0.000 A 
ATOM      2  C   UNL     1      -8.256   3.948 130.512  0.00  0.00    +0.000 A 
ATOM      3  C   UNL     1      -7.903   2.483 130.453  0.00  0.00    +0.000 C 
ATOM      4  N   UNL     1      -9.599   4.396 130.528  0.00  0.00    +0.000 N 
ATOM      5  C   UNL     1     -10.876   3.704 130.384  0.00  0.00    +0.000 C 
ATOM      6  N   UNL     1      -9.575   5.795 130.672  0.00  0.00    +0.000 N 
ATOM      7  C   UNL     1      -8.259   6.220 130.660  0.00  0.00    +0.000 A 
ATOM      8  O   UNL     1      -7.838   7.368 130.672  0.00  0.00    +0.000 OA
ENDROOT
BRANCH   6   9
ATOM      9  C   UNL     1     -10.692   6.636 130.531  0.00  0.00    +0.000 A 
ATOM     10  C   UNL     1     -11.638   6.718 131.557  0.00  0.00    +0.000 A 
ATOM     11  C   UNL     1     -12.768   7.524 131.416  0.00  0.00    +0.000 A 
ATOM     12  C   UNL     1     -12.918   8.319 130.280  0.00  0.00    +0.000 A 
ATOM     13  C   UNL     1     -11.951   8.289 129.277  0.00  0.00    +0.000 A 
ATOM     14  C   UNL     1     -10.835   7.458 129.406  0.00  0.00    +0.000 A 
ENDBRANCH   6   9
BRANCH   1  16
ATOM     15  C   UNL     1      -5.504   5.321 132.249  0.00  0.00    +0.000 C 
ATOM     16  N   UNL     1      -5.984   5.122 130.874  0.00  0.00    +0.000 N 
BRANCH  16  17
ATOM     17  C   UNL     1      -4.989   5.282 129.766  0.00  0.00    +0.000 C 
BRANCH  17  18
ATOM     18  S   UNL     1      -4.076   6.895 129.513  0.00  0.00    +0.000 S 
ATOM     19  O   UNL     1      -2.982   6.999 130.451  0.00  0.00    +0.000 OA
ATOM     20  O   UNL     1      -3.857   7.121 128.095  0.00  0.00    +0.000 OA
BRANCH  18  21
ATOM     21  O   UNL     1      -5.230   7.945 129.974  0.00  0.00    +0.000 OA
ATOM     22  H   UNL     1      -6.000   7.971 129.372  0.00  0.00    +0.000 HD
ENDBRANCH  18  21
ENDBRANCH  17  18
ENDBRANCH  16  17
ENDBRANCH   1  16
TORSDOF 5
ENDMDL
MODEL 8
REMARK VINA RESULT:      -6.4      3.067      6.526
REMARK  Name = Metamizole
REMARK  8 active torsions:
REMARK  status: ('A' for Active; 'I' for Inactive)
REMARK    1  A    between atoms: C_1  and  N_2
REMARK    2  A    between atoms: N_2  and  C_3
REMARK    3  A    between atoms: N_2  and  C_8
REMARK    4  A    between atoms: C_3  and  S_4
REMARK    5  A    between atoms: S_4  and  O_5
REMARK    6  A    between atoms: C_9  and  C_10
REMARK    7  A    between atoms: N_11  and  C_12
REMARK    8  A    between atoms: N_13  and  C_16
REMARK                            x       y       z     vdW  Elec       q    Type
REMARK                         _______ _______ _______ _____ _____    ______ ____
ROOT
ATOM      1  C   UNL     1      -8.668   3.935 130.922  0.00  0.00    +0.000 A 
ATOM      2  C   UNL     1      -9.353   4.430 131.994  0.00  0.00    +0.000 A 
ATOM      3  C   UNL     1      -9.180   3.996 133.428  0.00  0.00    +0.000 C 
ATOM      4  N   UNL     1     -10.193   5.511 131.634  0.00  0.00    +0.000 N 
ATOM      5  C   UNL     1     -11.119   6.342 132.396  0.00  0.00    +0.000 C 
ATOM      6  N   UNL     1     -10.061   5.704 130.246  0.00  0.00    +0.000 N 
ATOM      7  C   UNL     1      -9.231   4.720 129.739  0.00  0.00    +0.000 A 
ATOM      8  O   UNL     1      -8.949   4.503 128.569  0.00  0.00    +0.000 OA
ENDROOT
BRANCH   6   9
ATOM      9  C   UNL     1     -10.877   6.545 129.471  0.00  0.00    +0.000 A 
ATOM     10  C   UNL     1     -12.206   6.190 129.219  0.00  0.00    +0.000 A 
ATOM     11  C   UNL     1     -13.016   7.000 128.424  0.00  0.00    +0.000 A 
ATOM     12  C   UNL     1     -12.529   8.215 127.944  0.00  0.00    +0.000 A 
ATOM     13  C   UNL     1     -11.224   8.607 128.238  0.00  0.00    +0.000 A 
ATOM     14  C   UNL     1     -10.403   7.779 129.009  0.00  0.00    +0.000 A 
ENDBRANCH   6   9
BRANCH   1  16
ATOM     15  C   UNL     1      -6.269   3.537 130.466  0.00  0.00    +0.000 C 
ATOM     16  N   UNL     1      -7.623   3.014 130.701  0.00  0.00    +0.000 N 
BRANCH  16  17
ATOM     17  C   UNL     1      -7.839   1.545 130.497  0.00  0.00    +0.000 C 
BRANCH  17  18
ATOM     18  S   UNL     1      -8.526   0.469 131.864  0.00  0.00    +0.000 S 
ATOM     19  O   UNL     1      -7.735   0.624 133.063  0.00  0.00    +0.000 OA
ATOM     20  O   UNL     1      -9.972   0.596 131.912  0.00  0.00    +0.000 OA
BRANCH  18  21
ATOM     21  O   UNL     1      -8.213  -1.002 131.246  0.00  0.00    +0.000 OA
ATOM     22  H   UNL     1      -8.954  -1.378 130.731  0.00  0.00    +0.000 HD
ENDBRANCH  18  21
ENDBRANCH  17  18
ENDBRANCH  16  17
ENDBRANCH   1  16
TORSDOF 5
ENDMDL
MODEL 9
REMARK VINA RESULT:      -6.3      6.989      8.150
REMARK  Name = Metamizole
REMARK  8 active torsions:
REMARK  status: ('A' for Active; 'I' for Inactive)
REMARK    1  A    between atoms: C_1  and  N_2
REMARK    2  A    between atoms: N_2  and  C_3
REMARK    3  A    between atoms: N_2  and  C_8
REMARK    4  A    between atoms: C_3  and  S_4
REMARK    5  A    between atoms: S_4  and  O_5
REMARK    6  A    between atoms: C_9  and  C_10
REMARK    7  A    between atoms: N_11  and  C_12
REMARK    8  A    between atoms: N_13  and  C_16
REMARK                            x       y       z     vdW  Elec       q    Type
REMARK                         _______ _______ _______ _____ _____    ______ ____
ROOT
ATOM      1  C   UNL     1      -7.312  -1.544 125.386  0.00  0.00    +0.000 A 
ATOM      2  C   UNL     1      -8.090  -2.265 126.246  0.00  0.00    +0.000 A 
ATOM      3  C   UNL     1      -9.480  -2.775 125.961  0.00  0.00    +0.000 C 
ATOM      4  N   UNL     1      -7.397  -2.599 127.434  0.00  0.00    +0.000 N 
ATOM      5  C   UNL     1      -7.788  -3.325 128.638  0.00  0.00    +0.000 C 
ATOM      6  N   UNL     1      -6.110  -2.038 127.344  0.00  0.00    +0.000 N 
ATOM      7  C   UNL     1      -6.028  -1.302 126.176  0.00  0.00    +0.000 A 
ATOM      8  O   UNL     1      -5.104  -0.598 125.794  0.00  0.00    +0.000 OA
ENDROOT
BRANCH   6   9
ATOM      9  C   UNL     1      -5.187  -1.972 128.402  0.00  0.00    +0.000 A 
ATOM     10  C   UNL     1      -4.275  -3.013 128.599  0.00  0.00    +0.000 A 
ATOM     11  C   UNL     1      -3.376  -2.975 129.665  0.00  0.00    +0.000 A 
ATOM     12  C   UNL     1      -3.326  -1.855 130.494  0.00  0.00    +0.000 A 
ATOM     13  C   UNL     1      -4.191  -0.786 130.271  0.00  0.00    +0.000 A 
ATOM     14  C   UNL     1      -5.113  -0.839 129.222  0.00  0.00    +0.000 A 
ENDBRANCH   6   9
BRANCH   1  16
ATOM     15  C   UNL     1      -6.809  -1.916 122.993  0.00  0.00    +0.000 C 
ATOM     16  N   UNL     1      -7.398  -1.086 124.055  0.00  0.00    +0.000 N 
BRANCH  16  17
ATOM     17  C   UNL     1      -7.875   0.283 123.675  0.00  0.00    +0.000 C 
BRANCH  17  18
ATOM     18  S   UNL     1      -9.686   0.739 123.781  0.00  0.00    +0.000 S 
ATOM     19  O   UNL     1     -10.408   0.170 122.668  0.00  0.00    +0.000 OA
ATOM     20  O   UNL     1     -10.162   0.554 125.142  0.00  0.00    +0.000 OA
BRANCH  18  21
ATOM     21  O   UNL     1      -9.585   2.344 123.543  0.00  0.00    +0.000 OA
ATOM     22  H   UNL     1      -9.288   2.841 124.332  0.00  0.00    +0.000 HD
ENDBRANCH  18  21
ENDBRANCH  17  18
ENDBRANCH  16  17
ENDBRANCH   1  16
TORSDOF 5
ENDMDL
