MODEL 1
REMARK VINA RESULT:      -9.0      0.000      0.000
REMARK  Name = Metergoline
REMARK  7 active torsions:
REMARK  status: ('A' for Active; 'I' for Inactive)
REMARK    1  A    between atoms: N_6  and  C_7
REMARK    2  A    between atoms: C_17  and  C_18
REMARK    3  A    between atoms: C_18  and  N_19
REMARK    4  A    between atoms: C_20  and  O_22
REMARK    5  A    between atoms: O_22  and  C_23
REMARK    6  A    between atoms: C_23  and  C_24
REMARK    7  A    between atoms: N_31  and  C_32
REMARK                            x       y       z     vdW  Elec       q    Type
REMARK                         _______ _______ _______ _____ _____    ______ ____
ROOT
ATOM      1  C   UNL     1      -7.697  -1.762 127.211  0.00  0.00    +0.000 C 
ATOM      2  C   UNL     1      -8.301  -2.848 128.125  0.00  0.00    +0.000 C 
ATOM      3  C   UNL     1      -7.256  -2.916 129.074  0.00  0.00    +0.000 A 
ATOM      4  C   UNL     1      -6.774  -3.955 129.774  0.00  0.00    +0.000 A 
ATOM      5  N   UNL     1      -5.653  -3.477 130.377  0.00  0.00    +0.000 N 
ATOM      6  C   UNL     1      -4.878  -4.360 131.210  0.00  0.00    +0.000 C 
ATOM      7  C   UNL     1      -5.429  -2.138 130.041  0.00  0.00    +0.000 A 
ATOM      8  C   UNL     1      -4.428  -1.228 130.345  0.00  0.00    +0.000 A 
ATOM      9  C   UNL     1      -4.557   0.044 129.729  0.00  0.00    +0.000 A 
ATOM     10  C   UNL     1      -5.599   0.404 128.784  0.00  0.00    +0.000 A 
ATOM     11  C   UNL     1      -6.629  -0.506 128.419  0.00  0.00    +0.000 A 
ATOM     12  C   UNL     1      -6.468  -1.754 129.198  0.00  0.00    +0.000 A 
ATOM     13  C   UNL     1      -7.819  -0.323 127.006  0.00  0.00    +0.000 C 
ATOM     14  C   UNL     1      -9.105  -1.246 125.852  0.00  0.00    +0.000 C 
ATOM     15  C   UNL     1      -8.508  -2.168 124.655  0.00  0.00    +0.000 C 
ATOM     16  C   UNL     1      -7.283  -2.925 125.197  0.00  0.00    +0.000 C 
ATOM     17  N   UNL     1      -6.682  -2.020 126.138  0.00  0.00    +0.000 NA
ATOM     18  C   UNL     1      -6.066  -0.839 125.414  0.00  0.00    +0.000 C 
ENDROOT
BRANCH  15  19
ATOM     19  C   UNL     1      -8.246  -1.288 123.418  0.00  0.00    +0.000 C 
BRANCH  19  20
ATOM     20  N   UNL     1      -8.753   0.066 123.630  0.00  0.00    +0.000 N 
ATOM     21  C   UNL     1      -9.788   0.640 122.977  0.00  0.00    +0.000 C 
ATOM     22  O   UNL     1     -10.575   0.077 122.277  0.00  0.00    +0.000 OA
ATOM     23  H   UNL     1      -8.146   0.821 123.893  0.00  0.00    +0.000 HD
BRANCH  21  24
ATOM     24  O   UNL     1      -9.721   1.980 123.247  0.00  0.00    +0.000 OA
BRANCH  24  25
ATOM     25  C   UNL     1      -8.373   2.436 123.370  0.00  0.00    +0.000 C 
BRANCH  25  26
ATOM     26  C   UNL     1      -7.884   3.157 122.129  0.00  0.00    +0.000 A 
ATOM     27  C   UNL     1      -6.507   3.359 121.936  0.00  0.00    +0.000 A 
ATOM     28  C   UNL     1      -6.016   3.769 120.694  0.00  0.00    +0.000 A 
ATOM     29  C   UNL     1      -6.898   4.207 119.711  0.00  0.00    +0.000 A 
ATOM     30  C   UNL     1      -8.270   4.109 119.925  0.00  0.00    +0.000 A 
ATOM     31  C   UNL     1      -8.755   3.504 121.088  0.00  0.00    +0.000 A 
ENDBRANCH  25  26
ENDBRANCH  24  25
ENDBRANCH  21  24
ENDBRANCH  19  20
ENDBRANCH  15  19
TORSDOF 5
ENDMDL
MODEL 2
REMARK VINA RESULT:      -9.0      3.081      5.613
REMARK  Name = Metergoline
REMARK  7 active torsions:
REMARK  status: ('A' for Active; 'I' for Inactive)
REMARK    1  A    between atoms: N_6  and  C_7
REMARK    2  A    between atoms: C_17  and  C_18
REMARK    3  A    between atoms: C_18  and  N_19
REMARK    4  A    between atoms: C_20  and  O_22
REMARK    5  A    between atoms: O_22  and  C_23
REMARK    6  A    between atoms: C_23  and  C_24
REMARK    7  A    between atoms: N_31  and  C_32
REMARK                            x       y       z     vdW  Elec       q    Type
REMARK                         _______ _______ _______ _____ _____    ______ ____
ROOT
ATOM      1  C   UNL     1      -5.934   2.506 125.636  0.00  0.00    +0.000 C 
ATOM      2  C   UNL     1      -4.766   3.474 125.354  0.00  0.00    +0.000 C 
ATOM      3  C   UNL     1      -4.221   3.516 126.657  0.00  0.00    +0.000 A 
ATOM      4  C   UNL     1      -3.622   4.514 127.324  0.00  0.00    +0.000 A 
ATOM      5  N   UNL     1      -3.481   4.046 128.594  0.00  0.00    +0.000 N 
ATOM      6  C   UNL     1      -2.871   4.894 129.586  0.00  0.00    +0.000 C 
ATOM      7  C   UNL     1      -4.005   2.756 128.719  0.00  0.00    +0.000 A 
ATOM      8  C   UNL     1      -4.147   1.878 129.783  0.00  0.00    +0.000 A 
ATOM      9  C   UNL     1      -4.807   0.659 129.480  0.00  0.00    +0.000 A 
ATOM     10  C   UNL     1      -5.380   0.327 128.188  0.00  0.00    +0.000 A 
ATOM     11  C   UNL     1      -5.285   1.209 127.076  0.00  0.00    +0.000 A 
ATOM     12  C   UNL     1      -4.485   2.392 127.465  0.00  0.00    +0.000 A 
ATOM     13  C   UNL     1      -6.229   1.087 125.482  0.00  0.00    +0.000 C 
ATOM     14  C   UNL     1      -6.787   2.036 123.861  0.00  0.00    +0.000 C 
ATOM     15  C   UNL     1      -8.016   3.089 123.998  0.00  0.00    +0.000 C 
ATOM     16  C   UNL     1      -7.843   3.861 125.318  0.00  0.00    +0.000 C 
ATOM     17  N   UNL     1      -7.253   2.911 126.222  0.00  0.00    +0.000 NA
ATOM     18  C   UNL     1      -8.256   1.833 126.581  0.00  0.00    +0.000 C 
ENDROOT
BRANCH  15  19
ATOM     19  C   UNL     1      -9.351   2.336 123.845  0.00  0.00    +0.000 C 
BRANCH  19  20
ATOM     20  N   UNL     1      -9.129   0.993 123.313  0.00  0.00    +0.000 N 
ATOM     21  C   UNL     1     -10.081   0.153 122.850  0.00  0.00    +0.000 C 
ATOM     22  O   UNL     1     -11.216   0.440 122.613  0.00  0.00    +0.000 OA
ATOM     23  H   UNL     1      -8.392   0.405 123.656  0.00  0.00    +0.000 HD
BRANCH  21  24
ATOM     24  O   UNL     1      -9.495  -1.080 122.751  0.00  0.00    +0.000 OA
BRANCH  24  25
ATOM     25  C   UNL     1      -8.919  -1.501 123.989  0.00  0.00    +0.000 C 
BRANCH  25  26
ATOM     26  C   UNL     1      -7.540  -2.105 123.816  0.00  0.00    +0.000 A 
ATOM     27  C   UNL     1      -6.867  -1.968 122.591  0.00  0.00    +0.000 A 
ATOM     28  C   UNL     1      -5.506  -2.269 122.489  0.00  0.00    +0.000 A 
ATOM     29  C   UNL     1      -4.864  -2.929 123.532  0.00  0.00    +0.000 A 
ATOM     30  C   UNL     1      -5.548  -3.166 124.721  0.00  0.00    +0.000 A 
ATOM     31  C   UNL     1      -6.846  -2.676 124.891  0.00  0.00    +0.000 A 
ENDBRANCH  25  26
ENDBRANCH  24  25
ENDBRANCH  21  24
ENDBRANCH  19  20
ENDBRANCH  15  19
TORSDOF 5
ENDMDL
MODEL 3
REMARK VINA RESULT:      -8.8      1.743      3.417
REMARK  Name = Metergoline
REMARK  7 active torsions:
REMARK  status: ('A' for Active; 'I' for Inactive)
REMARK    1  A    between atoms: N_6  and  C_7
REMARK    2  A    between atoms: C_17  and  C_18
REMARK    3  A    between atoms: C_18  and  N_19
REMARK    4  A    between atoms: C_20  and  O_22
REMARK    5  A    between atoms: O_22  and  C_23
REMARK    6  A    between atoms: C_23  and  C_24
REMARK    7  A    between atoms: N_31  and  C_32
REMARK                            x       y       z     vdW  Elec       q    Type
REMARK                         _______ _______ _______ _____ _____    ______ ____
ROOT
ATOM      1  C   UNL     1      -6.708  -0.085 126.429  0.00  0.00    +0.000 C 
ATOM      2  C   UNL     1      -5.290  -0.514 126.861  0.00  0.00    +0.000 C 
ATOM      3  C   UNL     1      -5.651  -1.604 127.684  0.00  0.00    +0.000 A 
ATOM      4  C   UNL     1      -5.094  -2.073 128.811  0.00  0.00    +0.000 A 
ATOM      5  N   UNL     1      -5.971  -3.007 129.269  0.00  0.00    +0.000 N 
ATOM      6  C   UNL     1      -5.671  -3.706 130.491  0.00  0.00    +0.000 C 
ATOM      7  C   UNL     1      -7.084  -3.111 128.429  0.00  0.00    +0.000 A 
ATOM      8  C   UNL     1      -8.251  -3.859 128.471  0.00  0.00    +0.000 A 
ATOM      9  C   UNL     1      -9.171  -3.608 127.421  0.00  0.00    +0.000 A 
ATOM     10  C   UNL     1      -8.995  -2.603 126.388  0.00  0.00    +0.000 A 
ATOM     11  C   UNL     1      -7.829  -1.792 126.322  0.00  0.00    +0.000 A 
ATOM     12  C   UNL     1      -6.889  -2.209 127.387  0.00  0.00    +0.000 A 
ATOM     13  C   UNL     1      -7.597  -0.267 125.288  0.00  0.00    +0.000 C 
ATOM     14  C   UNL     1      -6.515   1.342 125.007  0.00  0.00    +0.000 C 
ATOM     15  C   UNL     1      -6.762   2.594 126.012  0.00  0.00    +0.000 C 
ATOM     16  C   UNL     1      -6.956   2.038 127.433  0.00  0.00    +0.000 C 
ATOM     17  N   UNL     1      -7.622   0.778 127.246  0.00  0.00    +0.000 NA
ATOM     18  C   UNL     1      -9.043   1.000 126.765  0.00  0.00    +0.000 C 
ENDROOT
BRANCH  15  19
ATOM     19  C   UNL     1      -7.923   3.454 125.476  0.00  0.00    +0.000 C 
BRANCH  19  20
ATOM     20  N   UNL     1      -7.957   3.424 124.015  0.00  0.00    +0.000 N 
ATOM     21  C   UNL     1      -8.810   2.704 123.254  0.00  0.00    +0.000 C 
ATOM     22  O   UNL     1      -9.791   2.142 123.638  0.00  0.00    +0.000 OA
ATOM     23  H   UNL     1      -7.124   3.527 123.467  0.00  0.00    +0.000 HD
BRANCH  21  24
ATOM     24  O   UNL     1      -8.302   2.720 121.983  0.00  0.00    +0.000 OA
BRANCH  24  25
ATOM     25  C   UNL     1      -6.901   2.998 121.968  0.00  0.00    +0.000 C 
BRANCH  25  26
ATOM     26  C   UNL     1      -6.487   3.854 120.789  0.00  0.00    +0.000 A 
ATOM     27  C   UNL     1      -7.318   3.933 119.659  0.00  0.00    +0.000 A 
ATOM     28  C   UNL     1      -7.103   4.912 118.685  0.00  0.00    +0.000 A 
ATOM     29  C   UNL     1      -5.930   5.661 118.704  0.00  0.00    +0.000 A 
ATOM     30  C   UNL     1      -5.042   5.522 119.767  0.00  0.00    +0.000 A 
ATOM     31  C   UNL     1      -5.365   4.691 120.844  0.00  0.00    +0.000 A 
ENDBRANCH  25  26
ENDBRANCH  24  25
ENDBRANCH  21  24
ENDBRANCH  19  20
ENDBRANCH  15  19
TORSDOF 5
ENDMDL
MODEL 4
REMARK VINA RESULT:      -8.7      7.493      9.315
REMARK  Name = Metergoline
REMARK  7 active torsions:
REMARK  status: ('A' for Active; 'I' for Inactive)
REMARK    1  A    between atoms: N_6  and  C_7
REMARK    2  A    between atoms: C_17  and  C_18
REMARK    3  A    between atoms: C_18  and  N_19
REMARK    4  A    between atoms: C_20  and  O_22
REMARK    5  A    between atoms: O_22  and  C_23
REMARK    6  A    between atoms: C_23  and  C_24
REMARK    7  A    between atoms: N_31  and  C_32
REMARK                            x       y       z     vdW  Elec       q    Type
REMARK                         _______ _______ _______ _____ _____    ______ ____
ROOT
ATOM      1  C   UNL     1      -6.652   5.022 133.222  0.00  0.00    +0.000 C 
ATOM      2  C   UNL     1      -6.158   5.378 134.640  0.00  0.00    +0.000 C 
ATOM      3  C   UNL     1      -4.927   5.971 134.279  0.00  0.00    +0.000 A 
ATOM      4  C   UNL     1      -3.740   5.975 134.907  0.00  0.00    +0.000 A 
ATOM      5  N   UNL     1      -2.877   6.527 134.011  0.00  0.00    +0.000 N 
ATOM      6  C   UNL     1      -1.491   6.671 134.375  0.00  0.00    +0.000 C 
ATOM      7  C   UNL     1      -3.527   6.856 132.818  0.00  0.00    +0.000 A 
ATOM      8  C   UNL     1      -3.102   7.384 131.608  0.00  0.00    +0.000 A 
ATOM      9  C   UNL     1      -4.106   7.504 130.612  0.00  0.00    +0.000 A 
ATOM     10  C   UNL     1      -5.478   7.056 130.762  0.00  0.00    +0.000 A 
ATOM     11  C   UNL     1      -5.952   6.481 131.973  0.00  0.00    +0.000 A 
ATOM     12  C   UNL     1      -4.865   6.507 132.977  0.00  0.00    +0.000 A 
ATOM     13  C   UNL     1      -7.553   5.572 132.216  0.00  0.00    +0.000 C 
ATOM     14  C   UNL     1      -8.559   4.362 133.382  0.00  0.00    +0.000 C 
ATOM     15  C   UNL     1      -8.180   2.783 133.326  0.00  0.00    +0.000 C 
ATOM     16  C   UNL     1      -6.649   2.660 133.230  0.00  0.00    +0.000 C 
ATOM     17  N   UNL     1      -6.238   3.801 132.457  0.00  0.00    +0.000 NA
ATOM     18  C   UNL     1      -6.688   3.651 131.017  0.00  0.00    +0.000 C 
ENDROOT
BRANCH  15  19
ATOM     19  C   UNL     1      -8.968   2.111 132.186  0.00  0.00    +0.000 C 
BRANCH  19  20
ATOM     20  N   UNL     1     -10.111   2.933 131.793  0.00  0.00    +0.000 N 
ATOM     21  C   UNL     1     -10.359   3.408 130.552  0.00  0.00    +0.000 C 
ATOM     22  O   UNL     1      -9.807   3.072 129.548  0.00  0.00    +0.000 OA
ATOM     23  H   UNL     1     -10.529   3.590 132.424  0.00  0.00    +0.000 HD
BRANCH  21  24
ATOM     24  O   UNL     1     -11.327   4.365 130.691  0.00  0.00    +0.000 OA
BRANCH  24  25
ATOM     25  C   UNL     1     -10.771   5.668 130.878  0.00  0.00    +0.000 C 
BRANCH  25  26
ATOM     26  C   UNL     1     -11.260   6.666 129.846  0.00  0.00    +0.000 A 
ATOM     27  C   UNL     1     -10.366   7.606 129.307  0.00  0.00    +0.000 A 
ATOM     28  C   UNL     1     -10.712   8.347 128.174  0.00  0.00    +0.000 A 
ATOM     29  C   UNL     1     -12.025   8.333 127.712  0.00  0.00    +0.000 A 
ATOM     30  C   UNL     1     -12.953   7.480 128.303  0.00  0.00    +0.000 A 
ATOM     31  C   UNL     1     -12.548   6.589 129.301  0.00  0.00    +0.000 A 
ENDBRANCH  25  26
ENDBRANCH  24  25
ENDBRANCH  21  24
ENDBRANCH  19  20
ENDBRANCH  15  19
TORSDOF 5
ENDMDL
MODEL 5
REMARK VINA RESULT:      -8.6      6.247      7.772
REMARK  Name = Metergoline
REMARK  7 active torsions:
REMARK  status: ('A' for Active; 'I' for Inactive)
REMARK    1  A    between atoms: N_6  and  C_7
REMARK    2  A    between atoms: C_17  and  C_18
REMARK    3  A    between atoms: C_18  and  N_19
REMARK    4  A    between atoms: C_20  and  O_22
REMARK    5  A    between atoms: O_22  and  C_23
REMARK    6  A    between atoms: C_23  and  C_24
REMARK    7  A    between atoms: N_31  and  C_32
REMARK                            x       y       z     vdW  Elec       q    Type
REMARK                         _______ _______ _______ _____ _____    ______ ____
ROOT
ATOM      1  C   UNL     1      -8.026   0.597 130.829  0.00  0.00    +0.000 C 
ATOM      2  C   UNL     1      -7.834   0.264 129.334  0.00  0.00    +0.000 C 
ATOM      3  C   UNL     1      -6.997  -0.864 129.486  0.00  0.00    +0.000 A 
ATOM      4  C   UNL     1      -5.984  -1.312 128.727  0.00  0.00    +0.000 A 
ATOM      5  N   UNL     1      -5.424  -2.315 129.455  0.00  0.00    +0.000 N 
ATOM      6  C   UNL     1      -4.284  -3.013 128.918  0.00  0.00    +0.000 C 
ATOM      7  C   UNL     1      -6.082  -2.483 130.676  0.00  0.00    +0.000 A 
ATOM      8  C   UNL     1      -5.879  -3.315 131.768  0.00  0.00    +0.000 A 
ATOM      9  C   UNL     1      -6.766  -3.111 132.858  0.00  0.00    +0.000 A 
ATOM     10  C   UNL     1      -7.783  -2.078 132.916  0.00  0.00    +0.000 A 
ATOM     11  C   UNL     1      -8.007  -1.183 131.833  0.00  0.00    +0.000 A 
ATOM     12  C   UNL     1      -7.114  -1.551 130.711  0.00  0.00    +0.000 A 
ATOM     13  C   UNL     1      -9.020   0.373 131.872  0.00  0.00    +0.000 C 
ATOM     14  C   UNL     1      -9.419   2.060 130.961  0.00  0.00    +0.000 C 
ATOM     15  C   UNL     1      -8.351   3.272 131.131  0.00  0.00    +0.000 C 
ATOM     16  C   UNL     1      -6.934   2.679 131.060  0.00  0.00    +0.000 C 
ATOM     17  N   UNL     1      -7.052   1.377 131.659  0.00  0.00    +0.000 NA
ATOM     18  C   UNL     1      -7.298   1.504 133.150  0.00  0.00    +0.000 C 
ENDROOT
BRANCH  15  19
ATOM     19  C   UNL     1      -8.674   4.056 132.418  0.00  0.00    +0.000 C 
BRANCH  19  20
ATOM     20  N   UNL     1      -9.826   4.932 132.215  0.00  0.00    +0.000 N 
ATOM     21  C   UNL     1      -9.781   6.245 131.896  0.00  0.00    +0.000 C 
ATOM     22  O   UNL     1      -8.815   6.846 131.532  0.00  0.00    +0.000 OA
ATOM     23  H   UNL     1     -10.680   4.806 132.726  0.00  0.00    +0.000 HD
BRANCH  21  24
ATOM     24  O   UNL     1     -11.039   6.739 132.112  0.00  0.00    +0.000 OA
BRANCH  24  25
ATOM     25  C   UNL     1     -12.011   6.119 131.268  0.00  0.00    +0.000 C 
BRANCH  25  26
ATOM     26  C   UNL     1     -12.587   7.072 130.241  0.00  0.00    +0.000 A 
ATOM     27  C   UNL     1     -12.574   8.455 130.488  0.00  0.00    +0.000 A 
ATOM     28  C   UNL     1     -12.843   9.364 129.461  0.00  0.00    +0.000 A 
ATOM     29  C   UNL     1     -13.355   8.908 128.250  0.00  0.00    +0.000 A 
ATOM     30  C   UNL     1     -13.471   7.539 128.025  0.00  0.00    +0.000 A 
ATOM     31  C   UNL     1     -13.005   6.630 128.979  0.00  0.00    +0.000 A 
ENDBRANCH  25  26
ENDBRANCH  24  25
ENDBRANCH  21  24
ENDBRANCH  19  20
ENDBRANCH  15  19
TORSDOF 5
ENDMDL
MODEL 6
REMARK VINA RESULT:      -8.5      3.536      6.839
REMARK  Name = Metergoline
REMARK  7 active torsions:
REMARK  status: ('A' for Active; 'I' for Inactive)
REMARK    1  A    between atoms: N_6  and  C_7
REMARK    2  A    between atoms: C_17  and  C_18
REMARK    3  A    between atoms: C_18  and  N_19
REMARK    4  A    between atoms: C_20  and  O_22
REMARK    5  A    between atoms: O_22  and  C_23
REMARK    6  A    between atoms: C_23  and  C_24
REMARK    7  A    between atoms: N_31  and  C_32
REMARK                            x       y       z     vdW  Elec       q    Type
REMARK                         _______ _______ _______ _____ _____    ______ ____
ROOT
ATOM      1  C   UNL     1      -5.232   3.085 126.618  0.00  0.00    +0.000 C 
ATOM      2  C   UNL     1      -3.981   3.841 126.123  0.00  0.00    +0.000 C 
ATOM      3  C   UNL     1      -3.475   4.236 127.381  0.00  0.00    +0.000 A 
ATOM      4  C   UNL     1      -2.817   5.346 127.752  0.00  0.00    +0.000 A 
ATOM      5  N   UNL     1      -2.753   5.274 129.109  0.00  0.00    +0.000 N 
ATOM      6  C   UNL     1      -2.107   6.337 129.834  0.00  0.00    +0.000 C 
ATOM      7  C   UNL     1      -3.384   4.121 129.585  0.00  0.00    +0.000 A 
ATOM      8  C   UNL     1      -3.629   3.616 130.854  0.00  0.00    +0.000 A 
ATOM      9  C   UNL     1      -4.378   2.411 130.893  0.00  0.00    +0.000 A 
ATOM     10  C   UNL     1      -4.936   1.745 129.730  0.00  0.00    +0.000 A 
ATOM     11  C   UNL     1      -4.736   2.241 128.413  0.00  0.00    +0.000 A 
ATOM     12  C   UNL     1      -3.854   3.429 128.473  0.00  0.00    +0.000 A 
ATOM     13  C   UNL     1      -5.637   1.709 126.879  0.00  0.00    +0.000 C 
ATOM     14  C   UNL     1      -6.066   2.161 125.022  0.00  0.00    +0.000 C 
ATOM     15  C   UNL     1      -7.209   3.289 124.772  0.00  0.00    +0.000 C 
ATOM     16  C   UNL     1      -7.014   4.409 125.809  0.00  0.00    +0.000 C 
ATOM     17  N   UNL     1      -6.531   3.738 126.985  0.00  0.00    +0.000 NA
ATOM     18  C   UNL     1      -7.630   2.889 127.596  0.00  0.00    +0.000 C 
ENDROOT
BRANCH  15  19
ATOM     19  C   UNL     1      -8.595   2.617 124.779  0.00  0.00    +0.000 C 
BRANCH  19  20
ATOM     20  N   UNL     1      -8.488   1.204 124.425  0.00  0.00    +0.000 N 
ATOM     21  C   UNL     1      -9.211   0.193 124.956  0.00  0.00    +0.000 C 
ATOM     22  O   UNL     1     -10.181   0.309 125.643  0.00  0.00    +0.000 OA
ATOM     23  H   UNL     1      -7.615   0.796 124.145  0.00  0.00    +0.000 HD
BRANCH  21  24
ATOM     24  O   UNL     1      -8.586  -0.967 124.585  0.00  0.00    +0.000 OA
BRANCH  24  25
ATOM     25  C   UNL     1      -7.424  -1.227 125.374  0.00  0.00    +0.000 C 
BRANCH  25  26
ATOM     26  C   UNL     1      -7.729  -2.051 126.610  0.00  0.00    +0.000 A 
ATOM     27  C   UNL     1      -7.262  -1.626 127.864  0.00  0.00    +0.000 A 
ATOM     28  C   UNL     1      -7.750  -2.206 129.038  0.00  0.00    +0.000 A 
ATOM     29  C   UNL     1      -8.521  -3.363 128.971  0.00  0.00    +0.000 A 
ATOM     30  C   UNL     1      -8.910  -3.858 127.729  0.00  0.00    +0.000 A 
ATOM     31  C   UNL     1      -8.592  -3.154 126.564  0.00  0.00    +0.000 A 
ENDBRANCH  25  26
ENDBRANCH  24  25
ENDBRANCH  21  24
ENDBRANCH  19  20
ENDBRANCH  15  19
TORSDOF 5
ENDMDL
MODEL 7
REMARK VINA RESULT:      -8.5      6.852      9.127
REMARK  Name = Metergoline
REMARK  7 active torsions:
REMARK  status: ('A' for Active; 'I' for Inactive)
REMARK    1  A    between atoms: N_6  and  C_7
REMARK    2  A    between atoms: C_17  and  C_18
REMARK    3  A    between atoms: C_18  and  N_19
REMARK    4  A    between atoms: C_20  and  O_22
REMARK    5  A    between atoms: O_22  and  C_23
REMARK    6  A    between atoms: C_23  and  C_24
REMARK    7  A    between atoms: N_31  and  C_32
REMARK                            x       y       z     vdW  Elec       q    Type
REMARK                         _______ _______ _______ _____ _____    ______ ____
ROOT
ATOM      1  C   UNL     1      -5.454   5.059 129.984  0.00  0.00    +0.000 C 
ATOM      2  C   UNL     1      -4.335   5.915 129.354  0.00  0.00    +0.000 C 
ATOM      3  C   UNL     1      -3.875   4.975 128.405  0.00  0.00    +0.000 A 
ATOM      4  C   UNL     1      -2.641   4.740 127.932  0.00  0.00    +0.000 A 
ATOM      5  N   UNL     1      -2.762   3.602 127.196  0.00  0.00    +0.000 N 
ATOM      6  C   UNL     1      -1.595   3.063 126.548  0.00  0.00    +0.000 C 
ATOM      7  C   UNL     1      -4.075   3.121 127.222  0.00  0.00    +0.000 A 
ATOM      8  C   UNL     1      -4.696   2.002 126.687  0.00  0.00    +0.000 A 
ATOM      9  C   UNL     1      -6.070   1.857 127.013  0.00  0.00    +0.000 A 
ATOM     10  C   UNL     1      -6.809   2.742 127.895  0.00  0.00    +0.000 A 
ATOM     11  C   UNL     1      -6.206   3.884 128.490  0.00  0.00    +0.000 A 
ATOM     12  C   UNL     1      -4.815   4.007 127.998  0.00  0.00    +0.000 A 
ATOM     13  C   UNL     1      -6.900   4.910 129.873  0.00  0.00    +0.000 C 
ATOM     14  C   UNL     1      -6.498   6.245 131.250  0.00  0.00    +0.000 C 
ATOM     15  C   UNL     1      -5.751   5.728 132.596  0.00  0.00    +0.000 C 
ATOM     16  C   UNL     1      -4.680   4.701 132.187  0.00  0.00    +0.000 C 
ATOM     17  N   UNL     1      -5.239   4.025 131.048  0.00  0.00    +0.000 NA
ATOM     18  C   UNL     1      -6.407   3.156 131.471  0.00  0.00    +0.000 C 
ENDROOT
BRANCH  15  19
ATOM     19  C   UNL     1      -6.804   5.219 133.598  0.00  0.00    +0.000 C 
BRANCH  19  20
ATOM     20  N   UNL     1      -8.061   5.948 133.444  0.00  0.00    +0.000 N 
ATOM     21  C   UNL     1      -9.224   5.439 132.982  0.00  0.00    +0.000 C 
ATOM     22  O   UNL     1      -9.469   4.281 132.820  0.00  0.00    +0.000 OA
ATOM     23  H   UNL     1      -8.078   6.923 133.209  0.00  0.00    +0.000 HD
BRANCH  21  24
ATOM     24  O   UNL     1     -10.032   6.509 132.706  0.00  0.00    +0.000 OA
BRANCH  24  25
ATOM     25  C   UNL     1     -11.109   6.157 131.834  0.00  0.00    +0.000 C 
BRANCH  25  26
ATOM     26  C   UNL     1     -11.273   7.131 130.685  0.00  0.00    +0.000 A 
ATOM     27  C   UNL     1     -10.203   7.353 129.801  0.00  0.00    +0.000 A 
ATOM     28  C   UNL     1     -10.407   8.025 128.593  0.00  0.00    +0.000 A 
ATOM     29  C   UNL     1     -11.612   8.683 128.362  0.00  0.00    +0.000 A 
ATOM     30  C   UNL     1     -12.651   8.557 129.279  0.00  0.00    +0.000 A 
ATOM     31  C   UNL     1     -12.511   7.714 130.384  0.00  0.00    +0.000 A 
ENDBRANCH  25  26
ENDBRANCH  24  25
ENDBRANCH  21  24
ENDBRANCH  19  20
ENDBRANCH  15  19
TORSDOF 5
ENDMDL
MODEL 8
REMARK VINA RESULT:      -8.5      6.509      8.132
REMARK  Name = Metergoline
REMARK  7 active torsions:
REMARK  status: ('A' for Active; 'I' for Inactive)
REMARK    1  A    between atoms: N_6  and  C_7
REMARK    2  A    between atoms: C_17  and  C_18
REMARK    3  A    between atoms: C_18  and  N_19
REMARK    4  A    between atoms: C_20  and  O_22
REMARK    5  A    between atoms: O_22  and  C_23
REMARK    6  A    between atoms: C_23  and  C_24
REMARK    7  A    between atoms: N_31  and  C_32
REMARK                            x       y       z     vdW  Elec       q    Type
REMARK                         _______ _______ _______ _____ _____    ______ ____
ROOT
ATOM      1  C   UNL     1      -7.075   1.586 132.394  0.00  0.00    +0.000 C 
ATOM      2  C   UNL     1      -7.265   0.159 132.949  0.00  0.00    +0.000 C 
ATOM      3  C   UNL     1      -6.999  -0.555 131.760  0.00  0.00    +0.000 A 
ATOM      4  C   UNL     1      -7.515  -1.704 131.294  0.00  0.00    +0.000 A 
ATOM      5  N   UNL     1      -7.037  -1.808 130.024  0.00  0.00    +0.000 N 
ATOM      6  C   UNL     1      -7.419  -2.945 129.227  0.00  0.00    +0.000 C 
ATOM      7  C   UNL     1      -6.231  -0.714 129.695  0.00  0.00    +0.000 A 
ATOM      8  C   UNL     1      -5.561  -0.329 128.543  0.00  0.00    +0.000 A 
ATOM      9  C   UNL     1      -4.891   0.919 128.620  0.00  0.00    +0.000 A 
ATOM     10  C   UNL     1      -4.926   1.808 129.767  0.00  0.00    +0.000 A 
ATOM     11  C   UNL     1      -5.624   1.469 130.959  0.00  0.00    +0.000 A 
ATOM     12  C   UNL     1      -6.189   0.108 130.817  0.00  0.00    +0.000 A 
ATOM     13  C   UNL     1      -6.038   2.611 132.364  0.00  0.00    +0.000 C 
ATOM     14  C   UNL     1      -7.147   2.870 133.957  0.00  0.00    +0.000 C 
ATOM     15  C   UNL     1      -8.695   3.305 133.728  0.00  0.00    +0.000 C 
ATOM     16  C   UNL     1      -9.245   2.509 132.532  0.00  0.00    +0.000 C 
ATOM     17  N   UNL     1      -8.122   2.356 131.647  0.00  0.00    +0.000 NA
ATOM     18  C   UNL     1      -7.751   3.690 131.032  0.00  0.00    +0.000 C 
ENDROOT
BRANCH  15  19
ATOM     19  C   UNL     1      -8.779   4.837 133.594  0.00  0.00    +0.000 C 
BRANCH  19  20
ATOM     20  N   UNL     1     -10.041   5.235 132.975  0.00  0.00    +0.000 N 
ATOM     21  C   UNL     1     -10.209   6.239 132.086  0.00  0.00    +0.000 C 
ATOM     22  O   UNL     1      -9.339   6.825 131.515  0.00  0.00    +0.000 OA
ATOM     23  H   UNL     1     -10.915   5.151 133.460  0.00  0.00    +0.000 HD
BRANCH  21  24
ATOM     24  O   UNL     1     -11.557   6.467 132.010  0.00  0.00    +0.000 OA
BRANCH  24  25
ATOM     25  C   UNL     1     -12.118   5.966 130.796  0.00  0.00    +0.000 C 
BRANCH  25  26
ATOM     26  C   UNL     1     -12.707   7.061 129.929  0.00  0.00    +0.000 A 
ATOM     27  C   UNL     1     -12.648   8.398 130.358  0.00  0.00    +0.000 A 
ATOM     28  C   UNL     1     -12.931   9.442 129.473  0.00  0.00    +0.000 A 
ATOM     29  C   UNL     1     -13.499   9.163 128.233  0.00  0.00    +0.000 A 
ATOM     30  C   UNL     1     -13.660   7.840 127.832  0.00  0.00    +0.000 A 
ATOM     31  C   UNL     1     -13.183   6.802 128.637  0.00  0.00    +0.000 A 
ENDBRANCH  25  26
ENDBRANCH  24  25
ENDBRANCH  21  24
ENDBRANCH  19  20
ENDBRANCH  15  19
TORSDOF 5
ENDMDL
MODEL 9
REMARK VINA RESULT:      -8.3      2.871      4.531
REMARK  Name = Metergoline
REMARK  7 active torsions:
REMARK  status: ('A' for Active; 'I' for Inactive)
REMARK    1  A    between atoms: N_6  and  C_7
REMARK    2  A    between atoms: C_17  and  C_18
REMARK    3  A    between atoms: C_18  and  N_19
REMARK    4  A    between atoms: C_20  and  O_22
REMARK    5  A    between atoms: O_22  and  C_23
REMARK    6  A    between atoms: C_23  and  C_24
REMARK    7  A    between atoms: N_31  and  C_32
REMARK                            x       y       z     vdW  Elec       q    Type
REMARK                         _______ _______ _______ _____ _____    ______ ____
ROOT
ATOM      1  C   UNL     1      -6.443  -2.258 129.269  0.00  0.00    +0.000 C 
ATOM      2  C   UNL     1      -5.242  -3.200 129.047  0.00  0.00    +0.000 C 
ATOM      3  C   UNL     1      -4.941  -3.464 130.402  0.00  0.00    +0.000 A 
ATOM      4  C   UNL     1      -3.764  -3.677 131.013  0.00  0.00    +0.000 A 
ATOM      5  N   UNL     1      -4.060  -3.681 132.342  0.00  0.00    +0.000 N 
ATOM      6  C   UNL     1      -2.996  -3.877 133.292  0.00  0.00    +0.000 C 
ATOM      7  C   UNL     1      -5.423  -3.457 132.557  0.00  0.00    +0.000 A 
ATOM      8  C   UNL     1      -6.204  -3.325 133.696  0.00  0.00    +0.000 A 
ATOM      9  C   UNL     1      -7.574  -3.036 133.461  0.00  0.00    +0.000 A 
ATOM     10  C   UNL     1      -8.160  -2.812 132.153  0.00  0.00    +0.000 A 
ATOM     11  C   UNL     1      -7.392  -2.907 130.960  0.00  0.00    +0.000 A 
ATOM     12  C   UNL     1      -6.014  -3.322 131.305  0.00  0.00    +0.000 A 
ATOM     13  C   UNL     1      -7.899  -2.337 129.267  0.00  0.00    +0.000 C 
ATOM     14  C   UNL     1      -7.280  -1.890 127.463  0.00  0.00    +0.000 C 
ATOM     15  C   UNL     1      -6.564  -0.446 127.255  0.00  0.00    +0.000 C 
ATOM     16  C   UNL     1      -5.653  -0.182 128.467  0.00  0.00    +0.000 C 
ATOM     17  N   UNL     1      -6.333  -0.795 129.575  0.00  0.00    +0.000 NA
ATOM     18  C   UNL     1      -7.592  -0.021 129.914  0.00  0.00    +0.000 C 
ENDROOT
BRANCH  15  19
ATOM     19  C   UNL     1      -7.643   0.623 126.995  0.00  0.00    +0.000 C 
BRANCH  19  20
ATOM     20  N   UNL     1      -7.924   0.737 125.566  0.00  0.00    +0.000 N 
ATOM     21  C   UNL     1      -9.083   0.406 124.954  0.00  0.00    +0.000 C 
ATOM     22  O   UNL     1     -10.119   0.163 125.496  0.00  0.00    +0.000 OA
ATOM     23  H   UNL     1      -7.207   0.611 124.876  0.00  0.00    +0.000 HD
BRANCH  21  24
ATOM     24  O   UNL     1      -8.815   0.369 123.612  0.00  0.00    +0.000 OA
BRANCH  24  25
ATOM     25  C   UNL     1      -9.082  -0.916 123.047  0.00  0.00    +0.000 C 
BRANCH  25  26
ATOM     26  C   UNL     1      -7.991  -1.925 123.346  0.00  0.00    +0.000 A 
ATOM     27  C   UNL     1      -6.662  -1.641 122.988  0.00  0.00    +0.000 A 
ATOM     28  C   UNL     1      -5.611  -2.414 123.487  0.00  0.00    +0.000 A 
ATOM     29  C   UNL     1      -5.883  -3.608 124.148  0.00  0.00    +0.000 A 
ATOM     30  C   UNL     1      -7.202  -3.957 124.422  0.00  0.00    +0.000 A 
ATOM     31  C   UNL     1      -8.240  -3.076 124.104  0.00  0.00    +0.000 A 
ENDBRANCH  25  26
ENDBRANCH  24  25
ENDBRANCH  21  24
ENDBRANCH  19  20
ENDBRANCH  15  19
TORSDOF 5
ENDMDL
