MODEL 1
REMARK VINA RESULT:      -5.3      0.000      0.000
REMARK  Name = Metformin
REMARK  2 active torsions:
REMARK  status: ('A' for Active; 'I' for Inactive)
REMARK    1  A    between atoms: C_1  and  N_2
REMARK    2  A    between atoms: N_2  and  C_3
REMARK                            x       y       z     vdW  Elec       q    Type
REMARK                         _______ _______ _______ _____ _____    ______ ____
ROOT
ATOM      1  C   UNL     1     -12.495   6.678 129.096  0.00  0.00    +0.000 C 
ATOM      2  N   UNL     1     -12.740   7.803 130.006  0.00  0.00    +0.000 N 
ATOM      3  C   UNL     1     -12.648   7.465 131.421  0.00  0.00    +0.000 C 
ATOM      4  C   UNL     1     -13.027   9.061 129.497  0.00  0.00    +0.000 C 
ATOM      5  N   UNL     1     -13.092   9.287 128.215  0.00  0.00    +0.000 NA
ATOM      6  N   UNL     1     -13.255  10.112 130.366  0.00  0.00    +0.000 N 
ATOM      7  C   UNL     1     -13.555  11.430 130.119  0.00  0.00    +0.000 C 
ATOM      8  N   UNL     1     -13.644  11.769 128.824  0.00  0.00    +0.000 N 
ATOM      9  N   UNL     1     -13.755  12.362 130.994  0.00  0.00    +0.000 NA
ATOM     10  H   UNL     1     -12.907   8.442 127.686  0.00  0.00    +0.000 HD
ATOM     11  H   UNL     1     -13.195   9.891 131.342  0.00  0.00    +0.000 HD
ATOM     12  H   UNL     1     -13.484  11.028 128.138  0.00  0.00    +0.000 HD
ATOM     13  H   UNL     1     -13.859  12.707 128.535  0.00  0.00    +0.000 HD
ATOM     14  H   UNL     1     -13.668  12.017 131.944  0.00  0.00    +0.000 HD
ENDROOT
TORSDOF 0
ENDMDL
MODEL 2
REMARK VINA RESULT:      -4.8      2.563      4.666
REMARK  Name = Metformin
REMARK  2 active torsions:
REMARK  status: ('A' for Active; 'I' for Inactive)
REMARK    1  A    between atoms: C_1  and  N_2
REMARK    2  A    between atoms: N_2  and  C_3
REMARK                            x       y       z     vdW  Elec       q    Type
REMARK                         _______ _______ _______ _____ _____    ______ ____
ROOT
ATOM      1  C   UNL     1     -13.469   7.757 127.845  0.00  0.00    +0.000 C 
ATOM      2  N   UNL     1     -12.795   7.924 129.137  0.00  0.00    +0.000 N 
ATOM      3  C   UNL     1     -12.841   9.280 129.670  0.00  0.00    +0.000 C 
ATOM      4  C   UNL     1     -12.185   6.840 129.751  0.00  0.00    +0.000 C 
ATOM      5  N   UNL     1     -12.186   5.653 129.211  0.00  0.00    +0.000 NA
ATOM      6  N   UNL     1     -11.554   7.011 130.969  0.00  0.00    +0.000 N 
ATOM      7  C   UNL     1     -10.887   6.114 131.767  0.00  0.00    +0.000 C 
ATOM      8  N   UNL     1     -10.831   4.857 131.300  0.00  0.00    +0.000 N 
ATOM      9  N   UNL     1     -10.317   6.353 132.904  0.00  0.00    +0.000 NA
ATOM     10  H   UNL     1     -12.678   5.656 128.324  0.00  0.00    +0.000 HD
ATOM     11  H   UNL     1     -11.578   7.941 131.345  0.00  0.00    +0.000 HD
ATOM     12  H   UNL     1     -11.283   4.674 130.401  0.00  0.00    +0.000 HD
ATOM     13  H   UNL     1     -10.366   4.124 131.807  0.00  0.00    +0.000 HD
ATOM     14  H   UNL     1     -10.409   7.326 133.178  0.00  0.00    +0.000 HD
ENDROOT
TORSDOF 0
ENDMDL
MODEL 3
REMARK VINA RESULT:      -4.6      1.132      2.055
REMARK  Name = Metformin
REMARK  2 active torsions:
REMARK  status: ('A' for Active; 'I' for Inactive)
REMARK    1  A    between atoms: C_1  and  N_2
REMARK    2  A    between atoms: N_2  and  C_3
REMARK                            x       y       z     vdW  Elec       q    Type
REMARK                         _______ _______ _______ _____ _____    ______ ____
ROOT
ATOM      1  C   UNL     1     -12.093   6.229 129.467  0.00  0.00    +0.000 C 
ATOM      2  N   UNL     1     -12.386   7.542 128.880  0.00  0.00    +0.000 N 
ATOM      3  C   UNL     1     -12.279   7.589 127.427  0.00  0.00    +0.000 C 
ATOM      4  C   UNL     1     -12.733   8.609 129.695  0.00  0.00    +0.000 C 
ATOM      5  N   UNL     1     -12.809   8.489 130.991  0.00  0.00    +0.000 NA
ATOM      6  N   UNL     1     -13.007   9.840 129.128  0.00  0.00    +0.000 N 
ATOM      7  C   UNL     1     -13.366  11.033 129.706  0.00  0.00    +0.000 C 
ATOM      8  N   UNL     1     -13.473  11.017 131.044  0.00  0.00    +0.000 N 
ATOM      9  N   UNL     1     -13.608  12.152 129.102  0.00  0.00    +0.000 NA
ATOM     10  H   UNL     1     -12.587   7.543 131.283  0.00  0.00    +0.000 HD
ATOM     11  H   UNL     1     -12.935   9.884 128.128  0.00  0.00    +0.000 HD
ATOM     12  H   UNL     1     -13.281  10.131 131.515  0.00  0.00    +0.000 HD
ATOM     13  H   UNL     1     -13.730  11.838 131.564  0.00  0.00    +0.000 HD
ATOM     14  H   UNL     1     -13.503  12.071 128.096  0.00  0.00    +0.000 HD
ENDROOT
TORSDOF 0
ENDMDL
MODEL 4
REMARK VINA RESULT:      -4.4      3.395      5.070
REMARK  Name = Metformin
REMARK  2 active torsions:
REMARK  status: ('A' for Active; 'I' for Inactive)
REMARK    1  A    between atoms: C_1  and  N_2
REMARK    2  A    between atoms: N_2  and  C_3
REMARK                            x       y       z     vdW  Elec       q    Type
REMARK                         _______ _______ _______ _____ _____    ______ ____
ROOT
ATOM      1  C   UNL     1     -11.316   8.330 127.678  0.00  0.00    +0.000 C 
ATOM      2  N   UNL     1     -11.596   7.553 128.891  0.00  0.00    +0.000 N 
ATOM      3  C   UNL     1     -12.993   7.165 129.049  0.00  0.00    +0.000 C 
ATOM      4  C   UNL     1     -10.572   7.244 129.773  0.00  0.00    +0.000 C 
ATOM      5  N   UNL     1      -9.344   7.627 129.564  0.00  0.00    +0.000 NA
ATOM      6  N   UNL     1     -10.850   6.511 130.912  0.00  0.00    +0.000 N 
ATOM      7  C   UNL     1     -10.027   6.084 131.926  0.00  0.00    +0.000 C 
ATOM      8  N   UNL     1      -8.736   6.427 131.804  0.00  0.00    +0.000 N 
ATOM      9  N   UNL     1     -10.365   5.396 132.968  0.00  0.00    +0.000 NA
ATOM     10  H   UNL     1      -9.269   8.155 128.700  0.00  0.00    +0.000 HD
ATOM     11  H   UNL     1     -11.808   6.239 131.032  0.00  0.00    +0.000 HD
ATOM     12  H   UNL     1      -8.475   6.971 130.979  0.00  0.00    +0.000 HD
ATOM     13  H   UNL     1      -8.051   6.165 132.492  0.00  0.00    +0.000 HD
ATOM     14  H   UNL     1     -11.358   5.182 132.977  0.00  0.00    +0.000 HD
ENDROOT
TORSDOF 0
ENDMDL
MODEL 5
REMARK VINA RESULT:      -4.4      2.534      5.069
REMARK  Name = Metformin
REMARK  2 active torsions:
REMARK  status: ('A' for Active; 'I' for Inactive)
REMARK    1  A    between atoms: C_1  and  N_2
REMARK    2  A    between atoms: N_2  and  C_3
REMARK                            x       y       z     vdW  Elec       q    Type
REMARK                         _______ _______ _______ _____ _____    ______ ____
ROOT
ATOM      1  C   UNL     1     -13.477   9.279 128.458  0.00  0.00    +0.000 C 
ATOM      2  N   UNL     1     -12.967   7.904 128.421  0.00  0.00    +0.000 N 
ATOM      3  C   UNL     1     -12.967   7.297 127.095  0.00  0.00    +0.000 C 
ATOM      4  C   UNL     1     -12.535   7.288 129.586  0.00  0.00    +0.000 C 
ATOM      5  N   UNL     1     -12.566   7.897 130.738  0.00  0.00    +0.000 NA
ATOM      6  N   UNL     1     -12.057   5.992 129.537  0.00  0.00    +0.000 N 
ATOM      7  C   UNL     1     -11.579   5.174 130.532  0.00  0.00    +0.000 C 
ATOM      8  N   UNL     1     -11.568   5.709 131.762  0.00  0.00    +0.000 N 
ATOM      9  N   UNL     1     -11.146   3.961 130.405  0.00  0.00    +0.000 NA
ATOM     10  H   UNL     1     -12.935   8.838 130.644  0.00  0.00    +0.000 HD
ATOM     11  H   UNL     1     -12.053   5.564 128.630  0.00  0.00    +0.000 HD
ATOM     12  H   UNL     1     -11.911   6.667 131.856  0.00  0.00    +0.000 HD
ATOM     13  H   UNL     1     -11.238   5.195 132.561  0.00  0.00    +0.000 HD
ATOM     14  H   UNL     1     -11.191   3.640 129.443  0.00  0.00    +0.000 HD
ENDROOT
TORSDOF 0
ENDMDL
MODEL 6
REMARK VINA RESULT:      -4.3      2.782      3.871
REMARK  Name = Metformin
REMARK  2 active torsions:
REMARK  status: ('A' for Active; 'I' for Inactive)
REMARK    1  A    between atoms: C_1  and  N_2
REMARK    2  A    between atoms: N_2  and  C_3
REMARK                            x       y       z     vdW  Elec       q    Type
REMARK                         _______ _______ _______ _____ _____    ______ ____
ROOT
ATOM      1  C   UNL     1      -8.969   4.733 130.507  0.00  0.00    +0.000 C 
ATOM      2  N   UNL     1      -9.911   5.856 130.577  0.00  0.00    +0.000 N 
ATOM      3  C   UNL     1     -10.436   6.120 131.911  0.00  0.00    +0.000 C 
ATOM      4  C   UNL     1     -10.232   6.569 129.431  0.00  0.00    +0.000 C 
ATOM      5  N   UNL     1      -9.720   6.272 128.270  0.00  0.00    +0.000 NA
ATOM      6  N   UNL     1     -11.121   7.624 129.511  0.00  0.00    +0.000 N 
ATOM      7  C   UNL     1     -11.596   8.472 128.539  0.00  0.00    +0.000 C 
ATOM      8  N   UNL     1     -11.127   8.251 127.302  0.00  0.00    +0.000 N 
ATOM      9  N   UNL     1     -12.434   9.446 128.694  0.00  0.00    +0.000 NA
ATOM     10  H   UNL     1      -9.086   5.483 128.341  0.00  0.00    +0.000 HD
ATOM     11  H   UNL     1     -11.490   7.815 130.424  0.00  0.00    +0.000 HD
ATOM     12  H   UNL     1     -10.465   7.481 127.186  0.00  0.00    +0.000 HD
ATOM     13  H   UNL     1     -11.411   8.815 126.519  0.00  0.00    +0.000 HD
ATOM     14  H   UNL     1     -12.734   9.539 129.659  0.00  0.00    +0.000 HD
ENDROOT
TORSDOF 0
ENDMDL
MODEL 7
REMARK VINA RESULT:      -4.3      2.763      4.245
REMARK  Name = Metformin
REMARK  2 active torsions:
REMARK  status: ('A' for Active; 'I' for Inactive)
REMARK    1  A    between atoms: C_1  and  N_2
REMARK    2  A    between atoms: N_2  and  C_3
REMARK                            x       y       z     vdW  Elec       q    Type
REMARK                         _______ _______ _______ _____ _____    ______ ____
ROOT
ATOM      1  C   UNL     1      -9.578   5.251 132.789  0.00  0.00    +0.000 C 
ATOM      2  N   UNL     1      -9.615   6.205 131.675  0.00  0.00    +0.000 N 
ATOM      3  C   UNL     1      -8.303   6.644 131.214  0.00  0.00    +0.000 C 
ATOM      4  C   UNL     1     -10.831   6.615 131.148  0.00  0.00    +0.000 C 
ATOM      5  N   UNL     1     -11.966   6.177 131.614  0.00  0.00    +0.000 NA
ATOM      6  N   UNL     1     -10.851   7.514 130.098  0.00  0.00    +0.000 N 
ATOM      7  C   UNL     1     -11.905   8.067 129.411  0.00  0.00    +0.000 C 
ATOM      8  N   UNL     1     -13.124   7.679 129.816  0.00  0.00    +0.000 N 
ATOM      9  N   UNL     1     -11.842   8.910 128.431  0.00  0.00    +0.000 NA
ATOM     10  H   UNL     1     -11.819   5.526 132.379  0.00  0.00    +0.000 HD
ATOM     11  H   UNL     1      -9.954   7.824 129.773  0.00  0.00    +0.000 HD
ATOM     12  H   UNL     1     -13.167   7.013 130.590  0.00  0.00    +0.000 HD
ATOM     13  H   UNL     1     -13.961   8.025 129.380  0.00  0.00    +0.000 HD
ATOM     14  H   UNL     1     -10.884   9.146 128.194  0.00  0.00    +0.000 HD
ENDROOT
TORSDOF 0
ENDMDL
MODEL 8
REMARK VINA RESULT:      -4.1     10.538     11.558
REMARK  Name = Metformin
REMARK  2 active torsions:
REMARK  status: ('A' for Active; 'I' for Inactive)
REMARK    1  A    between atoms: C_1  and  N_2
REMARK    2  A    between atoms: N_2  and  C_3
REMARK                            x       y       z     vdW  Elec       q    Type
REMARK                         _______ _______ _______ _____ _____    ______ ____
ROOT
ATOM      1  C   UNL     1      -6.602   2.536 124.666  0.00  0.00    +0.000 C 
ATOM      2  N   UNL     1      -7.713   2.760 123.733  0.00  0.00    +0.000 N 
ATOM      3  C   UNL     1      -9.028   2.439 124.274  0.00  0.00    +0.000 C 
ATOM      4  C   UNL     1      -7.465   3.240 122.455  0.00  0.00    +0.000 C 
ATOM      5  N   UNL     1      -6.257   3.505 122.042  0.00  0.00    +0.000 NA
ATOM      6  N   UNL     1      -8.520   3.447 121.587  0.00  0.00    +0.000 N 
ATOM      7  C   UNL     1      -8.539   3.906 120.292  0.00  0.00    +0.000 C 
ATOM      8  N   UNL     1      -7.340   4.209 119.770  0.00  0.00    +0.000 N 
ATOM      9  N   UNL     1      -9.577   4.073 119.538  0.00  0.00    +0.000 NA
ATOM     10  H   UNL     1      -5.573   3.313 122.767  0.00  0.00    +0.000 HD
ATOM     11  H   UNL     1      -9.430   3.229 121.948  0.00  0.00    +0.000 HD
ATOM     12  H   UNL     1      -6.524   4.075 120.371  0.00  0.00    +0.000 HD
ATOM     13  H   UNL     1      -7.243   4.553 118.831  0.00  0.00    +0.000 HD
ATOM     14  H   UNL     1     -10.437   3.820 120.014  0.00  0.00    +0.000 HD
ENDROOT
TORSDOF 0
ENDMDL
MODEL 9
REMARK VINA RESULT:      -3.9     11.797     13.655
REMARK  Name = Metformin
REMARK  2 active torsions:
REMARK  status: ('A' for Active; 'I' for Inactive)
REMARK    1  A    between atoms: C_1  and  N_2
REMARK    2  A    between atoms: N_2  and  C_3
REMARK                            x       y       z     vdW  Elec       q    Type
REMARK                         _______ _______ _______ _____ _____    ______ ____
ROOT
ATOM      1  C   UNL     1      -9.088   1.782 122.945  0.00  0.00    +0.000 C 
ATOM      2  N   UNL     1      -8.466   0.623 123.596  0.00  0.00    +0.000 N 
ATOM      3  C   UNL     1      -7.268   0.935 124.366  0.00  0.00    +0.000 C 
ATOM      4  C   UNL     1      -9.022  -0.640 123.451  0.00  0.00    +0.000 C 
ATOM      5  N   UNL     1     -10.098  -0.841 122.744  0.00  0.00    +0.000 NA
ATOM      6  N   UNL     1      -8.426  -1.723 124.070  0.00  0.00    +0.000 N 
ATOM      7  C   UNL     1      -8.773  -3.052 124.082  0.00  0.00    +0.000 C 
ATOM      8  N   UNL     1      -9.873  -3.366 123.380  0.00  0.00    +0.000 N 
ATOM      9  N   UNL     1      -8.158  -4.014 124.690  0.00  0.00    +0.000 NA
ATOM     10  H   UNL     1     -10.439   0.027 122.343  0.00  0.00    +0.000 HD
ATOM     11  H   UNL     1      -7.600  -1.520 124.603  0.00  0.00    +0.000 HD
ATOM     12  H   UNL     1     -10.354  -2.602 122.902  0.00  0.00    +0.000 HD
ATOM     13  H   UNL     1     -10.213  -4.311 123.324  0.00  0.00    +0.000 HD
ATOM     14  H   UNL     1      -7.341  -3.685 125.193  0.00  0.00    +0.000 HD
ENDROOT
TORSDOF 0
ENDMDL
