MODEL 1
REMARK VINA RESULT:      -6.6      0.000      0.000
REMARK  Name = Methsuximide
REMARK  3 active torsions:
REMARK  status: ('A' for Active; 'I' for Inactive)
REMARK    1  A    between atoms: C_1  and  N_2
REMARK    2  A    between atoms: C_6  and  C_7
REMARK    3  A    between atoms: C_6  and  C_10
REMARK                            x       y       z     vdW  Elec       q    Type
REMARK                         _______ _______ _______ _____ _____    ______ ____
ROOT
ATOM      1  C   UNL     1     -10.125   2.611 131.349  0.00  0.00    +0.000 C 
ATOM      2  N   UNL     1      -9.756   4.003 131.481  0.00  0.00    +0.000 N 
ATOM      3  C   UNL     1      -9.518   4.631 132.661  0.00  0.00    +0.000 C 
ATOM      4  O   UNL     1      -9.149   4.132 133.716  0.00  0.00    +0.000 OA
ATOM      5  C   UNL     1      -9.817   6.082 132.446  0.00  0.00    +0.000 C 
ATOM      6  C   UNL     1      -9.466   6.280 130.958  0.00  0.00    +0.000 C 
ATOM      7  C   UNL     1      -8.069   6.916 130.877  0.00  0.00    +0.000 C 
ATOM      8  C   UNL     1      -9.465   4.836 130.436  0.00  0.00    +0.000 C 
ATOM      9  O   UNL     1      -9.232   4.490 129.286  0.00  0.00    +0.000 OA
ENDROOT
BRANCH   6  10
ATOM     10  C   UNL     1     -10.519   7.116 130.226  0.00  0.00    +0.000 A 
ATOM     11  C   UNL     1     -11.857   7.154 130.659  0.00  0.00    +0.000 A 
ATOM     12  C   UNL     1     -12.829   7.851 129.952  0.00  0.00    +0.000 A 
ATOM     13  C   UNL     1     -12.467   8.609 128.848  0.00  0.00    +0.000 A 
ATOM     14  C   UNL     1     -11.143   8.619 128.416  0.00  0.00    +0.000 A 
ATOM     15  C   UNL     1     -10.177   7.872 129.093  0.00  0.00    +0.000 A 
ENDBRANCH   6  10
TORSDOF 1
ENDMDL
MODEL 2
REMARK VINA RESULT:      -6.4      1.774      2.497
REMARK  Name = Methsuximide
REMARK  3 active torsions:
REMARK  status: ('A' for Active; 'I' for Inactive)
REMARK    1  A    between atoms: C_1  and  N_2
REMARK    2  A    between atoms: C_6  and  C_7
REMARK    3  A    between atoms: C_6  and  C_10
REMARK                            x       y       z     vdW  Elec       q    Type
REMARK                         _______ _______ _______ _____ _____    ______ ____
ROOT
ATOM      1  C   UNL     1      -7.983   4.526 128.918  0.00  0.00    +0.000 C 
ATOM      2  N   UNL     1      -9.160   4.848 129.694  0.00  0.00    +0.000 N 
ATOM      3  C   UNL     1      -9.960   3.933 130.300  0.00  0.00    +0.000 C 
ATOM      4  O   UNL     1      -9.661   2.808 130.679  0.00  0.00    +0.000 OA
ATOM      5  C   UNL     1     -11.319   4.552 130.407  0.00  0.00    +0.000 C 
ATOM      6  C   UNL     1     -10.995   6.052 130.545  0.00  0.00    +0.000 C 
ATOM      7  C   UNL     1     -11.092   6.428 132.032  0.00  0.00    +0.000 C 
ATOM      8  C   UNL     1      -9.548   6.114 130.036  0.00  0.00    +0.000 C 
ATOM      9  O   UNL     1      -8.857   7.121 129.960  0.00  0.00    +0.000 OA
ENDROOT
BRANCH   6  10
ATOM     10  C   UNL     1     -11.909   6.919 129.675  0.00  0.00    +0.000 A 
ATOM     11  C   UNL     1     -11.932   8.320 129.802  0.00  0.00    +0.000 A 
ATOM     12  C   UNL     1     -12.814   9.101 129.066  0.00  0.00    +0.000 A 
ATOM     13  C   UNL     1     -13.629   8.508 128.113  0.00  0.00    +0.000 A 
ATOM     14  C   UNL     1     -13.603   7.126 127.939  0.00  0.00    +0.000 A 
ATOM     15  C   UNL     1     -12.758   6.336 128.719  0.00  0.00    +0.000 A 
ENDBRANCH   6  10
TORSDOF 1
ENDMDL
MODEL 3
REMARK VINA RESULT:      -6.3      8.466      9.663
REMARK  Name = Methsuximide
REMARK  3 active torsions:
REMARK  status: ('A' for Active; 'I' for Inactive)
REMARK    1  A    between atoms: C_1  and  N_2
REMARK    2  A    between atoms: C_6  and  C_7
REMARK    3  A    between atoms: C_6  and  C_10
REMARK                            x       y       z     vdW  Elec       q    Type
REMARK                         _______ _______ _______ _____ _____    ______ ____
ROOT
ATOM      1  C   UNL     1      -8.454  -1.283 122.969  0.00  0.00    +0.000 C 
ATOM      2  N   UNL     1      -8.637   0.141 123.148  0.00  0.00    +0.000 N 
ATOM      3  C   UNL     1      -9.758   0.825 122.802  0.00  0.00    +0.000 C 
ATOM      4  O   UNL     1     -10.900   0.395 122.705  0.00  0.00    +0.000 OA
ATOM      5  C   UNL     1      -9.335   2.235 122.530  0.00  0.00    +0.000 C 
ATOM      6  C   UNL     1      -8.137   2.416 123.483  0.00  0.00    +0.000 C 
ATOM      7  C   UNL     1      -8.626   3.174 124.727  0.00  0.00    +0.000 C 
ATOM      8  C   UNL     1      -7.767   0.963 123.810  0.00  0.00    +0.000 C 
ATOM      9  O   UNL     1      -6.859   0.602 124.546  0.00  0.00    +0.000 OA
ENDROOT
BRANCH   6  10
ATOM     10  C   UNL     1      -6.965   3.130 122.802  0.00  0.00    +0.000 A 
ATOM     11  C   UNL     1      -5.997   3.826 123.547  0.00  0.00    +0.000 A 
ATOM     12  C   UNL     1      -4.976   4.536 122.927  0.00  0.00    +0.000 A 
ATOM     13  C   UNL     1      -4.843   4.486 121.547  0.00  0.00    +0.000 A 
ATOM     14  C   UNL     1      -5.767   3.776 120.785  0.00  0.00    +0.000 A 
ATOM     15  C   UNL     1      -6.826   3.110 121.404  0.00  0.00    +0.000 A 
ENDBRANCH   6  10
TORSDOF 1
ENDMDL
MODEL 4
REMARK VINA RESULT:      -6.2      2.306      4.514
REMARK  Name = Methsuximide
REMARK  3 active torsions:
REMARK  status: ('A' for Active; 'I' for Inactive)
REMARK    1  A    between atoms: C_1  and  N_2
REMARK    2  A    between atoms: C_6  and  C_7
REMARK    3  A    between atoms: C_6  and  C_10
REMARK                            x       y       z     vdW  Elec       q    Type
REMARK                         _______ _______ _______ _____ _____    ______ ____
ROOT
ATOM      1  C   UNL     1     -12.245   8.625 129.226  0.00  0.00    +0.000 C 
ATOM      2  N   UNL     1     -11.769   7.448 129.918  0.00  0.00    +0.000 N 
ATOM      3  C   UNL     1     -12.195   7.049 131.145  0.00  0.00    +0.000 C 
ATOM      4  O   UNL     1     -13.268   7.287 131.681  0.00  0.00    +0.000 OA
ATOM      5  C   UNL     1     -11.077   6.260 131.753  0.00  0.00    +0.000 C 
ATOM      6  C   UNL     1     -10.401   5.630 130.519  0.00  0.00    +0.000 C 
ATOM      7  C   UNL     1     -10.890   4.178 130.395  0.00  0.00    +0.000 C 
ATOM      8  C   UNL     1     -10.934   6.509 129.379  0.00  0.00    +0.000 C 
ATOM      9  O   UNL     1     -10.667   6.384 128.192  0.00  0.00    +0.000 OA
ENDROOT
BRANCH   6  10
ATOM     10  C   UNL     1      -8.874   5.715 130.595  0.00  0.00    +0.000 A 
ATOM     11  C   UNL     1      -8.057   4.642 130.195  0.00  0.00    +0.000 A 
ATOM     12  C   UNL     1      -6.676   4.690 130.334  0.00  0.00    +0.000 A 
ATOM     13  C   UNL     1      -6.070   5.852 130.788  0.00  0.00    +0.000 A 
ATOM     14  C   UNL     1      -6.850   6.944 131.159  0.00  0.00    +0.000 A 
ATOM     15  C   UNL     1      -8.242   6.875 131.073  0.00  0.00    +0.000 A 
ENDBRANCH   6  10
TORSDOF 1
ENDMDL
MODEL 5
REMARK VINA RESULT:      -6.1      7.770      9.946
REMARK  Name = Methsuximide
REMARK  3 active torsions:
REMARK  status: ('A' for Active; 'I' for Inactive)
REMARK    1  A    between atoms: C_1  and  N_2
REMARK    2  A    between atoms: C_6  and  C_7
REMARK    3  A    between atoms: C_6  and  C_10
REMARK                            x       y       z     vdW  Elec       q    Type
REMARK                         _______ _______ _______ _____ _____    ______ ____
ROOT
ATOM      1  C   UNL     1      -6.146   2.772 124.789  0.00  0.00    +0.000 C 
ATOM      2  N   UNL     1      -7.433   2.207 124.448  0.00  0.00    +0.000 N 
ATOM      3  C   UNL     1      -8.628   2.705 124.858  0.00  0.00    +0.000 C 
ATOM      4  O   UNL     1      -8.892   3.856 125.177  0.00  0.00    +0.000 OA
ATOM      5  C   UNL     1      -9.591   1.558 124.872  0.00  0.00    +0.000 C 
ATOM      6  C   UNL     1      -9.058   0.659 123.739  0.00  0.00    +0.000 C 
ATOM      7  C   UNL     1      -9.916   0.907 122.488  0.00  0.00    +0.000 C 
ATOM      8  C   UNL     1      -7.627   1.184 123.561  0.00  0.00    +0.000 C 
ATOM      9  O   UNL     1      -6.805   0.768 122.756  0.00  0.00    +0.000 OA
ENDROOT
BRANCH   6  10
ATOM     10  C   UNL     1      -9.043  -0.819 124.138  0.00  0.00    +0.000 A 
ATOM     11  C   UNL     1      -9.119  -1.841 123.175  0.00  0.00    +0.000 A 
ATOM     12  C   UNL     1      -9.181  -3.180 123.541  0.00  0.00    +0.000 A 
ATOM     13  C   UNL     1      -9.070  -3.534 124.877  0.00  0.00    +0.000 A 
ATOM     14  C   UNL     1      -8.958  -2.546 125.852  0.00  0.00    +0.000 A 
ATOM     15  C   UNL     1      -8.953  -1.198 125.488  0.00  0.00    +0.000 A 
ENDBRANCH   6  10
TORSDOF 1
ENDMDL
MODEL 6
REMARK VINA RESULT:      -5.9      1.547      2.995
REMARK  Name = Methsuximide
REMARK  3 active torsions:
REMARK  status: ('A' for Active; 'I' for Inactive)
REMARK    1  A    between atoms: C_1  and  N_2
REMARK    2  A    between atoms: C_6  and  C_7
REMARK    3  A    between atoms: C_6  and  C_10
REMARK                            x       y       z     vdW  Elec       q    Type
REMARK                         _______ _______ _______ _____ _____    ______ ____
ROOT
ATOM      1  C   UNL     1      -6.752   6.463 131.765  0.00  0.00    +0.000 C 
ATOM      2  N   UNL     1      -7.843   5.848 131.041  0.00  0.00    +0.000 N 
ATOM      3  C   UNL     1      -7.693   4.936 130.047  0.00  0.00    +0.000 C 
ATOM      4  O   UNL     1      -6.756   4.169 129.866  0.00  0.00    +0.000 OA
ATOM      5  C   UNL     1      -8.901   5.050 129.171  0.00  0.00    +0.000 C 
ATOM      6  C   UNL     1      -9.997   5.484 130.165  0.00  0.00    +0.000 C 
ATOM      7  C   UNL     1     -10.821   4.243 130.541  0.00  0.00    +0.000 C 
ATOM      8  C   UNL     1      -9.167   5.998 131.350  0.00  0.00    +0.000 C 
ATOM      9  O   UNL     1      -9.613   6.450 132.395  0.00  0.00    +0.000 OA
ENDROOT
BRANCH   6  10
ATOM     10  C   UNL     1     -10.875   6.604 129.598  0.00  0.00    +0.000 A 
ATOM     11  C   UNL     1     -10.375   7.526 128.661  0.00  0.00    +0.000 A 
ATOM     12  C   UNL     1     -11.146   8.587 128.204  0.00  0.00    +0.000 A 
ATOM     13  C   UNL     1     -12.472   8.695 128.600  0.00  0.00    +0.000 A 
ATOM     14  C   UNL     1     -13.005   7.777 129.500  0.00  0.00    +0.000 A 
ATOM     15  C   UNL     1     -12.212   6.744 130.004  0.00  0.00    +0.000 A 
ENDBRANCH   6  10
TORSDOF 1
ENDMDL
MODEL 7
REMARK VINA RESULT:      -5.8      9.406     10.985
REMARK  Name = Methsuximide
REMARK  3 active torsions:
REMARK  status: ('A' for Active; 'I' for Inactive)
REMARK    1  A    between atoms: C_1  and  N_2
REMARK    2  A    between atoms: C_6  and  C_7
REMARK    3  A    between atoms: C_6  and  C_10
REMARK                            x       y       z     vdW  Elec       q    Type
REMARK                         _______ _______ _______ _____ _____    ______ ____
ROOT
ATOM      1  C   UNL     1      -6.568  -1.508 122.780  0.00  0.00    +0.000 C 
ATOM      2  N   UNL     1      -7.495  -1.648 123.881  0.00  0.00    +0.000 N 
ATOM      3  C   UNL     1      -8.463  -0.748 124.194  0.00  0.00    +0.000 C 
ATOM      4  O   UNL     1      -9.015   0.051 123.449  0.00  0.00    +0.000 OA
ATOM      5  C   UNL     1      -8.730  -0.895 125.660  0.00  0.00    +0.000 C 
ATOM      6  C   UNL     1      -8.438  -2.388 125.906  0.00  0.00    +0.000 C 
ATOM      7  C   UNL     1      -9.779  -3.138 125.945  0.00  0.00    +0.000 C 
ATOM      8  C   UNL     1      -7.612  -2.761 124.667  0.00  0.00    +0.000 C 
ATOM      9  O   UNL     1      -7.150  -3.866 124.419  0.00  0.00    +0.000 OA
ENDROOT
BRANCH   6  10
ATOM     10  C   UNL     1      -7.621  -2.610 127.183  0.00  0.00    +0.000 A 
ATOM     11  C   UNL     1      -6.296  -2.154 127.295  0.00  0.00    +0.000 A 
ATOM     12  C   UNL     1      -5.529  -2.420 128.423  0.00  0.00    +0.000 A 
ATOM     13  C   UNL     1      -6.103  -3.067 129.508  0.00  0.00    +0.000 A 
ATOM     14  C   UNL     1      -7.425  -3.499 129.440  0.00  0.00    +0.000 A 
ATOM     15  C   UNL     1      -8.177  -3.282 128.285  0.00  0.00    +0.000 A 
ENDBRANCH   6  10
TORSDOF 1
ENDMDL
MODEL 8
REMARK VINA RESULT:      -5.8      1.945      4.966
REMARK  Name = Methsuximide
REMARK  3 active torsions:
REMARK  status: ('A' for Active; 'I' for Inactive)
REMARK    1  A    between atoms: C_1  and  N_2
REMARK    2  A    between atoms: C_6  and  C_7
REMARK    3  A    between atoms: C_6  and  C_10
REMARK                            x       y       z     vdW  Elec       q    Type
REMARK                         _______ _______ _______ _____ _____    ______ ____
ROOT
ATOM      1  C   UNL     1     -12.698   7.218 129.491  0.00  0.00    +0.000 C 
ATOM      2  N   UNL     1     -11.327   6.831 129.743  0.00  0.00    +0.000 N 
ATOM      3  C   UNL     1     -10.353   6.777 128.798  0.00  0.00    +0.000 C 
ATOM      4  O   UNL     1     -10.290   7.403 127.749  0.00  0.00    +0.000 OA
ATOM      5  C   UNL     1      -9.351   5.769 129.269  0.00  0.00    +0.000 C 
ATOM      6  C   UNL     1      -9.446   5.892 130.802  0.00  0.00    +0.000 C 
ATOM      7  C   UNL     1      -8.276   6.763 131.286  0.00  0.00    +0.000 C 
ATOM      8  C   UNL     1     -10.796   6.602 130.982  0.00  0.00    +0.000 C 
ATOM      9  O   UNL     1     -11.303   6.919 132.050  0.00  0.00    +0.000 OA
ENDROOT
BRANCH   6  10
ATOM     10  C   UNL     1      -9.463   4.523 131.488  0.00  0.00    +0.000 A 
ATOM     11  C   UNL     1      -8.973   4.350 132.795  0.00  0.00    +0.000 A 
ATOM     12  C   UNL     1      -8.919   3.096 133.390  0.00  0.00    +0.000 A 
ATOM     13  C   UNL     1      -9.444   1.996 132.727  0.00  0.00    +0.000 A 
ATOM     14  C   UNL     1      -9.968   2.142 131.445  0.00  0.00    +0.000 A 
ATOM     15  C   UNL     1      -9.970   3.393 130.825  0.00  0.00    +0.000 A 
ENDBRANCH   6  10
TORSDOF 1
ENDMDL
MODEL 9
REMARK VINA RESULT:      -5.8      9.070     10.781
REMARK  Name = Methsuximide
REMARK  3 active torsions:
REMARK  status: ('A' for Active; 'I' for Inactive)
REMARK    1  A    between atoms: C_1  and  N_2
REMARK    2  A    between atoms: C_6  and  C_7
REMARK    3  A    between atoms: C_6  and  C_10
REMARK                            x       y       z     vdW  Elec       q    Type
REMARK                         _______ _______ _______ _____ _____    ______ ____
ROOT
ATOM      1  C   UNL     1      -6.635  -3.027 129.384  0.00  0.00    +0.000 C 
ATOM      2  N   UNL     1      -7.413  -2.809 128.184  0.00  0.00    +0.000 N 
ATOM      3  C   UNL     1      -8.558  -3.471 127.876  0.00  0.00    +0.000 C 
ATOM      4  O   UNL     1      -9.350  -3.999 128.645  0.00  0.00    +0.000 OA
ATOM      5  C   UNL     1      -8.673  -3.461 126.383  0.00  0.00    +0.000 C 
ATOM      6  C   UNL     1      -7.984  -2.135 126.003  0.00  0.00    +0.000 C 
ATOM      7  C   UNL     1      -9.076  -1.086 125.743  0.00  0.00    +0.000 C 
ATOM      8  C   UNL     1      -7.179  -1.819 127.271  0.00  0.00    +0.000 C 
ATOM      9  O   UNL     1      -6.462  -0.842 127.440  0.00  0.00    +0.000 OA
ENDROOT
BRANCH   6  10
ATOM     10  C   UNL     1      -7.049  -2.299 124.800  0.00  0.00    +0.000 A 
ATOM     11  C   UNL     1      -5.895  -3.099 124.871  0.00  0.00    +0.000 A 
ATOM     12  C   UNL     1      -5.007  -3.189 123.806  0.00  0.00    +0.000 A 
ATOM     13  C   UNL     1      -5.303  -2.555 122.608  0.00  0.00    +0.000 A 
ATOM     14  C   UNL     1      -6.457  -1.784 122.496  0.00  0.00    +0.000 A 
ATOM     15  C   UNL     1      -7.320  -1.648 123.585  0.00  0.00    +0.000 A 
ENDBRANCH   6  10
TORSDOF 1
ENDMDL
