MODEL 1
REMARK VINA RESULT:      -8.7      0.000      0.000
REMARK  Name = Methylprednisolone hemisuccinate
REMARK  13 active torsions:
REMARK  status: ('A' for Active; 'I' for Inactive)
REMARK    1  A    between atoms: C_5  and  O_6
REMARK    2  A    between atoms: C_5  and  C_7
REMARK    3  A    between atoms: C_7  and  C_9
REMARK    4  A    between atoms: C_9  and  O_10
REMARK    5  A    between atoms: O_10  and  C_11
REMARK    6  A    between atoms: C_11  and  C_13
REMARK    7  A    between atoms: C_13  and  C_14
REMARK    8  A    between atoms: C_14  and  C_15
REMARK    9  A    between atoms: C_15  and  O_16
REMARK   10  A    between atoms: C_18  and  C_19
REMARK   11  A    between atoms: C_21  and  O_22
REMARK   12  A    between atoms: C_28  and  C_29
REMARK   13  A    between atoms: C_36  and  C_37
REMARK                            x       y       z     vdW  Elec       q    Type
REMARK                         _______ _______ _______ _____ _____    ______ ____
ROOT
ATOM      1  C   UNL     1      -9.037   2.150 131.088  0.00  0.00    +0.000 C 
ATOM      2  C   UNL     1      -8.035   1.337 131.675  0.00  0.00    +0.000 C 
ATOM      3  C   UNL     1      -7.681   2.778 131.426  0.00  0.00    +0.000 C 
ATOM      4  C   UNL     1      -9.238   4.121 131.141  0.00  0.00    +0.000 C 
ATOM      5  C   UNL     1      -8.655   3.616 132.250  0.00  0.00    +0.000 C 
ATOM      6  C   UNL     1      -9.216   3.425 133.608  0.00  0.00    +0.000 C 
ATOM      7  C   UNL     1      -7.317   4.833 131.726  0.00  0.00    +0.000 C 
ATOM      8  C   UNL     1      -7.209   4.919 130.012  0.00  0.00    +0.000 C 
ATOM      9  C   UNL     1      -7.234   3.542 129.087  0.00  0.00    +0.000 C 
ATOM     10  C   UNL     1      -8.618   2.570 129.364  0.00  0.00    +0.000 C 
ATOM     11  C   UNL     1      -8.484   1.252 128.646  0.00  0.00    +0.000 C 
ATOM     12  C   UNL     1      -8.143   1.436 127.182  0.00  0.00    +0.000 C 
ATOM     13  C   UNL     1      -7.975   0.047 126.606  0.00  0.00    +0.000 C 
ATOM     14  C   UNL     1      -6.956   2.324 126.867  0.00  0.00    +0.000 C 
ATOM     15  C   UNL     1      -6.004   2.042 125.952  0.00  0.00    +0.000 C 
ATOM     16  C   UNL     1      -5.052   3.152 125.711  0.00  0.00    +0.000 C 
ATOM     17  O   UNL     1      -4.999   3.894 124.742  0.00  0.00    +0.000 OA
ATOM     18  C   UNL     1      -4.193   3.392 126.919  0.00  0.00    +0.000 C 
ATOM     19  C   UNL     1      -5.234   4.034 127.517  0.00  0.00    +0.000 C 
ATOM     20  C   UNL     1      -6.838   3.673 127.584  0.00  0.00    +0.000 C 
ATOM     21  C   UNL     1      -7.939   4.557 126.979  0.00  0.00    +0.000 C 
ENDROOT
BRANCH   4  22
ATOM     22  O   UNL     1     -10.649   3.619 131.122  0.00  0.00    +0.000 OA
ATOM     23  H   UNL     1     -11.033   3.490 131.998  0.00  0.00    +0.000 HD
ENDBRANCH   4  22
BRANCH   4  24
ATOM     24  C   UNL     1      -9.780   5.746 131.894  0.00  0.00    +0.000 C 
ATOM     25  O   UNL     1      -8.982   6.497 132.485  0.00  0.00    +0.000 OA
BRANCH  24  26
ATOM     26  C   UNL     1     -11.327   6.327 131.999  0.00  0.00    +0.000 C 
BRANCH  26  27
ATOM     27  O   UNL     1     -11.696   7.071 130.701  0.00  0.00    +0.000 OA
BRANCH  27  28
ATOM     28  C   UNL     1     -12.251   6.432 129.613  0.00  0.00    +0.000 C 
ATOM     29  O   UNL     1     -11.941   5.298 129.271  0.00  0.00    +0.000 OA
BRANCH  28  30
ATOM     30  C   UNL     1     -13.310   7.275 128.846  0.00  0.00    +0.000 C 
BRANCH  30  31
ATOM     31  C   UNL     1     -12.992   7.427 127.341  0.00  0.00    +0.000 C 
BRANCH  31  32
ATOM     32  C   UNL     1     -11.530   7.529 126.923  0.00  0.00    +0.000 C 
ATOM     33  O   UNL     1     -10.867   8.540 127.124  0.00  0.00    +0.000 OA
BRANCH  32  34
ATOM     34  O   UNL     1     -10.978   6.463 126.318  0.00  0.00    +0.000 OA
ATOM     35  H   UNL     1     -10.214   6.034 126.738  0.00  0.00    +0.000 HD
ENDBRANCH  32  34
ENDBRANCH  31  32
ENDBRANCH  30  31
ENDBRANCH  28  30
ENDBRANCH  27  28
ENDBRANCH  26  27
ENDBRANCH  24  26
ENDBRANCH   4  24
BRANCH   8  36
ATOM     36  O   UNL     1      -8.279   5.799 129.602  0.00  0.00    +0.000 OA
ATOM     37  H   UNL     1      -8.241   6.636 130.101  0.00  0.00    +0.000 HD
ENDBRANCH   8  36
TORSDOF 10
ENDMDL
MODEL 2
REMARK VINA RESULT:      -8.7      5.136      8.499
REMARK  Name = Methylprednisolone hemisuccinate
REMARK  13 active torsions:
REMARK  status: ('A' for Active; 'I' for Inactive)
REMARK    1  A    between atoms: C_5  and  O_6
REMARK    2  A    between atoms: C_5  and  C_7
REMARK    3  A    between atoms: C_7  and  C_9
REMARK    4  A    between atoms: C_9  and  O_10
REMARK    5  A    between atoms: O_10  and  C_11
REMARK    6  A    between atoms: C_11  and  C_13
REMARK    7  A    between atoms: C_13  and  C_14
REMARK    8  A    between atoms: C_14  and  C_15
REMARK    9  A    between atoms: C_15  and  O_16
REMARK   10  A    between atoms: C_18  and  C_19
REMARK   11  A    between atoms: C_21  and  O_22
REMARK   12  A    between atoms: C_28  and  C_29
REMARK   13  A    between atoms: C_36  and  C_37
REMARK                            x       y       z     vdW  Elec       q    Type
REMARK                         _______ _______ _______ _____ _____    ______ ____
ROOT
ATOM      1  C   UNL     1      -7.323  -1.369 123.248  0.00  0.00    +0.000 C 
ATOM      2  C   UNL     1      -6.035  -1.683 122.744  0.00  0.00    +0.000 C 
ATOM      3  C   UNL     1      -6.176  -1.591 124.240  0.00  0.00    +0.000 C 
ATOM      4  C   UNL     1      -8.086  -1.728 125.041  0.00  0.00    +0.000 C 
ATOM      5  C   UNL     1      -7.188  -2.658 124.649  0.00  0.00    +0.000 C 
ATOM      6  C   UNL     1      -7.410  -4.043 124.171  0.00  0.00    +0.000 C 
ATOM      7  C   UNL     1      -6.390  -2.123 126.269  0.00  0.00    +0.000 C 
ATOM      8  C   UNL     1      -6.627  -0.441 126.537  0.00  0.00    +0.000 C 
ATOM      9  C   UNL     1      -6.410   0.656 125.311  0.00  0.00    +0.000 C 
ATOM     10  C   UNL     1      -7.368   0.321 123.931  0.00  0.00    +0.000 C 
ATOM     11  C   UNL     1      -6.982   1.229 122.793  0.00  0.00    +0.000 C 
ATOM     12  C   UNL     1      -6.984   2.687 123.206  0.00  0.00    +0.000 C 
ATOM     13  C   UNL     1      -6.519   3.472 121.998  0.00  0.00    +0.000 C 
ATOM     14  C   UNL     1      -6.192   3.042 124.448  0.00  0.00    +0.000 C 
ATOM     15  C   UNL     1      -5.382   4.116 124.565  0.00  0.00    +0.000 C 
ATOM     16  C   UNL     1      -4.863   4.334 125.935  0.00  0.00    +0.000 C 
ATOM     17  O   UNL     1      -5.210   5.186 126.740  0.00  0.00    +0.000 OA
ATOM     18  C   UNL     1      -3.909   3.242 126.326  0.00  0.00    +0.000 C 
ATOM     19  C   UNL     1      -4.967   2.415 126.550  0.00  0.00    +0.000 C 
ATOM     20  C   UNL     1      -6.351   2.167 125.695  0.00  0.00    +0.000 C 
ATOM     21  C   UNL     1      -7.756   2.474 126.236  0.00  0.00    +0.000 C 
ENDROOT
BRANCH   4  22
ATOM     22  O   UNL     1      -9.264  -1.844 124.123  0.00  0.00    +0.000 OA
ATOM     23  H   UNL     1      -9.962  -1.200 124.296  0.00  0.00    +0.000 HD
ENDBRANCH   4  22
BRANCH   4  24
ATOM     24  C   UNL     1      -8.939  -2.775 126.338  0.00  0.00    +0.000 C 
ATOM     25  O   UNL     1     -10.176  -2.913 126.363  0.00  0.00    +0.000 OA
BRANCH  24  26
ATOM     26  C   UNL     1      -8.234  -3.515 127.641  0.00  0.00    +0.000 C 
BRANCH  26  27
ATOM     27  O   UNL     1      -8.485  -2.683 128.914  0.00  0.00    +0.000 OA
BRANCH  27  28
ATOM     28  C   UNL     1      -7.462  -2.248 129.728  0.00  0.00    +0.000 C 
ATOM     29  O   UNL     1      -7.223  -1.065 129.931  0.00  0.00    +0.000 OA
BRANCH  28  30
ATOM     30  C   UNL     1      -6.624  -3.391 130.369  0.00  0.00    +0.000 C 
BRANCH  30  31
ATOM     31  C   UNL     1      -5.273  -3.629 129.656  0.00  0.00    +0.000 C 
BRANCH  31  32
ATOM     32  C   UNL     1      -4.138  -2.649 129.925  0.00  0.00    +0.000 C 
ATOM     33  O   UNL     1      -3.215  -2.917 130.686  0.00  0.00    +0.000 OA
BRANCH  32  34
ATOM     34  O   UNL     1      -4.176  -1.461 129.295  0.00  0.00    +0.000 OA
ATOM     35  H   UNL     1      -3.339  -1.063 129.003  0.00  0.00    +0.000 HD
ENDBRANCH  32  34
ENDBRANCH  31  32
ENDBRANCH  30  31
ENDBRANCH  28  30
ENDBRANCH  27  28
ENDBRANCH  26  27
ENDBRANCH  24  26
ENDBRANCH   4  24
BRANCH   8  36
ATOM     36  O   UNL     1      -7.966  -0.319 127.067  0.00  0.00    +0.000 OA
ATOM     37  H   UNL     1      -8.620  -0.619 126.410  0.00  0.00    +0.000 HD
ENDBRANCH   8  36
TORSDOF 10
ENDMDL
MODEL 3
REMARK VINA RESULT:      -8.7      4.498      8.137
REMARK  Name = Methylprednisolone hemisuccinate
REMARK  13 active torsions:
REMARK  status: ('A' for Active; 'I' for Inactive)
REMARK    1  A    between atoms: C_5  and  O_6
REMARK    2  A    between atoms: C_5  and  C_7
REMARK    3  A    between atoms: C_7  and  C_9
REMARK    4  A    between atoms: C_9  and  O_10
REMARK    5  A    between atoms: O_10  and  C_11
REMARK    6  A    between atoms: C_11  and  C_13
REMARK    7  A    between atoms: C_13  and  C_14
REMARK    8  A    between atoms: C_14  and  C_15
REMARK    9  A    between atoms: C_15  and  O_16
REMARK   10  A    between atoms: C_18  and  C_19
REMARK   11  A    between atoms: C_21  and  O_22
REMARK   12  A    between atoms: C_28  and  C_29
REMARK   13  A    between atoms: C_36  and  C_37
REMARK                            x       y       z     vdW  Elec       q    Type
REMARK                         _______ _______ _______ _____ _____    ______ ____
ROOT
ATOM      1  C   UNL     1      -8.179  -3.303 126.248  0.00  0.00    +0.000 C 
ATOM      2  C   UNL     1      -9.511  -3.554 126.665  0.00  0.00    +0.000 C 
ATOM      3  C   UNL     1      -9.183  -2.145 126.247  0.00  0.00    +0.000 C 
ATOM      4  C   UNL     1      -7.483  -1.851 125.094  0.00  0.00    +0.000 C 
ATOM      5  C   UNL     1      -8.746  -2.215 124.786  0.00  0.00    +0.000 C 
ATOM      6  C   UNL     1      -9.247  -3.014 123.643  0.00  0.00    +0.000 C 
ATOM      7  C   UNL     1      -9.023  -0.380 125.106  0.00  0.00    +0.000 C 
ATOM      8  C   UNL     1      -8.005   0.178 126.374  0.00  0.00    +0.000 C 
ATOM      9  C   UNL     1      -7.817  -0.705 127.766  0.00  0.00    +0.000 C 
ATOM     10  C   UNL     1      -7.280  -2.306 127.482  0.00  0.00    +0.000 C 
ATOM     11  C   UNL     1      -7.319  -3.106 128.757  0.00  0.00    +0.000 C 
ATOM     12  C   UNL     1      -6.595  -2.405 129.888  0.00  0.00    +0.000 C 
ATOM     13  C   UNL     1      -6.768  -3.280 131.112  0.00  0.00    +0.000 C 
ATOM     14  C   UNL     1      -6.992  -0.968 130.162  0.00  0.00    +0.000 C 
ATOM     15  C   UNL     1      -7.191  -0.445 131.390  0.00  0.00    +0.000 C 
ATOM     16  C   UNL     1      -7.398   1.022 131.393  0.00  0.00    +0.000 C 
ATOM     17  O   UNL     1      -6.611   1.888 131.744  0.00  0.00    +0.000 OA
ATOM     18  C   UNL     1      -8.702   1.381 130.740  0.00  0.00    +0.000 C 
ATOM     19  C   UNL     1      -8.133   1.175 129.520  0.00  0.00    +0.000 C 
ATOM     20  C   UNL     1      -7.124  -0.006 128.978  0.00  0.00    +0.000 C 
ATOM     21  C   UNL     1      -5.689   0.251 128.494  0.00  0.00    +0.000 C 
ENDROOT
BRANCH   4  22
ATOM     22  O   UNL     1      -6.600  -3.017 124.770  0.00  0.00    +0.000 OA
ATOM     23  H   UNL     1      -5.657  -2.836 124.867  0.00  0.00    +0.000 HD
ENDBRANCH   4  22
BRANCH   4  24
ATOM     24  C   UNL     1      -7.080  -1.036 123.458  0.00  0.00    +0.000 C 
ATOM     25  O   UNL     1      -6.167  -1.453 122.722  0.00  0.00    +0.000 OA
BRANCH  24  26
ATOM     26  C   UNL     1      -7.745   0.353 122.847  0.00  0.00    +0.000 C 
BRANCH  26  27
ATOM     27  O   UNL     1      -6.774   1.532 123.052  0.00  0.00    +0.000 OA
BRANCH  27  28
ATOM     28  C   UNL     1      -7.168   2.846 122.925  0.00  0.00    +0.000 C 
ATOM     29  O   UNL     1      -7.829   3.434 123.772  0.00  0.00    +0.000 OA
BRANCH  28  30
ATOM     30  C   UNL     1      -6.708   3.529 121.605  0.00  0.00    +0.000 C 
BRANCH  30  31
ATOM     31  C   UNL     1      -5.329   4.217 121.725  0.00  0.00    +0.000 C 
BRANCH  31  32
ATOM     32  C   UNL     1      -4.935   5.224 120.652  0.00  0.00    +0.000 C 
ATOM     33  O   UNL     1      -5.339   5.135 119.498  0.00  0.00    +0.000 OA
BRANCH  32  34
ATOM     34  O   UNL     1      -4.119   6.232 121.010  0.00  0.00    +0.000 OA
ATOM     35  H   UNL     1      -4.410   7.144 120.850  0.00  0.00    +0.000 HD
ENDBRANCH  32  34
ENDBRANCH  31  32
ENDBRANCH  30  31
ENDBRANCH  28  30
ENDBRANCH  27  28
ENDBRANCH  26  27
ENDBRANCH  24  26
ENDBRANCH   4  24
BRANCH   8  36
ATOM     36  O   UNL     1      -6.715   0.401 125.762  0.00  0.00    +0.000 OA
ATOM     37  H   UNL     1      -6.438   1.328 125.880  0.00  0.00    +0.000 HD
ENDBRANCH   8  36
TORSDOF 10
ENDMDL
MODEL 4
REMARK VINA RESULT:      -8.5      4.072      6.063
REMARK  Name = Methylprednisolone hemisuccinate
REMARK  13 active torsions:
REMARK  status: ('A' for Active; 'I' for Inactive)
REMARK    1  A    between atoms: C_5  and  O_6
REMARK    2  A    between atoms: C_5  and  C_7
REMARK    3  A    between atoms: C_7  and  C_9
REMARK    4  A    between atoms: C_9  and  O_10
REMARK    5  A    between atoms: O_10  and  C_11
REMARK    6  A    between atoms: C_11  and  C_13
REMARK    7  A    between atoms: C_13  and  C_14
REMARK    8  A    between atoms: C_14  and  C_15
REMARK    9  A    between atoms: C_15  and  O_16
REMARK   10  A    between atoms: C_18  and  C_19
REMARK   11  A    between atoms: C_21  and  O_22
REMARK   12  A    between atoms: C_28  and  C_29
REMARK   13  A    between atoms: C_36  and  C_37
REMARK                            x       y       z     vdW  Elec       q    Type
REMARK                         _______ _______ _______ _____ _____    ______ ____
ROOT
ATOM      1  C   UNL     1      -6.257  -0.329 129.746  0.00  0.00    +0.000 C 
ATOM      2  C   UNL     1      -5.080  -1.119 129.747  0.00  0.00    +0.000 C 
ATOM      3  C   UNL     1      -5.239  -0.139 128.616  0.00  0.00    +0.000 C 
ATOM      4  C   UNL     1      -6.590   1.416 128.868  0.00  0.00    +0.000 C 
ATOM      5  C   UNL     1      -5.305   1.249 129.248  0.00  0.00    +0.000 C 
ATOM      6  C   UNL     1      -4.571   1.852 130.385  0.00  0.00    +0.000 C 
ATOM      7  C   UNL     1      -5.043   1.581 127.413  0.00  0.00    +0.000 C 
ATOM      8  C   UNL     1      -6.320   0.902 126.483  0.00  0.00    +0.000 C 
ATOM      9  C   UNL     1      -6.878  -0.629 126.794  0.00  0.00    +0.000 C 
ATOM     10  C   UNL     1      -7.392  -0.843 128.414  0.00  0.00    +0.000 C 
ATOM     11  C   UNL     1      -7.699  -2.293 128.679  0.00  0.00    +0.000 C 
ATOM     12  C   UNL     1      -8.651  -2.868 127.650  0.00  0.00    +0.000 C 
ATOM     13  C   UNL     1      -8.819  -4.332 127.996  0.00  0.00    +0.000 C 
ATOM     14  C   UNL     1      -8.277  -2.672 126.195  0.00  0.00    +0.000 C 
ATOM     15  C   UNL     1      -8.366  -3.624 125.242  0.00  0.00    +0.000 C 
ATOM     16  C   UNL     1      -8.108  -3.128 123.869  0.00  0.00    +0.000 C 
ATOM     17  O   UNL     1      -8.923  -2.928 122.981  0.00  0.00    +0.000 OA
ATOM     18  C   UNL     1      -6.671  -2.726 123.706  0.00  0.00    +0.000 C 
ATOM     19  C   UNL     1      -6.930  -1.573 124.382  0.00  0.00    +0.000 C 
ATOM     20  C   UNL     1      -7.820  -1.284 125.736  0.00  0.00    +0.000 C 
ATOM     21  C   UNL     1      -9.081  -0.407 125.758  0.00  0.00    +0.000 C 
ENDROOT
BRANCH   4  22
ATOM     22  O   UNL     1      -7.411   1.483 130.119  0.00  0.00    +0.000 OA
ATOM     23  H   UNL     1      -7.101   2.138 130.758  0.00  0.00    +0.000 HD
ENDBRANCH   4  22
BRANCH   4  24
ATOM     24  C   UNL     1      -6.546   3.283 128.744  0.00  0.00    +0.000 C 
ATOM     25  O   UNL     1      -7.287   4.006 129.434  0.00  0.00    +0.000 OA
BRANCH  24  26
ATOM     26  C   UNL     1      -5.669   4.188 127.670  0.00  0.00    +0.000 C 
BRANCH  26  27
ATOM     27  O   UNL     1      -6.578   4.659 126.518  0.00  0.00    +0.000 OA
BRANCH  27  28
ATOM     28  C   UNL     1      -6.079   5.058 125.296  0.00  0.00    +0.000 C 
ATOM     29  O   UNL     1      -6.080   6.223 124.919  0.00  0.00    +0.000 OA
BRANCH  28  30
ATOM     30  C   UNL     1      -5.514   3.900 124.426  0.00  0.00    +0.000 C 
BRANCH  30  31
ATOM     31  C   UNL     1      -6.190   3.794 123.040  0.00  0.00    +0.000 C 
BRANCH  31  32
ATOM     32  C   UNL     1      -7.529   3.073 122.949  0.00  0.00    +0.000 C 
ATOM     33  O   UNL     1      -7.733   2.007 123.519  0.00  0.00    +0.000 OA
BRANCH  32  34
ATOM     34  O   UNL     1      -8.499   3.647 122.214  0.00  0.00    +0.000 OA
ATOM     35  H   UNL     1      -9.110   4.262 122.650  0.00  0.00    +0.000 HD
ENDBRANCH  32  34
ENDBRANCH  31  32
ENDBRANCH  30  31
ENDBRANCH  28  30
ENDBRANCH  27  28
ENDBRANCH  26  27
ENDBRANCH  24  26
ENDBRANCH   4  24
BRANCH   8  36
ATOM     36  O   UNL     1      -7.410   1.846 126.577  0.00  0.00    +0.000 OA
ATOM     37  H   UNL     1      -7.200   2.658 126.081  0.00  0.00    +0.000 HD
ENDBRANCH   8  36
TORSDOF 10
ENDMDL
MODEL 5
REMARK VINA RESULT:      -8.5      2.636      4.249
REMARK  Name = Methylprednisolone hemisuccinate
REMARK  13 active torsions:
REMARK  status: ('A' for Active; 'I' for Inactive)
REMARK    1  A    between atoms: C_5  and  O_6
REMARK    2  A    between atoms: C_5  and  C_7
REMARK    3  A    between atoms: C_7  and  C_9
REMARK    4  A    between atoms: C_9  and  O_10
REMARK    5  A    between atoms: O_10  and  C_11
REMARK    6  A    between atoms: C_11  and  C_13
REMARK    7  A    between atoms: C_13  and  C_14
REMARK    8  A    between atoms: C_14  and  C_15
REMARK    9  A    between atoms: C_15  and  O_16
REMARK   10  A    between atoms: C_18  and  C_19
REMARK   11  A    between atoms: C_21  and  O_22
REMARK   12  A    between atoms: C_28  and  C_29
REMARK   13  A    between atoms: C_36  and  C_37
REMARK                            x       y       z     vdW  Elec       q    Type
REMARK                         _______ _______ _______ _____ _____    ______ ____
ROOT
ATOM      1  C   UNL     1      -6.897   0.577 129.686  0.00  0.00    +0.000 C 
ATOM      2  C   UNL     1      -5.561   0.104 129.746  0.00  0.00    +0.000 C 
ATOM      3  C   UNL     1      -5.912   1.009 128.594  0.00  0.00    +0.000 C 
ATOM      4  C   UNL     1      -7.616   2.179 128.769  0.00  0.00    +0.000 C 
ATOM      5  C   UNL     1      -6.347   2.339 129.202  0.00  0.00    +0.000 C 
ATOM      6  C   UNL     1      -5.834   3.112 130.357  0.00  0.00    +0.000 C 
ATOM      7  C   UNL     1      -6.100   2.716 127.373  0.00  0.00    +0.000 C 
ATOM      8  C   UNL     1      -7.128   1.736 126.405  0.00  0.00    +0.000 C 
ATOM      9  C   UNL     1      -7.301   0.116 126.717  0.00  0.00    +0.000 C 
ATOM     10  C   UNL     1      -7.813  -0.210 128.320  0.00  0.00    +0.000 C 
ATOM     11  C   UNL     1      -7.761  -1.690 128.595  0.00  0.00    +0.000 C 
ATOM     12  C   UNL     1      -8.496  -2.489 127.539  0.00  0.00    +0.000 C 
ATOM     13  C   UNL     1      -8.309  -3.947 127.901  0.00  0.00    +0.000 C 
ATOM     14  C   UNL     1      -8.122  -2.214 126.096  0.00  0.00    +0.000 C 
ATOM     15  C   UNL     1      -7.932  -3.163 125.155  0.00  0.00    +0.000 C 
ATOM     16  C   UNL     1      -7.749  -2.627 123.786  0.00  0.00    +0.000 C 
ATOM     17  O   UNL     1      -8.550  -2.640 122.864  0.00  0.00    +0.000 OA
ATOM     18  C   UNL     1      -6.451  -1.880 123.673  0.00  0.00    +0.000 C 
ATOM     19  C   UNL     1      -7.016  -0.824 124.321  0.00  0.00    +0.000 C 
ATOM     20  C   UNL     1      -8.005  -0.758 125.634  0.00  0.00    +0.000 C 
ATOM     21  C   UNL     1      -9.444  -0.222 125.593  0.00  0.00    +0.000 C 
ENDROOT
BRANCH   4  22
ATOM     22  O   UNL     1      -8.480   2.047 129.986  0.00  0.00    +0.000 OA
ATOM     23  H   UNL     1      -7.995   2.098 130.819  0.00  0.00    +0.000 HD
ENDBRANCH   4  22
BRANCH   4  24
ATOM     24  C   UNL     1      -8.032   3.998 128.618  0.00  0.00    +0.000 C 
ATOM     25  O   UNL     1      -7.663   4.679 127.644  0.00  0.00    +0.000 OA
BRANCH  24  26
ATOM     26  C   UNL     1      -8.787   4.944 129.749  0.00  0.00    +0.000 C 
BRANCH  26  27
ATOM     27  O   UNL     1     -10.278   5.097 129.392  0.00  0.00    +0.000 OA
BRANCH  27  28
ATOM     28  C   UNL     1     -10.967   6.276 129.580  0.00  0.00    +0.000 C 
ATOM     29  O   UNL     1     -12.110   6.323 130.016  0.00  0.00    +0.000 OA
BRANCH  28  30
ATOM     30  C   UNL     1     -10.172   7.553 129.186  0.00  0.00    +0.000 C 
BRANCH  30  31
ATOM     31  C   UNL     1     -10.675   8.205 127.877  0.00  0.00    +0.000 C 
BRANCH  31  32
ATOM     32  C   UNL     1     -10.623   7.378 126.599  0.00  0.00    +0.000 C 
ATOM     33  O   UNL     1     -11.329   7.634 125.631  0.00  0.00    +0.000 OA
BRANCH  32  34
ATOM     34  O   UNL     1      -9.766   6.342 126.560  0.00  0.00    +0.000 OA
ATOM     35  H   UNL     1      -9.640   5.874 125.718  0.00  0.00    +0.000 HD
ENDBRANCH  32  34
ENDBRANCH  31  32
ENDBRANCH  30  31
ENDBRANCH  28  30
ENDBRANCH  27  28
ENDBRANCH  26  27
ENDBRANCH  24  26
ENDBRANCH   4  24
BRANCH   8  36
ATOM     36  O   UNL     1      -8.421   2.379 126.441  0.00  0.00    +0.000 OA
ATOM     37  H   UNL     1      -8.731   2.467 127.361  0.00  0.00    +0.000 HD
ENDBRANCH   8  36
TORSDOF 10
ENDMDL
MODEL 6
REMARK VINA RESULT:      -8.3      2.593      4.376
REMARK  Name = Methylprednisolone hemisuccinate
REMARK  13 active torsions:
REMARK  status: ('A' for Active; 'I' for Inactive)
REMARK    1  A    between atoms: C_5  and  O_6
REMARK    2  A    between atoms: C_5  and  C_7
REMARK    3  A    between atoms: C_7  and  C_9
REMARK    4  A    between atoms: C_9  and  O_10
REMARK    5  A    between atoms: O_10  and  C_11
REMARK    6  A    between atoms: C_11  and  C_13
REMARK    7  A    between atoms: C_13  and  C_14
REMARK    8  A    between atoms: C_14  and  C_15
REMARK    9  A    between atoms: C_15  and  O_16
REMARK   10  A    between atoms: C_18  and  C_19
REMARK   11  A    between atoms: C_21  and  O_22
REMARK   12  A    between atoms: C_28  and  C_29
REMARK   13  A    between atoms: C_36  and  C_37
REMARK                            x       y       z     vdW  Elec       q    Type
REMARK                         _______ _______ _______ _____ _____    ______ ____
ROOT
ATOM      1  C   UNL     1      -4.857   1.739 127.509  0.00  0.00    +0.000 C 
ATOM      2  C   UNL     1      -4.031   2.362 126.539  0.00  0.00    +0.000 C 
ATOM      3  C   UNL     1      -5.346   3.028 126.840  0.00  0.00    +0.000 C 
ATOM      4  C   UNL     1      -6.299   2.528 128.615  0.00  0.00    +0.000 C 
ATOM      5  C   UNL     1      -5.316   3.405 128.319  0.00  0.00    +0.000 C 
ATOM      6  C   UNL     1      -4.233   3.937 129.180  0.00  0.00    +0.000 C 
ATOM      7  C   UNL     1      -6.791   4.349 127.624  0.00  0.00    +0.000 C 
ATOM      8  C   UNL     1      -7.941   3.266 126.946  0.00  0.00    +0.000 C 
ATOM      9  C   UNL     1      -7.460   2.007 125.979  0.00  0.00    +0.000 C 
ATOM     10  C   UNL     1      -6.320   0.975 126.734  0.00  0.00    +0.000 C 
ATOM     11  C   UNL     1      -5.780  -0.023 125.744  0.00  0.00    +0.000 C 
ATOM     12  C   UNL     1      -6.889  -0.756 125.017  0.00  0.00    +0.000 C 
ATOM     13  C   UNL     1      -6.212  -1.670 124.018  0.00  0.00    +0.000 C 
ATOM     14  C   UNL     1      -7.957   0.100 124.366  0.00  0.00    +0.000 C 
ATOM     15  C   UNL     1      -8.465  -0.109 123.133  0.00  0.00    +0.000 C 
ATOM     16  C   UNL     1      -9.619   0.760 122.802  0.00  0.00    +0.000 C 
ATOM     17  O   UNL     1     -10.799   0.449 122.751  0.00  0.00    +0.000 OA
ATOM     18  C   UNL     1      -9.189   2.193 122.670  0.00  0.00    +0.000 C 
ATOM     19  C   UNL     1      -9.139   2.290 124.027  0.00  0.00    +0.000 C 
ATOM     20  C   UNL     1      -8.561   1.255 125.169  0.00  0.00    +0.000 C 
ATOM     21  C   UNL     1      -9.436   0.595 126.245  0.00  0.00    +0.000 C 
ENDROOT
BRANCH   4  22
ATOM     22  O   UNL     1      -5.699   1.483 129.505  0.00  0.00    +0.000 OA
ATOM     23  H   UNL     1      -4.878   1.756 129.933  0.00  0.00    +0.000 HD
ENDBRANCH   4  22
BRANCH   4  24
ATOM     24  C   UNL     1      -6.986   3.452 130.091  0.00  0.00    +0.000 C 
ATOM     25  O   UNL     1      -7.475   2.860 131.069  0.00  0.00    +0.000 OA
BRANCH  24  26
ATOM     26  C   UNL     1      -7.158   5.093 130.246  0.00  0.00    +0.000 C 
BRANCH  26  27
ATOM     27  O   UNL     1      -8.575   5.425 130.752  0.00  0.00    +0.000 OA
BRANCH  27  28
ATOM     28  C   UNL     1      -9.667   5.480 129.913  0.00  0.00    +0.000 C 
ATOM     29  O   UNL     1     -10.310   4.492 129.583  0.00  0.00    +0.000 OA
BRANCH  28  30
ATOM     30  C   UNL     1     -10.016   6.910 129.410  0.00  0.00    +0.000 C 
BRANCH  30  31
ATOM     31  C   UNL     1     -11.394   6.990 128.713  0.00  0.00    +0.000 C 
BRANCH  31  32
ATOM     32  C   UNL     1     -11.429   7.366 127.237  0.00  0.00    +0.000 C 
ATOM     33  O   UNL     1     -10.838   8.348 126.802  0.00  0.00    +0.000 OA
BRANCH  32  34
ATOM     34  O   UNL     1     -12.139   6.579 126.409  0.00  0.00    +0.000 OA
ATOM     35  H   UNL     1     -12.942   6.150 126.749  0.00  0.00    +0.000 HD
ENDBRANCH  32  34
ENDBRANCH  31  32
ENDBRANCH  30  31
ENDBRANCH  28  30
ENDBRANCH  27  28
ENDBRANCH  26  27
ENDBRANCH  24  26
ENDBRANCH   4  24
BRANCH   8  36
ATOM     36  O   UNL     1      -8.698   2.756 128.067  0.00  0.00    +0.000 OA
ATOM     37  H   UNL     1      -9.530   2.354 127.761  0.00  0.00    +0.000 HD
ENDBRANCH   8  36
TORSDOF 10
ENDMDL
MODEL 7
REMARK VINA RESULT:      -8.3      4.572      8.096
REMARK  Name = Methylprednisolone hemisuccinate
REMARK  13 active torsions:
REMARK  status: ('A' for Active; 'I' for Inactive)
REMARK    1  A    between atoms: C_5  and  O_6
REMARK    2  A    between atoms: C_5  and  C_7
REMARK    3  A    between atoms: C_7  and  C_9
REMARK    4  A    between atoms: C_9  and  O_10
REMARK    5  A    between atoms: O_10  and  C_11
REMARK    6  A    between atoms: C_11  and  C_13
REMARK    7  A    between atoms: C_13  and  C_14
REMARK    8  A    between atoms: C_14  and  C_15
REMARK    9  A    between atoms: C_15  and  O_16
REMARK   10  A    between atoms: C_18  and  C_19
REMARK   11  A    between atoms: C_21  and  O_22
REMARK   12  A    between atoms: C_28  and  C_29
REMARK   13  A    between atoms: C_36  and  C_37
REMARK                            x       y       z     vdW  Elec       q    Type
REMARK                         _______ _______ _______ _____ _____    ______ ____
ROOT
ATOM      1  C   UNL     1      -7.280   1.801 129.124  0.00  0.00    +0.000 C 
ATOM      2  C   UNL     1      -6.028   2.316 129.546  0.00  0.00    +0.000 C 
ATOM      3  C   UNL     1      -6.007   1.321 128.417  0.00  0.00    +0.000 C 
ATOM      4  C   UNL     1      -7.777   0.996 127.383  0.00  0.00    +0.000 C 
ATOM      5  C   UNL     1      -6.814   1.937 127.277  0.00  0.00    +0.000 C 
ATOM      6  C   UNL     1      -6.903   3.326 126.769  0.00  0.00    +0.000 C 
ATOM      7  C   UNL     1      -5.915   0.485 126.484  0.00  0.00    +0.000 C 
ATOM      8  C   UNL     1      -6.341  -0.991 127.256  0.00  0.00    +0.000 C 
ATOM      9  C   UNL     1      -6.415  -1.097 128.910  0.00  0.00    +0.000 C 
ATOM     10  C   UNL     1      -7.472   0.055 129.612  0.00  0.00    +0.000 C 
ATOM     11  C   UNL     1      -7.343   0.036 131.113  0.00  0.00    +0.000 C 
ATOM     12  C   UNL     1      -7.493  -1.362 131.677  0.00  0.00    +0.000 C 
ATOM     13  C   UNL     1      -7.279  -1.243 133.171  0.00  0.00    +0.000 C 
ATOM     14  C   UNL     1      -6.618  -2.438 131.066  0.00  0.00    +0.000 C 
ATOM     15  C   UNL     1      -5.951  -3.379 131.768  0.00  0.00    +0.000 C 
ATOM     16  C   UNL     1      -5.312  -4.418 130.926  0.00  0.00    +0.000 C 
ATOM     17  O   UNL     1      -5.675  -5.572 130.759  0.00  0.00    +0.000 OA
ATOM     18  C   UNL     1      -4.182  -3.838 130.125  0.00  0.00    +0.000 C 
ATOM     19  C   UNL     1      -5.087  -3.292 129.267  0.00  0.00    +0.000 C 
ATOM     20  C   UNL     1      -6.515  -2.520 129.540  0.00  0.00    +0.000 C 
ATOM     21  C   UNL     1      -7.877  -3.049 129.064  0.00  0.00    +0.000 C 
ENDROOT
BRANCH   4  22
ATOM     22  O   UNL     1      -9.027   1.696 127.821  0.00  0.00    +0.000 OA
ATOM     23  H   UNL     1      -8.957   2.659 127.824  0.00  0.00    +0.000 HD
ENDBRANCH   4  22
BRANCH   4  24
ATOM     24  C   UNL     1      -8.328   1.040 125.594  0.00  0.00    +0.000 C 
ATOM     25  O   UNL     1      -9.529   0.968 125.274  0.00  0.00    +0.000 OA
BRANCH  24  26
ATOM     26  C   UNL     1      -7.356   1.043 124.253  0.00  0.00    +0.000 C 
BRANCH  26  27
ATOM     27  O   UNL     1      -7.850  -0.014 123.246  0.00  0.00    +0.000 OA
BRANCH  27  28
ATOM     28  C   UNL     1      -7.402  -1.318 123.262  0.00  0.00    +0.000 C 
ATOM     29  O   UNL     1      -6.414  -1.680 123.888  0.00  0.00    +0.000 OA
BRANCH  28  30
ATOM     30  C   UNL     1      -8.256  -2.299 122.409  0.00  0.00    +0.000 C 
BRANCH  30  31
ATOM     31  C   UNL     1      -9.396  -2.968 123.210  0.00  0.00    +0.000 C 
BRANCH  31  32
ATOM     32  C   UNL     1      -9.208  -3.150 124.710  0.00  0.00    +0.000 C 
ATOM     33  O   UNL     1      -9.920  -2.579 125.528  0.00  0.00    +0.000 OA
BRANCH  32  34
ATOM     34  O   UNL     1      -8.221  -3.967 125.121  0.00  0.00    +0.000 OA
ATOM     35  H   UNL     1      -7.303  -3.660 125.049  0.00  0.00    +0.000 HD
ENDBRANCH  32  34
ENDBRANCH  31  32
ENDBRANCH  30  31
ENDBRANCH  28  30
ENDBRANCH  27  28
ENDBRANCH  26  27
ENDBRANCH  24  26
ENDBRANCH   4  24
BRANCH   8  36
ATOM     36  O   UNL     1      -7.614  -1.370 126.687  0.00  0.00    +0.000 OA
ATOM     37  H   UNL     1      -8.340  -1.142 127.297  0.00  0.00    +0.000 HD
ENDBRANCH   8  36
TORSDOF 10
ENDMDL
MODEL 8
REMARK VINA RESULT:      -8.2      2.955      4.233
REMARK  Name = Methylprednisolone hemisuccinate
REMARK  13 active torsions:
REMARK  status: ('A' for Active; 'I' for Inactive)
REMARK    1  A    between atoms: C_5  and  O_6
REMARK    2  A    between atoms: C_5  and  C_7
REMARK    3  A    between atoms: C_7  and  C_9
REMARK    4  A    between atoms: C_9  and  O_10
REMARK    5  A    between atoms: O_10  and  C_11
REMARK    6  A    between atoms: C_11  and  C_13
REMARK    7  A    between atoms: C_13  and  C_14
REMARK    8  A    between atoms: C_14  and  C_15
REMARK    9  A    between atoms: C_15  and  O_16
REMARK   10  A    between atoms: C_18  and  C_19
REMARK   11  A    between atoms: C_21  and  O_22
REMARK   12  A    between atoms: C_28  and  C_29
REMARK   13  A    between atoms: C_36  and  C_37
REMARK                            x       y       z     vdW  Elec       q    Type
REMARK                         _______ _______ _______ _____ _____    ______ ____
ROOT
ATOM      1  C   UNL     1      -7.115   3.248 133.462  0.00  0.00    +0.000 C 
ATOM      2  C   UNL     1      -6.965   4.044 134.626  0.00  0.00    +0.000 C 
ATOM      3  C   UNL     1      -7.335   4.761 133.356  0.00  0.00    +0.000 C 
ATOM      4  C   UNL     1      -8.134   3.633 131.807  0.00  0.00    +0.000 C 
ATOM      5  C   UNL     1      -8.679   4.192 132.910  0.00  0.00    +0.000 C 
ATOM      6  C   UNL     1      -9.884   3.791 133.674  0.00  0.00    +0.000 C 
ATOM      7  C   UNL     1      -8.453   5.739 131.860  0.00  0.00    +0.000 C 
ATOM      8  C   UNL     1      -7.019   5.631 130.917  0.00  0.00    +0.000 C 
ATOM      9  C   UNL     1      -5.602   5.084 131.583  0.00  0.00    +0.000 C 
ATOM     10  C   UNL     1      -5.746   3.530 132.291  0.00  0.00    +0.000 C 
ATOM     11  C   UNL     1      -4.489   3.180 133.044  0.00  0.00    +0.000 C 
ATOM     12  C   UNL     1      -3.250   3.355 132.190  0.00  0.00    +0.000 C 
ATOM     13  C   UNL     1      -2.070   3.035 133.082  0.00  0.00    +0.000 C 
ATOM     14  C   UNL     1      -3.086   4.693 131.497  0.00  0.00    +0.000 C 
ATOM     15  C   UNL     1      -1.931   5.389 131.429  0.00  0.00    +0.000 C 
ATOM     16  C   UNL     1      -1.995   6.578 130.546  0.00  0.00    +0.000 C 
ATOM     17  O   UNL     1      -1.511   6.709 129.432  0.00  0.00    +0.000 OA
ATOM     18  C   UNL     1      -2.900   7.626 131.126  0.00  0.00    +0.000 C 
ATOM     19  C   UNL     1      -3.979   6.906 130.714  0.00  0.00    +0.000 C 
ATOM     20  C   UNL     1      -4.290   5.291 130.764  0.00  0.00    +0.000 C 
ATOM     21  C   UNL     1      -4.485   4.420 129.514  0.00  0.00    +0.000 C 
ENDROOT
BRANCH   4  22
ATOM     22  O   UNL     1      -8.256   2.148 131.964  0.00  0.00    +0.000 OA
ATOM     23  H   UNL     1      -8.680   1.873 132.786  0.00  0.00    +0.000 HD
ENDBRANCH   4  22
BRANCH   4  24
ATOM     24  C   UNL     1      -9.673   3.691 130.743  0.00  0.00    +0.000 C 
ATOM     25  O   UNL     1      -9.846   2.907 129.793  0.00  0.00    +0.000 OA
BRANCH  24  26
ATOM     26  C   UNL     1     -10.892   4.811 130.816  0.00  0.00    +0.000 C 
BRANCH  26  27
ATOM     27  O   UNL     1     -11.164   5.380 129.410  0.00  0.00    +0.000 OA
BRANCH  27  28
ATOM     28  C   UNL     1     -10.331   6.299 128.809  0.00  0.00    +0.000 C 
ATOM     29  O   UNL     1      -9.332   5.985 128.175  0.00  0.00    +0.000 OA
BRANCH  28  30
ATOM     30  C   UNL     1     -10.762   7.780 129.008  0.00  0.00    +0.000 C 
BRANCH  30  31
ATOM     31  C   UNL     1     -10.992   8.531 127.676  0.00  0.00    +0.000 C 
BRANCH  31  32
ATOM     32  C   UNL     1     -11.373   7.714 126.449  0.00  0.00    +0.000 C 
ATOM     33  O   UNL     1     -12.235   6.844 126.490  0.00  0.00    +0.000 OA
BRANCH  32  34
ATOM     34  O   UNL     1     -10.728   7.978 125.298  0.00  0.00    +0.000 OA
ATOM     35  H   UNL     1      -9.843   7.601 125.164  0.00  0.00    +0.000 HD
ENDBRANCH  32  34
ENDBRANCH  31  32
ENDBRANCH  30  31
ENDBRANCH  28  30
ENDBRANCH  27  28
ENDBRANCH  26  27
ENDBRANCH  24  26
ENDBRANCH   4  24
BRANCH   8  36
ATOM     36  O   UNL     1      -7.368   4.815 129.777  0.00  0.00    +0.000 OA
ATOM     37  H   UNL     1      -6.584   4.340 129.447  0.00  0.00    +0.000 HD
ENDBRANCH   8  36
TORSDOF 10
ENDMDL
MODEL 9
REMARK VINA RESULT:      -8.1      4.814      7.568
REMARK  Name = Methylprednisolone hemisuccinate
REMARK  13 active torsions:
REMARK  status: ('A' for Active; 'I' for Inactive)
REMARK    1  A    between atoms: C_5  and  O_6
REMARK    2  A    between atoms: C_5  and  C_7
REMARK    3  A    between atoms: C_7  and  C_9
REMARK    4  A    between atoms: C_9  and  O_10
REMARK    5  A    between atoms: O_10  and  C_11
REMARK    6  A    between atoms: C_11  and  C_13
REMARK    7  A    between atoms: C_13  and  C_14
REMARK    8  A    between atoms: C_14  and  C_15
REMARK    9  A    between atoms: C_15  and  O_16
REMARK   10  A    between atoms: C_18  and  C_19
REMARK   11  A    between atoms: C_21  and  O_22
REMARK   12  A    between atoms: C_28  and  C_29
REMARK   13  A    between atoms: C_36  and  C_37
REMARK                            x       y       z     vdW  Elec       q    Type
REMARK                         _______ _______ _______ _____ _____    ______ ____
ROOT
ATOM      1  C   UNL     1      -8.679   0.384 125.376  0.00  0.00    +0.000 C 
ATOM      2  C   UNL     1     -10.023   0.591 125.781  0.00  0.00    +0.000 C 
ATOM      3  C   UNL     1      -8.958   1.315 126.562  0.00  0.00    +0.000 C 
ATOM      4  C   UNL     1      -7.091   1.529 125.681  0.00  0.00    +0.000 C 
ATOM      5  C   UNL     1      -8.240   2.231 125.574  0.00  0.00    +0.000 C 
ATOM      6  C   UNL     1      -8.741   3.058 124.451  0.00  0.00    +0.000 C 
ATOM      7  C   UNL     1      -7.670   2.827 127.268  0.00  0.00    +0.000 C 
ATOM      8  C   UNL     1      -6.887   1.561 128.127  0.00  0.00    +0.000 C 
ATOM      9  C   UNL     1      -7.525   0.030 128.157  0.00  0.00    +0.000 C 
ATOM     10  C   UNL     1      -7.774  -0.627 126.594  0.00  0.00    +0.000 C 
ATOM     11  C   UNL     1      -8.531  -1.926 126.687  0.00  0.00    +0.000 C 
ATOM     12  C   UNL     1      -7.887  -2.888 127.664  0.00  0.00    +0.000 C 
ATOM     13  C   UNL     1      -8.778  -4.111 127.706  0.00  0.00    +0.000 C 
ATOM     14  C   UNL     1      -7.597  -2.354 129.052  0.00  0.00    +0.000 C 
ATOM     15  C   UNL     1      -7.836  -3.023 130.201  0.00  0.00    +0.000 C 
ATOM     16  C   UNL     1      -7.301  -2.354 131.410  0.00  0.00    +0.000 C 
ATOM     17  O   UNL     1      -6.319  -2.667 132.065  0.00  0.00    +0.000 OA
ATOM     18  C   UNL     1      -8.044  -1.079 131.689  0.00  0.00    +0.000 C 
ATOM     19  C   UNL     1      -7.345  -0.468 130.692  0.00  0.00    +0.000 C 
ATOM     20  C   UNL     1      -6.930  -0.982 129.185  0.00  0.00    +0.000 C 
ATOM     21  C   UNL     1      -5.479  -1.183 128.721  0.00  0.00    +0.000 C 
ENDROOT
BRANCH   4  22
ATOM     22  O   UNL     1      -6.832   0.909 124.342  0.00  0.00    +0.000 OA
ATOM     23  H   UNL     1      -7.568   0.989 123.723  0.00  0.00    +0.000 HD
ENDBRANCH   4  22
BRANCH   4  24
ATOM     24  C   UNL     1      -5.929   2.945 125.299  0.00  0.00    +0.000 C 
ATOM     25  O   UNL     1      -4.731   2.923 125.635  0.00  0.00    +0.000 OA
BRANCH  24  26
ATOM     26  C   UNL     1      -6.326   4.404 124.621  0.00  0.00    +0.000 C 
BRANCH  26  27
ATOM     27  O   UNL     1      -5.583   4.577 123.281  0.00  0.00    +0.000 OA
BRANCH  27  28
ATOM     28  C   UNL     1      -5.882   3.825 122.166  0.00  0.00    +0.000 C 
ATOM     29  O   UNL     1      -6.860   3.092 122.094  0.00  0.00    +0.000 OA
BRANCH  28  30
ATOM     30  C   UNL     1      -4.866   3.977 120.999  0.00  0.00    +0.000 C 
BRANCH  30  31
ATOM     31  C   UNL     1      -5.069   5.273 120.180  0.00  0.00    +0.000 C 
BRANCH  31  32
ATOM     32  C   UNL     1      -6.085   5.252 119.046  0.00  0.00    +0.000 C 
ATOM     33  O   UNL     1      -5.989   5.991 118.073  0.00  0.00    +0.000 OA
BRANCH  32  34
ATOM     34  O   UNL     1      -7.110   4.386 119.142  0.00  0.00    +0.000 OA
ATOM     35  H   UNL     1      -7.575   4.309 119.991  0.00  0.00    +0.000 HD
ENDBRANCH  32  34
ENDBRANCH  31  32
ENDBRANCH  30  31
ENDBRANCH  28  30
ENDBRANCH  27  28
ENDBRANCH  26  27
ENDBRANCH  24  26
ENDBRANCH   4  24
BRANCH   8  36
ATOM     36  O   UNL     1      -5.540   1.516 127.604  0.00  0.00    +0.000 OA
ATOM     37  H   UNL     1      -5.485   0.890 126.859  0.00  0.00    +0.000 HD
ENDBRANCH   8  36
TORSDOF 10
ENDMDL
