MODEL 1
REMARK VINA RESULT:      -4.2      0.000      0.000
REMARK  Name = Methionine
REMARK  7 active torsions:
REMARK  status: ('A' for Active; 'I' for Inactive)
REMARK    1  A    between atoms: CE_1  and  SD_2
REMARK    2  A    between atoms: SD_2  and  CG_3
REMARK    3  A    between atoms: CG_3  and  CB_4
REMARK    4  A    between atoms: CB_4  and  CA_5
REMARK    5  A    between atoms: CA_5  and  N_6
REMARK    6  A    between atoms: CA_5  and  C_7
REMARK    7  A    between atoms: C_7  and  O_8
REMARK                            x       y       z     vdW  Elec       q    Type
REMARK                         _______ _______ _______ _____ _____    ______ ____
ROOT
ATOM      1  CA  MET A   1     -11.869   7.767 127.097  0.00  0.00    +0.000 C 
ENDROOT
BRANCH   1   2
ATOM      2  N   MET A   1     -12.225   6.693 126.150  0.00  0.00    +0.000 NA
ATOM      3  H1  MET A   1     -11.948   5.773 126.477  0.00  0.00    +0.000 HD
ATOM      4  H2  MET A   1     -11.893   6.878 125.208  0.00  0.00    +0.000 HD
ENDBRANCH   1   2
BRANCH   1   5
ATOM      5  C   MET A   1     -10.478   7.570 127.718  0.00  0.00    +0.000 C 
ATOM      6  OXT MET A   1      -9.981   8.340 128.534  0.00  0.00    +0.000 OA
BRANCH   5   7
ATOM      7  O   MET A   1      -9.815   6.468 127.296  0.00  0.00    +0.000 OA
ATOM      8  H   MET A   1     -10.413   5.724 127.103  0.00  0.00    +0.000 HD
ENDBRANCH   5   7
ENDBRANCH   1   5
BRANCH   1   9
ATOM      9  CB  MET A   1     -12.941   7.999 128.184  0.00  0.00    +0.000 C 
BRANCH   9  10
ATOM     10  CG  MET A   1     -13.126   6.859 129.200  0.00  0.00    +0.000 C 
BRANCH  10  12
ATOM     11  CE  MET A   1     -11.517   6.320 131.425  0.00  0.00    +0.000 C 
ATOM     12  SD  MET A   1     -12.794   7.486 130.884  0.00  0.00    +0.000 S 
ENDBRANCH  10  12
ENDBRANCH   9  10
ENDBRANCH   1   9
TORSDOF 6
ENDMDL
MODEL 2
REMARK VINA RESULT:      -4.1      2.003      2.265
REMARK  Name = Methionine
REMARK  7 active torsions:
REMARK  status: ('A' for Active; 'I' for Inactive)
REMARK    1  A    between atoms: CE_1  and  SD_2
REMARK    2  A    between atoms: SD_2  and  CG_3
REMARK    3  A    between atoms: CG_3  and  CB_4
REMARK    4  A    between atoms: CB_4  and  CA_5
REMARK    5  A    between atoms: CA_5  and  N_6
REMARK    6  A    between atoms: CA_5  and  C_7
REMARK    7  A    between atoms: C_7  and  O_8
REMARK                            x       y       z     vdW  Elec       q    Type
REMARK                         _______ _______ _______ _____ _____    ______ ____
ROOT
ATOM      1  CA  MET A   1     -10.675   8.086 127.884  0.00  0.00    +0.000 C 
ENDROOT
BRANCH   1   2
ATOM      2  N   MET A   1     -11.960   8.803 127.997  0.00  0.00    +0.000 NA
ATOM      3  H1  MET A   1     -12.716   8.207 128.317  0.00  0.00    +0.000 HD
ATOM      4  H2  MET A   1     -12.203   9.302 127.146  0.00  0.00    +0.000 HD
ENDBRANCH   1   2
BRANCH   1   5
ATOM      5  C   MET A   1     -10.684   7.030 126.768  0.00  0.00    +0.000 C 
ATOM      6  OXT MET A   1      -9.686   6.416 126.405  0.00  0.00    +0.000 OA
BRANCH   5   7
ATOM      7  O   MET A   1     -11.890   6.819 126.192  0.00  0.00    +0.000 OA
ATOM      8  H   MET A   1     -12.186   7.576 125.656  0.00  0.00    +0.000 HD
ENDBRANCH   5   7
ENDBRANCH   1   5
BRANCH   1   9
ATOM      9  CB  MET A   1     -10.196   7.483 129.223  0.00  0.00    +0.000 C 
BRANCH   9  10
ATOM     10  CG  MET A   1     -10.942   6.224 129.698  0.00  0.00    +0.000 C 
BRANCH  10  12
ATOM     11  CE  MET A   1     -12.867   7.474 131.298  0.00  0.00    +0.000 C 
ATOM     12  SD  MET A   1     -11.403   6.419 131.455  0.00  0.00    +0.000 S 
ENDBRANCH  10  12
ENDBRANCH   9  10
ENDBRANCH   1   9
TORSDOF 6
ENDMDL
MODEL 3
REMARK VINA RESULT:      -4.1      1.976      2.061
REMARK  Name = Methionine
REMARK  7 active torsions:
REMARK  status: ('A' for Active; 'I' for Inactive)
REMARK    1  A    between atoms: CE_1  and  SD_2
REMARK    2  A    between atoms: SD_2  and  CG_3
REMARK    3  A    between atoms: CG_3  and  CB_4
REMARK    4  A    between atoms: CB_4  and  CA_5
REMARK    5  A    between atoms: CA_5  and  N_6
REMARK    6  A    between atoms: CA_5  and  C_7
REMARK    7  A    between atoms: C_7  and  O_8
REMARK                            x       y       z     vdW  Elec       q    Type
REMARK                         _______ _______ _______ _____ _____    ______ ____
ROOT
ATOM      1  CA  MET A   1     -11.221   7.801 127.894  0.00  0.00    +0.000 C 
ENDROOT
BRANCH   1   2
ATOM      2  N   MET A   1     -10.199   8.831 128.165  0.00  0.00    +0.000 NA
ATOM      3  H1  MET A   1      -9.827   8.778 129.107  0.00  0.00    +0.000 HD
ATOM      4  H2  MET A   1     -10.519   9.767 127.934  0.00  0.00    +0.000 HD
ENDBRANCH   1   2
BRANCH   1   5
ATOM      5  C   MET A   1     -11.371   7.497 126.396  0.00  0.00    +0.000 C 
ATOM      6  OXT MET A   1     -10.736   8.073 125.518  0.00  0.00    +0.000 OA
BRANCH   5   7
ATOM      7  O   MET A   1     -12.273   6.534 126.097  0.00  0.00    +0.000 OA
ATOM      8  H   MET A   1     -11.925   5.637 126.241  0.00  0.00    +0.000 HD
ENDBRANCH   5   7
ENDBRANCH   1   5
BRANCH   1   9
ATOM      9  CB  MET A   1     -12.586   8.114 128.543  0.00  0.00    +0.000 C 
BRANCH   9  10
ATOM     10  CG  MET A   1     -13.144   7.037 129.489  0.00  0.00    +0.000 C 
BRANCH  10  12
ATOM     11  CE  MET A   1     -11.556   6.503 131.731  0.00  0.00    +0.000 C 
ATOM     12  SD  MET A   1     -11.786   5.938 130.025  0.00  0.00    +0.000 S 
ENDBRANCH  10  12
ENDBRANCH   9  10
ENDBRANCH   1   9
TORSDOF 6
ENDMDL
MODEL 4
REMARK VINA RESULT:      -4.0      1.971      2.229
REMARK  Name = Methionine
REMARK  7 active torsions:
REMARK  status: ('A' for Active; 'I' for Inactive)
REMARK    1  A    between atoms: CE_1  and  SD_2
REMARK    2  A    between atoms: SD_2  and  CG_3
REMARK    3  A    between atoms: CG_3  and  CB_4
REMARK    4  A    between atoms: CB_4  and  CA_5
REMARK    5  A    between atoms: CA_5  and  N_6
REMARK    6  A    between atoms: CA_5  and  C_7
REMARK    7  A    between atoms: C_7  and  O_8
REMARK                            x       y       z     vdW  Elec       q    Type
REMARK                         _______ _______ _______ _____ _____    ______ ____
ROOT
ATOM      1  CA  MET A   1     -12.101   8.753 129.199  0.00  0.00    +0.000 C 
ENDROOT
BRANCH   1   2
ATOM      2  N   MET A   1     -13.046   9.693 128.567  0.00  0.00    +0.000 NA
ATOM      3  H1  MET A   1     -13.897   9.241 128.248  0.00  0.00    +0.000 HD
ATOM      4  H2  MET A   1     -12.613  10.249 127.835  0.00  0.00    +0.000 HD
ENDBRANCH   1   2
BRANCH   1   5
ATOM      5  C   MET A   1     -10.902   8.424 128.296  0.00  0.00    +0.000 C 
ATOM      6  OXT MET A   1     -10.951   8.438 127.070  0.00  0.00    +0.000 OA
BRANCH   5   7
ATOM      7  O   MET A   1      -9.763   8.106 128.953  0.00  0.00    +0.000 OA
ATOM      8  H   MET A   1      -9.873   8.121 129.920  0.00  0.00    +0.000 HD
ENDBRANCH   5   7
ENDBRANCH   1   5
BRANCH   1   9
ATOM      9  CB  MET A   1     -12.779   7.468 129.721  0.00  0.00    +0.000 C 
BRANCH   9  10
ATOM     10  CG  MET A   1     -12.786   7.284 131.249  0.00  0.00    +0.000 C 
BRANCH  10  12
ATOM     11  CE  MET A   1     -11.216   5.124 130.413  0.00  0.00    +0.000 C 
ATOM     12  SD  MET A   1     -11.305   6.340 131.753  0.00  0.00    +0.000 S 
ENDBRANCH  10  12
ENDBRANCH   9  10
ENDBRANCH   1   9
TORSDOF 6
ENDMDL
MODEL 5
REMARK VINA RESULT:      -4.0      3.027      3.915
REMARK  Name = Methionine
REMARK  7 active torsions:
REMARK  status: ('A' for Active; 'I' for Inactive)
REMARK    1  A    between atoms: CE_1  and  SD_2
REMARK    2  A    between atoms: SD_2  and  CG_3
REMARK    3  A    between atoms: CG_3  and  CB_4
REMARK    4  A    between atoms: CB_4  and  CA_5
REMARK    5  A    between atoms: CA_5  and  N_6
REMARK    6  A    between atoms: CA_5  and  C_7
REMARK    7  A    between atoms: C_7  and  O_8
REMARK                            x       y       z     vdW  Elec       q    Type
REMARK                         _______ _______ _______ _____ _____    ______ ____
ROOT
ATOM      1  CA  MET A   1     -11.816   6.250 129.968  0.00  0.00    +0.000 C 
ENDROOT
BRANCH   1   2
ATOM      2  N   MET A   1     -11.443   4.833 129.790  0.00  0.00    +0.000 NA
ATOM      3  H1  MET A   1     -10.454   4.707 129.601  0.00  0.00    +0.000 HD
ATOM      4  H2  MET A   1     -12.025   4.360 129.103  0.00  0.00    +0.000 HD
ENDBRANCH   1   2
BRANCH   1   5
ATOM      5  C   MET A   1     -12.149   6.594 131.427  0.00  0.00    +0.000 C 
ATOM      6  OXT MET A   1     -13.082   7.318 131.760  0.00  0.00    +0.000 OA
BRANCH   5   7
ATOM      7  O   MET A   1     -11.325   6.039 132.346  0.00  0.00    +0.000 OA
ATOM      8  H   MET A   1     -11.336   6.516 133.195  0.00  0.00    +0.000 HD
ENDBRANCH   5   7
ENDBRANCH   1   5
BRANCH   1   9
ATOM      9  CB  MET A   1     -12.940   6.707 129.013  0.00  0.00    +0.000 C 
BRANCH   9  10
ATOM     10  CG  MET A   1     -12.779   8.114 128.411  0.00  0.00    +0.000 C 
BRANCH  10  12
ATOM     11  CE  MET A   1     -10.873   7.533 126.445  0.00  0.00    +0.000 C 
ATOM     12  SD  MET A   1     -11.018   8.411 128.024  0.00  0.00    +0.000 S 
ENDBRANCH  10  12
ENDBRANCH   9  10
ENDBRANCH   1   9
TORSDOF 6
ENDMDL
MODEL 6
REMARK VINA RESULT:      -3.9      2.880      3.979
REMARK  Name = Methionine
REMARK  7 active torsions:
REMARK  status: ('A' for Active; 'I' for Inactive)
REMARK    1  A    between atoms: CE_1  and  SD_2
REMARK    2  A    between atoms: SD_2  and  CG_3
REMARK    3  A    between atoms: CG_3  and  CB_4
REMARK    4  A    between atoms: CB_4  and  CA_5
REMARK    5  A    between atoms: CA_5  and  N_6
REMARK    6  A    between atoms: CA_5  and  C_7
REMARK    7  A    between atoms: C_7  and  O_8
REMARK                            x       y       z     vdW  Elec       q    Type
REMARK                         _______ _______ _______ _____ _____    ______ ____
ROOT
ATOM      1  CA  MET A   1     -10.431   6.103 130.496  0.00  0.00    +0.000 C 
ENDROOT
BRANCH   1   2
ATOM      2  N   MET A   1     -11.137   5.168 129.600  0.00  0.00    +0.000 NA
ATOM      3  H1  MET A   1     -10.948   5.344 128.619  0.00  0.00    +0.000 HD
ATOM      4  H2  MET A   1     -12.134   5.121 129.792  0.00  0.00    +0.000 HD
ENDBRANCH   1   2
BRANCH   1   5
ATOM      5  C   MET A   1     -11.219   6.399 131.781  0.00  0.00    +0.000 C 
ATOM      6  OXT MET A   1     -12.431   6.586 131.807  0.00  0.00    +0.000 OA
BRANCH   5   7
ATOM      7  O   MET A   1     -10.474   6.446 132.910  0.00  0.00    +0.000 OA
ATOM      8  H   MET A   1     -10.774   5.809 133.583  0.00  0.00    +0.000 HD
ENDBRANCH   5   7
ENDBRANCH   1   5
BRANCH   1   9
ATOM      9  CB  MET A   1      -9.994   7.407 129.793  0.00  0.00    +0.000 C 
BRANCH   9  10
ATOM     10  CG  MET A   1     -10.711   7.729 128.470  0.00  0.00    +0.000 C 
BRANCH  10  12
ATOM     11  CE  MET A   1     -13.492   7.552 128.214  0.00  0.00    +0.000 C 
ATOM     12  SD  MET A   1     -12.223   8.695 128.819  0.00  0.00    +0.000 S 
ENDBRANCH  10  12
ENDBRANCH   9  10
ENDBRANCH   1   9
TORSDOF 6
ENDMDL
MODEL 7
REMARK VINA RESULT:      -3.8      2.358      2.703
REMARK  Name = Methionine
REMARK  7 active torsions:
REMARK  status: ('A' for Active; 'I' for Inactive)
REMARK    1  A    between atoms: CE_1  and  SD_2
REMARK    2  A    between atoms: SD_2  and  CG_3
REMARK    3  A    between atoms: CG_3  and  CB_4
REMARK    4  A    between atoms: CB_4  and  CA_5
REMARK    5  A    between atoms: CA_5  and  N_6
REMARK    6  A    between atoms: CA_5  and  C_7
REMARK    7  A    between atoms: C_7  and  O_8
REMARK                            x       y       z     vdW  Elec       q    Type
REMARK                         _______ _______ _______ _____ _____    ______ ____
ROOT
ATOM      1  CA  MET A   1     -11.023   8.346 127.899  0.00  0.00    +0.000 C 
ENDROOT
BRANCH   1   2
ATOM      2  N   MET A   1     -12.143   9.118 128.472  0.00  0.00    +0.000 NA
ATOM      3  H1  MET A   1     -12.947   9.163 127.855  0.00  0.00    +0.000 HD
ATOM      4  H2  MET A   1     -11.857  10.039 128.793  0.00  0.00    +0.000 HD
ENDBRANCH   1   2
BRANCH   1   5
ATOM      5  C   MET A   1     -11.424   7.579 126.630  0.00  0.00    +0.000 C 
ATOM      6  OXT MET A   1     -12.238   6.661 126.619  0.00  0.00    +0.000 OA
BRANCH   5   7
ATOM      7  O   MET A   1     -10.804   7.985 125.498  0.00  0.00    +0.000 OA
ATOM      8  H   MET A   1     -10.174   8.709 125.656  0.00  0.00    +0.000 HD
ENDBRANCH   5   7
ENDBRANCH   1   5
BRANCH   1   9
ATOM      9  CB  MET A   1     -10.337   7.417 128.924  0.00  0.00    +0.000 C 
BRANCH   9  10
ATOM     10  CG  MET A   1     -11.086   7.213 130.252  0.00  0.00    +0.000 C 
BRANCH  10  12
ATOM     11  CE  MET A   1      -8.403   6.820 130.947  0.00  0.00    +0.000 C 
ATOM     12  SD  MET A   1     -10.054   6.213 131.383  0.00  0.00    +0.000 S 
ENDBRANCH  10  12
ENDBRANCH   9  10
ENDBRANCH   1   9
TORSDOF 6
ENDMDL
MODEL 8
REMARK VINA RESULT:      -3.8      3.034      3.931
REMARK  Name = Methionine
REMARK  7 active torsions:
REMARK  status: ('A' for Active; 'I' for Inactive)
REMARK    1  A    between atoms: CE_1  and  SD_2
REMARK    2  A    between atoms: SD_2  and  CG_3
REMARK    3  A    between atoms: CG_3  and  CB_4
REMARK    4  A    between atoms: CB_4  and  CA_5
REMARK    5  A    between atoms: CA_5  and  N_6
REMARK    6  A    between atoms: CA_5  and  C_7
REMARK    7  A    between atoms: C_7  and  O_8
REMARK                            x       y       z     vdW  Elec       q    Type
REMARK                         _______ _______ _______ _____ _____    ______ ____
ROOT
ATOM      1  CA  MET A   1     -11.632   5.993 131.407  0.00  0.00    +0.000 C 
ENDROOT
BRANCH   1   2
ATOM      2  N   MET A   1     -10.755   6.198 132.576  0.00  0.00    +0.000 NA
ATOM      3  H1  MET A   1      -9.795   6.402 132.317  0.00  0.00    +0.000 HD
ATOM      4  H2  MET A   1     -10.814   5.436 133.246  0.00  0.00    +0.000 HD
ENDBRANCH   1   2
BRANCH   1   5
ATOM      5  C   MET A   1     -11.007   5.064 130.355  0.00  0.00    +0.000 C 
ATOM      6  OXT MET A   1     -10.112   5.408 129.590  0.00  0.00    +0.000 OA
BRANCH   5   7
ATOM      7  O   MET A   1     -11.521   3.813 130.322  0.00  0.00    +0.000 OA
ATOM      8  H   MET A   1     -12.008   3.631 129.499  0.00  0.00    +0.000 HD
ENDBRANCH   5   7
ENDBRANCH   1   5
BRANCH   1   9
ATOM      9  CB  MET A   1     -12.117   7.314 130.772  0.00  0.00    +0.000 C 
BRANCH   9  10
ATOM     10  CG  MET A   1     -13.056   7.173 129.562  0.00  0.00    +0.000 C 
BRANCH  10  12
ATOM     11  CE  MET A   1     -11.061   8.446 128.068  0.00  0.00    +0.000 C 
ATOM     12  SD  MET A   1     -12.826   8.602 128.445  0.00  0.00    +0.000 S 
ENDBRANCH  10  12
ENDBRANCH   9  10
ENDBRANCH   1   9
TORSDOF 6
ENDMDL
MODEL 9
REMARK VINA RESULT:      -3.8      9.062      9.924
REMARK  Name = Methionine
REMARK  7 active torsions:
REMARK  status: ('A' for Active; 'I' for Inactive)
REMARK    1  A    between atoms: CE_1  and  SD_2
REMARK    2  A    between atoms: SD_2  and  CG_3
REMARK    3  A    between atoms: CG_3  and  CB_4
REMARK    4  A    between atoms: CB_4  and  CA_5
REMARK    5  A    between atoms: CA_5  and  N_6
REMARK    6  A    between atoms: CA_5  and  C_7
REMARK    7  A    between atoms: C_7  and  O_8
REMARK                            x       y       z     vdW  Elec       q    Type
REMARK                         _______ _______ _______ _____ _____    ______ ____
ROOT
ATOM      1  CA  MET A   1      -5.044   4.100 121.124  0.00  0.00    +0.000 C 
ENDROOT
BRANCH   1   2
ATOM      2  N   MET A   1      -4.872   4.797 122.413  0.00  0.00    +0.000 NA
ATOM      3  H1  MET A   1      -5.366   5.682 122.452  0.00  0.00    +0.000 HD
ATOM      4  H2  MET A   1      -3.895   4.894 122.676  0.00  0.00    +0.000 HD
ENDBRANCH   1   2
BRANCH   1   5
ATOM      5  C   MET A   1      -5.527   5.037 120.007  0.00  0.00    +0.000 C 
ATOM      6  OXT MET A   1      -6.367   4.722 119.171  0.00  0.00    +0.000 OA
BRANCH   5   7
ATOM      7  O   MET A   1      -4.950   6.261 119.999  0.00  0.00    +0.000 OA
ATOM      8  H   MET A   1      -4.023   6.239 120.296  0.00  0.00    +0.000 HD
ENDBRANCH   5   7
ENDBRANCH   1   5
BRANCH   1   9
ATOM      9  CB  MET A   1      -5.934   2.843 121.226  0.00  0.00    +0.000 C 
BRANCH   9  10
ATOM     10  CG  MET A   1      -6.775   2.718 122.508  0.00  0.00    +0.000 C 
BRANCH  10  12
ATOM     11  CE  MET A   1      -9.329   1.695 123.024  0.00  0.00    +0.000 C 
ATOM     12  SD  MET A   1      -8.531   3.045 122.117  0.00  0.00    +0.000 S 
ENDBRANCH  10  12
ENDBRANCH   9  10
ENDBRANCH   1   9
TORSDOF 6
ENDMDL
