MODEL 1
REMARK VINA RESULT:      -5.5      0.000      0.000
REMARK  Name = Methoxyphenamine
REMARK  7 active torsions:
REMARK  status: ('A' for Active; 'I' for Inactive)
REMARK    1  A    between atoms: C_1  and  N_2
REMARK    2  A    between atoms: N_2  and  C_3
REMARK    3  A    between atoms: C_3  and  C_4
REMARK    4  A    between atoms: C_3  and  C_5
REMARK    5  A    between atoms: C_5  and  C_6
REMARK    6  A    between atoms: C_11  and  O_12
REMARK    7  A    between atoms: O_12  and  C_13
REMARK                            x       y       z     vdW  Elec       q    Type
REMARK                         _______ _______ _______ _____ _____    ______ ____
ROOT
ATOM      1  C   UNL     1     -12.629   7.948 130.285  0.00  0.00    +0.000 A 
ATOM      2  C   UNL     1     -12.881   9.204 130.892  0.00  0.00    +0.000 A 
ATOM      3  C   UNL     1     -13.420  10.268 130.174  0.00  0.00    +0.000 A 
ATOM      4  C   UNL     1     -13.589  10.148 128.809  0.00  0.00    +0.000 A 
ATOM      5  C   UNL     1     -13.225   8.959 128.170  0.00  0.00    +0.000 A 
ATOM      6  C   UNL     1     -12.755   7.843 128.893  0.00  0.00    +0.000 A 
ENDROOT
BRANCH   6   7
ATOM      7  O   UNL     1     -12.534   6.767 128.074  0.00  0.00    +0.000 OA
ATOM      8  C   UNL     1     -12.531   6.955 126.671  0.00  0.00    +0.000 C 
ENDBRANCH   6   7
BRANCH   1   9
ATOM      9  C   UNL     1     -12.497   6.795 131.269  0.00  0.00    +0.000 C 
BRANCH   9  10
ATOM     10  C   UNL     1     -11.021   6.302 131.332  0.00  0.00    +0.000 C 
ATOM     11  C   UNL     1     -10.900   4.955 130.603  0.00  0.00    +0.000 C 
BRANCH  10  13
ATOM     12  C   UNL     1      -9.199   5.831 132.890  0.00  0.00    +0.000 C 
ATOM     13  N   UNL     1     -10.605   6.193 132.744  0.00  0.00    +0.000 NA
ATOM     14  H   UNL     1     -10.748   7.096 133.198  0.00  0.00    +0.000 HD
ENDBRANCH  10  13
ENDBRANCH   9  10
ENDBRANCH   1   9
TORSDOF 4
ENDMDL
MODEL 2
REMARK VINA RESULT:      -5.2      2.208      3.357
REMARK  Name = Methoxyphenamine
REMARK  7 active torsions:
REMARK  status: ('A' for Active; 'I' for Inactive)
REMARK    1  A    between atoms: C_1  and  N_2
REMARK    2  A    between atoms: N_2  and  C_3
REMARK    3  A    between atoms: C_3  and  C_4
REMARK    4  A    between atoms: C_3  and  C_5
REMARK    5  A    between atoms: C_5  and  C_6
REMARK    6  A    between atoms: C_11  and  O_12
REMARK    7  A    between atoms: O_12  and  C_13
REMARK                            x       y       z     vdW  Elec       q    Type
REMARK                         _______ _______ _______ _____ _____    ______ ____
ROOT
ATOM      1  C   UNL     1     -10.790   7.065 128.927  0.00  0.00    +0.000 A 
ATOM      2  C   UNL     1     -10.543   7.264 127.545  0.00  0.00    +0.000 A 
ATOM      3  C   UNL     1     -11.582   7.370 126.623  0.00  0.00    +0.000 A 
ATOM      4  C   UNL     1     -12.879   7.141 127.037  0.00  0.00    +0.000 A 
ATOM      5  C   UNL     1     -13.132   6.815 128.372  0.00  0.00    +0.000 A 
ATOM      6  C   UNL     1     -12.101   6.785 129.335  0.00  0.00    +0.000 A 
ENDROOT
BRANCH   6   7
ATOM      7  O   UNL     1     -12.588   6.520 130.588  0.00  0.00    +0.000 OA
ATOM      8  C   UNL     1     -12.937   7.597 131.438  0.00  0.00    +0.000 C 
ENDBRANCH   6   7
BRANCH   1   9
ATOM      9  C   UNL     1      -9.623   7.437 129.829  0.00  0.00    +0.000 C 
BRANCH   9  10
ATOM     10  C   UNL     1      -9.025   6.162 130.494  0.00  0.00    +0.000 C 
ATOM     11  C   UNL     1      -9.319   6.186 132.002  0.00  0.00    +0.000 C 
BRANCH  10  13
ATOM     12  C   UNL     1      -6.800   6.930 131.152  0.00  0.00    +0.000 C 
ATOM     13  N   UNL     1      -7.574   6.110 130.226  0.00  0.00    +0.000 NA
ATOM     14  H   UNL     1      -7.259   5.143 130.319  0.00  0.00    +0.000 HD
ENDBRANCH  10  13
ENDBRANCH   9  10
ENDBRANCH   1   9
TORSDOF 4
ENDMDL
MODEL 3
REMARK VINA RESULT:      -5.2      1.291      1.485
REMARK  Name = Methoxyphenamine
REMARK  7 active torsions:
REMARK  status: ('A' for Active; 'I' for Inactive)
REMARK    1  A    between atoms: C_1  and  N_2
REMARK    2  A    between atoms: N_2  and  C_3
REMARK    3  A    between atoms: C_3  and  C_4
REMARK    4  A    between atoms: C_3  and  C_5
REMARK    5  A    between atoms: C_5  and  C_6
REMARK    6  A    between atoms: C_11  and  O_12
REMARK    7  A    between atoms: O_12  and  C_13
REMARK                            x       y       z     vdW  Elec       q    Type
REMARK                         _______ _______ _______ _____ _____    ______ ____
ROOT
ATOM      1  C   UNL     1     -11.834   7.225 130.128  0.00  0.00    +0.000 A 
ATOM      2  C   UNL     1     -12.509   8.188 130.919  0.00  0.00    +0.000 A 
ATOM      3  C   UNL     1     -13.210   9.245 130.344  0.00  0.00    +0.000 A 
ATOM      4  C   UNL     1     -13.136   9.444 128.980  0.00  0.00    +0.000 A 
ATOM      5  C   UNL     1     -12.368   8.579 128.196  0.00  0.00    +0.000 A 
ATOM      6  C   UNL     1     -11.720   7.455 128.750  0.00  0.00    +0.000 A 
ENDROOT
BRANCH   6   7
ATOM      7  O   UNL     1     -11.092   6.708 127.788  0.00  0.00    +0.000 OA
ATOM      8  C   UNL     1     -10.710   7.326 126.573  0.00  0.00    +0.000 C 
ENDBRANCH   6   7
BRANCH   1   9
ATOM      9  C   UNL     1     -11.534   5.921 130.853  0.00  0.00    +0.000 C 
BRANCH   9  10
ATOM     10  C   UNL     1     -10.390   6.127 131.888  0.00  0.00    +0.000 C 
ATOM     11  C   UNL     1      -9.137   6.652 131.169  0.00  0.00    +0.000 C 
BRANCH  10  13
ATOM     12  C   UNL     1      -9.633   3.813 131.674  0.00  0.00    +0.000 C 
ATOM     13  N   UNL     1     -10.123   4.849 132.578  0.00  0.00    +0.000 NA
ATOM     14  H   UNL     1      -9.413   5.006 133.295  0.00  0.00    +0.000 HD
ENDBRANCH  10  13
ENDBRANCH   9  10
ENDBRANCH   1   9
TORSDOF 4
ENDMDL
MODEL 4
REMARK VINA RESULT:      -5.1      2.135      2.765
REMARK  Name = Methoxyphenamine
REMARK  7 active torsions:
REMARK  status: ('A' for Active; 'I' for Inactive)
REMARK    1  A    between atoms: C_1  and  N_2
REMARK    2  A    between atoms: N_2  and  C_3
REMARK    3  A    between atoms: C_3  and  C_4
REMARK    4  A    between atoms: C_3  and  C_5
REMARK    5  A    between atoms: C_5  and  C_6
REMARK    6  A    between atoms: C_11  and  O_12
REMARK    7  A    between atoms: O_12  and  C_13
REMARK                            x       y       z     vdW  Elec       q    Type
REMARK                         _______ _______ _______ _____ _____    ______ ____
ROOT
ATOM      1  C   UNL     1     -11.086   6.635 130.095  0.00  0.00    +0.000 A 
ATOM      2  C   UNL     1     -11.981   6.973 131.141  0.00  0.00    +0.000 A 
ATOM      3  C   UNL     1     -12.900   8.010 131.012  0.00  0.00    +0.000 A 
ATOM      4  C   UNL     1     -12.853   8.822 129.896  0.00  0.00    +0.000 A 
ATOM      5  C   UNL     1     -11.890   8.585 128.910  0.00  0.00    +0.000 A 
ATOM      6  C   UNL     1     -11.006   7.488 128.986  0.00  0.00    +0.000 A 
ENDROOT
BRANCH   6   7
ATOM      7  O   UNL     1     -10.205   7.408 127.877  0.00  0.00    +0.000 OA
ATOM      8  C   UNL     1     -10.786   7.535 126.593  0.00  0.00    +0.000 C 
ENDBRANCH   6   7
BRANCH   1   9
ATOM      9  C   UNL     1     -10.502   5.235 130.200  0.00  0.00    +0.000 C 
BRANCH   9  10
ATOM     10  C   UNL     1      -8.956   5.304 130.375  0.00  0.00    +0.000 C 
ATOM     11  C   UNL     1      -8.591   6.531 131.224  0.00  0.00    +0.000 C 
BRANCH  10  13
ATOM     12  C   UNL     1      -7.798   4.061 128.618  0.00  0.00    +0.000 C 
ATOM     13  N   UNL     1      -8.318   5.356 129.044  0.00  0.00    +0.000 NA
ATOM     14  H   UNL     1      -9.014   5.660 128.361  0.00  0.00    +0.000 HD
ENDBRANCH  10  13
ENDBRANCH   9  10
ENDBRANCH   1   9
TORSDOF 4
ENDMDL
MODEL 5
REMARK VINA RESULT:      -5.1     10.549     12.273
REMARK  Name = Methoxyphenamine
REMARK  7 active torsions:
REMARK  status: ('A' for Active; 'I' for Inactive)
REMARK    1  A    between atoms: C_1  and  N_2
REMARK    2  A    between atoms: N_2  and  C_3
REMARK    3  A    between atoms: C_3  and  C_4
REMARK    4  A    between atoms: C_3  and  C_5
REMARK    5  A    between atoms: C_5  and  C_6
REMARK    6  A    between atoms: C_11  and  O_12
REMARK    7  A    between atoms: O_12  and  C_13
REMARK                            x       y       z     vdW  Elec       q    Type
REMARK                         _______ _______ _______ _____ _____    ______ ____
ROOT
ATOM      1  C   UNL     1      -8.162  -2.968 124.419  0.00  0.00    +0.000 A 
ATOM      2  C   UNL     1      -6.874  -3.557 124.469  0.00  0.00    +0.000 A 
ATOM      3  C   UNL     1      -5.820  -3.079 123.695  0.00  0.00    +0.000 A 
ATOM      4  C   UNL     1      -6.062  -2.097 122.755  0.00  0.00    +0.000 A 
ATOM      5  C   UNL     1      -7.356  -1.593 122.599  0.00  0.00    +0.000 A 
ATOM      6  C   UNL     1      -8.417  -2.006 123.432  0.00  0.00    +0.000 A 
ENDROOT
BRANCH   6   7
ATOM      7  O   UNL     1      -9.573  -1.326 123.152  0.00  0.00    +0.000 OA
ATOM      8  C   UNL     1      -9.528   0.080 122.998  0.00  0.00    +0.000 C 
ENDBRANCH   6   7
BRANCH   1   9
ATOM      9  C   UNL     1      -9.038  -3.279 125.623  0.00  0.00    +0.000 C 
BRANCH   9  10
ATOM     10  C   UNL     1      -8.231  -3.099 126.942  0.00  0.00    +0.000 C 
ATOM     11  C   UNL     1      -8.917  -3.881 128.073  0.00  0.00    +0.000 C 
BRANCH  10  13
ATOM     12  C   UNL     1      -6.755  -1.214 127.434  0.00  0.00    +0.000 C 
ATOM     13  N   UNL     1      -8.134  -1.660 127.260  0.00  0.00    +0.000 NA
ATOM     14  H   UNL     1      -8.545  -1.127 126.492  0.00  0.00    +0.000 HD
ENDBRANCH  10  13
ENDBRANCH   9  10
ENDBRANCH   1   9
TORSDOF 4
ENDMDL
MODEL 6
REMARK VINA RESULT:      -5.0      9.470     11.951
REMARK  Name = Methoxyphenamine
REMARK  7 active torsions:
REMARK  status: ('A' for Active; 'I' for Inactive)
REMARK    1  A    between atoms: C_1  and  N_2
REMARK    2  A    between atoms: N_2  and  C_3
REMARK    3  A    between atoms: C_3  and  C_4
REMARK    4  A    between atoms: C_3  and  C_5
REMARK    5  A    between atoms: C_5  and  C_6
REMARK    6  A    between atoms: C_11  and  O_12
REMARK    7  A    between atoms: O_12  and  C_13
REMARK                            x       y       z     vdW  Elec       q    Type
REMARK                         _______ _______ _______ _____ _____    ______ ____
ROOT
ATOM      1  C   UNL     1      -8.611  -2.694 126.979  0.00  0.00    +0.000 A 
ATOM      2  C   UNL     1      -8.650  -3.672 128.004  0.00  0.00    +0.000 A 
ATOM      3  C   UNL     1      -8.243  -3.386 129.305  0.00  0.00    +0.000 A 
ATOM      4  C   UNL     1      -7.660  -2.164 129.579  0.00  0.00    +0.000 A 
ATOM      5  C   UNL     1      -7.494  -1.232 128.551  0.00  0.00    +0.000 A 
ATOM      6  C   UNL     1      -7.975  -1.473 127.246  0.00  0.00    +0.000 A 
ENDROOT
BRANCH   6   7
ATOM      7  O   UNL     1      -7.772  -0.395 126.426  0.00  0.00    +0.000 OA
ATOM      8  C   UNL     1      -8.727   0.649 126.406  0.00  0.00    +0.000 C 
ENDBRANCH   6   7
BRANCH   1   9
ATOM      9  C   UNL     1      -9.500  -3.006 125.785  0.00  0.00    +0.000 C 
BRANCH   9  10
ATOM     10  C   UNL     1      -8.675  -2.947 124.465  0.00  0.00    +0.000 C 
ATOM     11  C   UNL     1      -9.595  -3.250 123.273  0.00  0.00    +0.000 C 
BRANCH  10  13
ATOM     12  C   UNL     1      -6.278  -3.320 124.171  0.00  0.00    +0.000 C 
ATOM     13  N   UNL     1      -7.559  -3.910 124.547  0.00  0.00    +0.000 NA
ATOM     14  H   UNL     1      -7.484  -4.244 125.509  0.00  0.00    +0.000 HD
ENDBRANCH  10  13
ENDBRANCH   9  10
ENDBRANCH   1   9
TORSDOF 4
ENDMDL
MODEL 7
REMARK VINA RESULT:      -4.8     10.892     12.167
REMARK  Name = Methoxyphenamine
REMARK  7 active torsions:
REMARK  status: ('A' for Active; 'I' for Inactive)
REMARK    1  A    between atoms: C_1  and  N_2
REMARK    2  A    between atoms: N_2  and  C_3
REMARK    3  A    between atoms: C_3  and  C_4
REMARK    4  A    between atoms: C_3  and  C_5
REMARK    5  A    between atoms: C_5  and  C_6
REMARK    6  A    between atoms: C_11  and  O_12
REMARK    7  A    between atoms: O_12  and  C_13
REMARK                            x       y       z     vdW  Elec       q    Type
REMARK                         _______ _______ _______ _____ _____    ______ ____
ROOT
ATOM      1  C   UNL     1      -8.613  -2.773 126.404  0.00  0.00    +0.000 A 
ATOM      2  C   UNL     1      -8.903  -3.776 127.363  0.00  0.00    +0.000 A 
ATOM      3  C   UNL     1      -8.626  -3.597 128.716  0.00  0.00    +0.000 A 
ATOM      4  C   UNL     1      -7.928  -2.476 129.121  0.00  0.00    +0.000 A 
ATOM      5  C   UNL     1      -7.519  -1.535 128.172  0.00  0.00    +0.000 A 
ATOM      6  C   UNL     1      -7.863  -1.660 126.809  0.00  0.00    +0.000 A 
ENDROOT
BRANCH   6   7
ATOM      7  O   UNL     1      -7.424  -0.588 126.077  0.00  0.00    +0.000 OA
ATOM      8  C   UNL     1      -6.033  -0.389 125.908  0.00  0.00    +0.000 C 
ENDBRANCH   6   7
BRANCH   1   9
ATOM      9  C   UNL     1      -9.381  -2.916 125.099  0.00  0.00    +0.000 C 
BRANCH   9  10
ATOM     10  C   UNL     1      -8.397  -3.140 123.912  0.00  0.00    +0.000 C 
ATOM     11  C   UNL     1      -7.145  -3.874 124.417  0.00  0.00    +0.000 C 
BRANCH  10  13
ATOM     12  C   UNL     1      -9.235  -1.076 122.909  0.00  0.00    +0.000 C 
ATOM     13  N   UNL     1      -8.056  -1.835 123.311  0.00  0.00    +0.000 NA
ATOM     14  H   UNL     1      -7.542  -1.283 123.999  0.00  0.00    +0.000 HD
ENDBRANCH  10  13
ENDBRANCH   9  10
ENDBRANCH   1   9
TORSDOF 4
ENDMDL
MODEL 8
REMARK VINA RESULT:      -4.8      8.869     11.080
REMARK  Name = Methoxyphenamine
REMARK  7 active torsions:
REMARK  status: ('A' for Active; 'I' for Inactive)
REMARK    1  A    between atoms: C_1  and  N_2
REMARK    2  A    between atoms: N_2  and  C_3
REMARK    3  A    between atoms: C_3  and  C_4
REMARK    4  A    between atoms: C_3  and  C_5
REMARK    5  A    between atoms: C_5  and  C_6
REMARK    6  A    between atoms: C_11  and  O_12
REMARK    7  A    between atoms: O_12  and  C_13
REMARK                            x       y       z     vdW  Elec       q    Type
REMARK                         _______ _______ _______ _____ _____    ______ ____
ROOT
ATOM      1  C   UNL     1      -8.493  -1.144 126.158  0.00  0.00    +0.000 A 
ATOM      2  C   UNL     1      -7.892  -1.029 127.436  0.00  0.00    +0.000 A 
ATOM      3  C   UNL     1      -7.761  -2.125 128.286  0.00  0.00    +0.000 A 
ATOM      4  C   UNL     1      -8.351  -3.324 127.938  0.00  0.00    +0.000 A 
ATOM      5  C   UNL     1      -9.061  -3.423 126.738  0.00  0.00    +0.000 A 
ATOM      6  C   UNL     1      -9.133  -2.347 125.828  0.00  0.00    +0.000 A 
ENDROOT
BRANCH   6   7
ATOM      7  O   UNL     1      -9.812  -2.693 124.690  0.00  0.00    +0.000 OA
ATOM      8  C   UNL     1      -9.090  -3.183 123.575  0.00  0.00    +0.000 C 
ENDBRANCH   6   7
BRANCH   1   9
ATOM      9  C   UNL     1      -8.143  -0.017 125.199  0.00  0.00    +0.000 C 
BRANCH   9  10
ATOM     10  C   UNL     1      -9.418   0.796 124.828  0.00  0.00    +0.000 C 
ATOM     11  C   UNL     1      -9.676   0.683 123.318  0.00  0.00    +0.000 C 
BRANCH  10  13
ATOM     12  C   UNL     1      -8.487   2.984 124.266  0.00  0.00    +0.000 C 
ATOM     13  N   UNL     1      -9.236   2.201 125.244  0.00  0.00    +0.000 NA
ATOM     14  H   UNL     1     -10.156   2.631 125.356  0.00  0.00    +0.000 HD
ENDBRANCH  10  13
ENDBRANCH   9  10
ENDBRANCH   1   9
TORSDOF 4
ENDMDL
MODEL 9
REMARK VINA RESULT:      -4.8     10.075     12.524
REMARK  Name = Methoxyphenamine
REMARK  7 active torsions:
REMARK  status: ('A' for Active; 'I' for Inactive)
REMARK    1  A    between atoms: C_1  and  N_2
REMARK    2  A    between atoms: N_2  and  C_3
REMARK    3  A    between atoms: C_3  and  C_4
REMARK    4  A    between atoms: C_3  and  C_5
REMARK    5  A    between atoms: C_5  and  C_6
REMARK    6  A    between atoms: C_11  and  O_12
REMARK    7  A    between atoms: O_12  and  C_13
REMARK                            x       y       z     vdW  Elec       q    Type
REMARK                         _______ _______ _______ _____ _____    ______ ____
ROOT
ATOM      1  C   UNL     1      -7.509  -1.768 123.517  0.00  0.00    +0.000 A 
ATOM      2  C   UNL     1      -6.495  -1.887 122.534  0.00  0.00    +0.000 A 
ATOM      3  C   UNL     1      -5.341  -2.633 122.760  0.00  0.00    +0.000 A 
ATOM      4  C   UNL     1      -5.109  -3.159 124.016  0.00  0.00    +0.000 A 
ATOM      5  C   UNL     1      -6.038  -2.942 125.037  0.00  0.00    +0.000 A 
ATOM      6  C   UNL     1      -7.251  -2.260 124.804  0.00  0.00    +0.000 A 
ENDROOT
BRANCH   6   7
ATOM      7  O   UNL     1      -8.038  -2.233 125.925  0.00  0.00    +0.000 OA
ATOM      8  C   UNL     1      -8.909  -3.319 126.185  0.00  0.00    +0.000 C 
ENDBRANCH   6   7
BRANCH   1   9
ATOM      9  C   UNL     1      -8.862  -1.340 122.970  0.00  0.00    +0.000 C 
BRANCH   9  10
ATOM     10  C   UNL     1      -9.224   0.088 123.472  0.00  0.00    +0.000 C 
ATOM     11  C   UNL     1      -7.961   0.964 123.475  0.00  0.00    +0.000 C 
BRANCH  10  13
ATOM     12  C   UNL     1      -9.310   1.010 125.734  0.00  0.00    +0.000 C 
ATOM     13  N   UNL     1      -9.820  -0.007 124.820  0.00  0.00    +0.000 NA
ATOM     14  H   UNL     1     -10.830   0.117 124.740  0.00  0.00    +0.000 HD
ENDBRANCH  10  13
ENDBRANCH   9  10
ENDBRANCH   1   9
TORSDOF 4
ENDMDL
