MODEL 1
REMARK VINA RESULT:      -4.2      0.000      0.000
REMARK  Name = Methoxyflurane
REMARK  3 active torsions:
REMARK  status: ('A' for Active; 'I' for Inactive)
REMARK    1  A    between atoms: C_1  and  O_2
REMARK    2  A    between atoms: O_2  and  C_3
REMARK    3  A    between atoms: C_3  and  C_6
REMARK                            x       y       z     vdW  Elec       q    Type
REMARK                         _______ _______ _______ _____ _____    ______ ____
ROOT
ATOM      1  C   UNL     1     -11.094   8.031 127.607  0.00  0.00    +0.000 C 
ATOM      2  F   UNL     1     -10.200   8.819 128.252  0.00  0.00    +0.000 F 
ATOM      3  F   UNL     1     -10.899   8.212 126.273  0.00  0.00    +0.000 F 
ENDROOT
BRANCH   1   4
ATOM      4  C   UNL     1     -12.540   8.386 127.982  0.00  0.00    +0.000 C 
ATOM      5 CL   UNL     1     -13.620   6.956 127.949  0.00  0.00    +0.000 Cl
ATOM      6 CL   UNL     1     -12.641   9.139 129.604  0.00  0.00    +0.000 Cl
ENDBRANCH   1   4
BRANCH   1   8
ATOM      7  C   UNL     1     -10.098   6.539 129.127  0.00  0.00    +0.000 C 
ATOM      8  O   UNL     1     -10.790   6.667 127.895  0.00  0.00    +0.000 OA
ENDBRANCH   1   8
TORSDOF 2
ENDMDL
MODEL 2
REMARK VINA RESULT:      -4.2      0.539      1.548
REMARK  Name = Methoxyflurane
REMARK  3 active torsions:
REMARK  status: ('A' for Active; 'I' for Inactive)
REMARK    1  A    between atoms: C_1  and  O_2
REMARK    2  A    between atoms: O_2  and  C_3
REMARK    3  A    between atoms: C_3  and  C_6
REMARK                            x       y       z     vdW  Elec       q    Type
REMARK                         _______ _______ _______ _____ _____    ______ ____
ROOT
ATOM      1  C   UNL     1     -10.790   7.903 127.730  0.00  0.00    +0.000 C 
ATOM      2  F   UNL     1     -10.047   8.941 128.188  0.00  0.00    +0.000 F 
ATOM      3  F   UNL     1     -11.027   8.133 126.410  0.00  0.00    +0.000 F 
ENDROOT
BRANCH   1   4
ATOM      4  C   UNL     1     -12.117   7.773 128.490  0.00  0.00    +0.000 C 
ATOM      5 CL   UNL     1     -12.692   9.347 129.126  0.00  0.00    +0.000 Cl
ATOM      6 CL   UNL     1     -13.406   7.067 127.466  0.00  0.00    +0.000 Cl
ENDBRANCH   1   4
BRANCH   1   8
ATOM      7  C   UNL     1      -9.927   6.240 129.151  0.00  0.00    +0.000 C 
ATOM      8  O   UNL     1     -10.009   6.711 127.815  0.00  0.00    +0.000 OA
ENDBRANCH   1   8
TORSDOF 2
ENDMDL
MODEL 3
REMARK VINA RESULT:      -4.2      2.395      2.759
REMARK  Name = Methoxyflurane
REMARK  3 active torsions:
REMARK  status: ('A' for Active; 'I' for Inactive)
REMARK    1  A    between atoms: C_1  and  O_2
REMARK    2  A    between atoms: O_2  and  C_3
REMARK    3  A    between atoms: C_3  and  C_6
REMARK                            x       y       z     vdW  Elec       q    Type
REMARK                         _______ _______ _______ _____ _____    ______ ____
ROOT
ATOM      1  C   UNL     1     -12.921   7.351 128.281  0.00  0.00    +0.000 C 
ATOM      2  F   UNL     1     -13.874   7.946 127.523  0.00  0.00    +0.000 F 
ATOM      3  F   UNL     1     -13.473   6.225 128.807  0.00  0.00    +0.000 F 
ENDROOT
BRANCH   1   4
ATOM      4  C   UNL     1     -12.431   8.274 129.406  0.00  0.00    +0.000 C 
ATOM      5 CL   UNL     1     -13.142   9.916 129.295  0.00  0.00    +0.000 Cl
ATOM      6 CL   UNL     1     -12.797   7.603 131.026  0.00  0.00    +0.000 Cl
ENDBRANCH   1   4
BRANCH   1   8
ATOM      7  C   UNL     1     -10.897   7.973 127.258  0.00  0.00    +0.000 C 
ATOM      8  O   UNL     1     -11.853   6.938 127.429  0.00  0.00    +0.000 OA
ENDBRANCH   1   8
TORSDOF 2
ENDMDL
MODEL 4
REMARK VINA RESULT:      -4.0      1.750      2.076
REMARK  Name = Methoxyflurane
REMARK  3 active torsions:
REMARK  status: ('A' for Active; 'I' for Inactive)
REMARK    1  A    between atoms: C_1  and  O_2
REMARK    2  A    between atoms: O_2  and  C_3
REMARK    3  A    between atoms: C_3  and  C_6
REMARK                            x       y       z     vdW  Elec       q    Type
REMARK                         _______ _______ _______ _____ _____    ______ ____
ROOT
ATOM      1  C   UNL     1     -11.282   7.884 128.895  0.00  0.00    +0.000 C 
ATOM      2  F   UNL     1     -10.380   7.597 129.866  0.00  0.00    +0.000 F 
ATOM      3  F   UNL     1     -10.820   8.975 128.229  0.00  0.00    +0.000 F 
ENDROOT
BRANCH   1   4
ATOM      4  C   UNL     1     -12.673   8.171 129.478  0.00  0.00    +0.000 C 
ATOM      5 CL   UNL     1     -12.832   7.595 131.168  0.00  0.00    +0.000 Cl
ATOM      6 CL   UNL     1     -13.067   9.917 129.432  0.00  0.00    +0.000 Cl
ENDBRANCH   1   4
BRANCH   1   8
ATOM      7  C   UNL     1     -11.907   7.190 126.737  0.00  0.00    +0.000 C 
ATOM      8  O   UNL     1     -11.309   6.802 127.964  0.00  0.00    +0.000 OA
ENDBRANCH   1   8
TORSDOF 2
ENDMDL
MODEL 5
REMARK VINA RESULT:      -4.0     11.475     11.922
REMARK  Name = Methoxyflurane
REMARK  3 active torsions:
REMARK  status: ('A' for Active; 'I' for Inactive)
REMARK    1  A    between atoms: C_1  and  O_2
REMARK    2  A    between atoms: O_2  and  C_3
REMARK    3  A    between atoms: C_3  and  C_6
REMARK                            x       y       z     vdW  Elec       q    Type
REMARK                         _______ _______ _______ _____ _____    ______ ____
ROOT
ATOM      1  C   UNL     1      -9.202  -3.182 123.812  0.00  0.00    +0.000 C 
ATOM      2  F   UNL     1      -8.305  -4.098 124.253  0.00  0.00    +0.000 F 
ATOM      3  F   UNL     1     -10.202  -3.866 123.194  0.00  0.00    +0.000 F 
ENDROOT
BRANCH   1   4
ATOM      4  C   UNL     1      -8.562  -2.184 122.836  0.00  0.00    +0.000 C 
ATOM      5 CL   UNL     1      -9.237  -0.533 123.015  0.00  0.00    +0.000 Cl
ATOM      6 CL   UNL     1      -6.785  -2.099 123.040  0.00  0.00    +0.000 Cl
ENDBRANCH   1   4
BRANCH   1   8
ATOM      7  C   UNL     1      -9.153  -2.934 126.150  0.00  0.00    +0.000 C 
ATOM      8  O   UNL     1      -9.777  -2.526 124.942  0.00  0.00    +0.000 OA
ENDBRANCH   1   8
TORSDOF 2
ENDMDL
MODEL 6
REMARK VINA RESULT:      -4.0      2.932      3.632
REMARK  Name = Methoxyflurane
REMARK  3 active torsions:
REMARK  status: ('A' for Active; 'I' for Inactive)
REMARK    1  A    between atoms: C_1  and  O_2
REMARK    2  A    between atoms: O_2  and  C_3
REMARK    3  A    between atoms: C_3  and  C_6
REMARK                            x       y       z     vdW  Elec       q    Type
REMARK                         _______ _______ _______ _____ _____    ______ ____
ROOT
ATOM      1  C   UNL     1     -12.801   8.661 129.106  0.00  0.00    +0.000 C 
ATOM      2  F   UNL     1     -12.692   8.630 130.457  0.00  0.00    +0.000 F 
ATOM      3  F   UNL     1     -13.592   7.616 128.744  0.00  0.00    +0.000 F 
ENDROOT
BRANCH   1   4
ATOM      4  C   UNL     1     -11.432   8.549 128.422  0.00  0.00    +0.000 C 
ATOM      5 CL   UNL     1     -10.214   7.752 129.468  0.00  0.00    +0.000 Cl
ATOM      6 CL   UNL     1     -11.530   7.650 126.876  0.00  0.00    +0.000 Cl
ENDBRANCH   1   4
BRANCH   1   8
ATOM      7  C   UNL     1     -13.492  10.803 129.789  0.00  0.00    +0.000 C 
ATOM      8  O   UNL     1     -13.486   9.857 128.732  0.00  0.00    +0.000 OA
ENDBRANCH   1   8
TORSDOF 2
ENDMDL
MODEL 7
REMARK VINA RESULT:      -3.9      2.084      2.347
REMARK  Name = Methoxyflurane
REMARK  3 active torsions:
REMARK  status: ('A' for Active; 'I' for Inactive)
REMARK    1  A    between atoms: C_1  and  O_2
REMARK    2  A    between atoms: O_2  and  C_3
REMARK    3  A    between atoms: C_3  and  C_6
REMARK                            x       y       z     vdW  Elec       q    Type
REMARK                         _______ _______ _______ _____ _____    ______ ____
ROOT
ATOM      1  C   UNL     1     -12.688   7.586 128.195  0.00  0.00    +0.000 C 
ATOM      2  F   UNL     1     -12.049   8.774 128.331  0.00  0.00    +0.000 F 
ATOM      3  F   UNL     1     -13.884   7.840 127.598  0.00  0.00    +0.000 F 
ENDROOT
BRANCH   1   4
ATOM      4  C   UNL     1     -12.909   6.900 129.550  0.00  0.00    +0.000 C 
ATOM      5 CL   UNL     1     -11.709   5.605 129.860  0.00  0.00    +0.000 Cl
ATOM      6 CL   UNL     1     -12.848   8.069 130.906  0.00  0.00    +0.000 Cl
ENDBRANCH   1   4
BRANCH   1   8
ATOM      7  C   UNL     1     -10.980   7.524 126.580  0.00  0.00    +0.000 C 
ATOM      8  O   UNL     1     -11.938   6.765 127.300  0.00  0.00    +0.000 OA
ENDBRANCH   1   8
TORSDOF 2
ENDMDL
MODEL 8
REMARK VINA RESULT:      -3.9      3.337      3.949
REMARK  Name = Methoxyflurane
REMARK  3 active torsions:
REMARK  status: ('A' for Active; 'I' for Inactive)
REMARK    1  A    between atoms: C_1  and  O_2
REMARK    2  A    between atoms: O_2  and  C_3
REMARK    3  A    between atoms: C_3  and  C_6
REMARK                            x       y       z     vdW  Elec       q    Type
REMARK                         _______ _______ _______ _____ _____    ______ ____
ROOT
ATOM      1  C   UNL     1     -12.679   7.569 130.436  0.00  0.00    +0.000 C 
ATOM      2  F   UNL     1     -13.261   7.715 131.651  0.00  0.00    +0.000 F 
ATOM      3  F   UNL     1     -13.585   6.955 129.629  0.00  0.00    +0.000 F 
ENDROOT
BRANCH   1   4
ATOM      4  C   UNL     1     -11.394   6.733 130.518  0.00  0.00    +0.000 C 
ATOM      5 CL   UNL     1      -9.998   7.558 129.753  0.00  0.00    +0.000 Cl
ATOM      6 CL   UNL     1     -10.964   6.336 132.211  0.00  0.00    +0.000 Cl
ENDBRANCH   1   4
BRANCH   1   8
ATOM      7  C   UNL     1     -13.122   9.043 128.658  0.00  0.00    +0.000 C 
ATOM      8  O   UNL     1     -12.437   8.864 129.888  0.00  0.00    +0.000 OA
ENDBRANCH   1   8
TORSDOF 2
ENDMDL
MODEL 9
REMARK VINA RESULT:      -3.8      2.251      2.597
REMARK  Name = Methoxyflurane
REMARK  3 active torsions:
REMARK  status: ('A' for Active; 'I' for Inactive)
REMARK    1  A    between atoms: C_1  and  O_2
REMARK    2  A    between atoms: O_2  and  C_3
REMARK    3  A    between atoms: C_3  and  C_6
REMARK                            x       y       z     vdW  Elec       q    Type
REMARK                         _______ _______ _______ _____ _____    ______ ____
ROOT
ATOM      1  C   UNL     1     -11.553   7.958 129.338  0.00  0.00    +0.000 C 
ATOM      2  F   UNL     1     -12.235   9.103 129.585  0.00  0.00    +0.000 F 
ATOM      3  F   UNL     1     -10.238   8.289 129.236  0.00  0.00    +0.000 F 
ENDROOT
BRANCH   1   4
ATOM      4  C   UNL     1     -12.029   7.279 128.046  0.00  0.00    +0.000 C 
ATOM      5 CL   UNL     1     -13.757   7.612 127.701  0.00  0.00    +0.000 Cl
ATOM      6 CL   UNL     1     -11.057   7.787 126.630  0.00  0.00    +0.000 Cl
ENDBRANCH   1   4
BRANCH   1   8
ATOM      7  C   UNL     1     -12.812   7.444 131.257  0.00  0.00    +0.000 C 
ATOM      8  O   UNL     1     -11.683   7.097 130.470  0.00  0.00    +0.000 OA
ENDBRANCH   1   8
TORSDOF 2
ENDMDL
