MODEL 1
REMARK VINA RESULT:      -8.7      0.000      0.000
REMARK  Name = Methylnaltrexone
REMARK  5 active torsions:
REMARK  status: ('A' for Active; 'I' for Inactive)
REMARK    1  A    between atoms: C_1  and  N_2
REMARK    2  A    between atoms: N_2  and  C_3
REMARK    3  A    between atoms: C_3  and  C_4
REMARK    4  A    between atoms: C_13  and  O_14
REMARK    5  A    between atoms: C_20  and  O_21
REMARK                            x       y       z     vdW  Elec       q    Type
REMARK                         _______ _______ _______ _____ _____    ______ ____
ROOT
ATOM      1  C   UNL     1      -7.887  -1.873 128.809  0.00  0.00    +0.000 C 
ATOM      2  N   UNL     1      -7.588  -1.766 127.238  0.00  0.00    +0.000 N 
ATOM      3  C   UNL     1      -7.217  -0.412 127.049  0.00  0.00    +0.000 C 
ATOM      4  C   UNL     1      -6.738  -0.537 125.585  0.00  0.00    +0.000 C 
ATOM      5  C   UNL     1      -7.736  -1.045 124.444  0.00  0.00    +0.000 C 
ATOM      6  C   UNL     1      -7.004  -1.377 123.133  0.00  0.00    +0.000 C 
ATOM      7  O   UNL     1      -6.369  -0.124 122.709  0.00  0.00    +0.000 OA
ATOM      8  C   UNL     1      -7.270   0.852 123.120  0.00  0.00    +0.000 A 
ATOM      9  C   UNL     1      -7.243   2.223 122.947  0.00  0.00    +0.000 A 
ATOM     10  C   UNL     1      -8.220   3.009 123.590  0.00  0.00    +0.000 A 
ATOM     11  C   UNL     1      -9.153   2.436 124.489  0.00  0.00    +0.000 A 
ATOM     12  C   UNL     1      -9.052   1.079 124.790  0.00  0.00    +0.000 A 
ATOM     13  C   UNL     1      -9.718   0.290 125.907  0.00  0.00    +0.000 C 
ATOM     14  C   UNL     1      -9.060  -1.361 126.075  0.00  0.00    +0.000 C 
ATOM     15  C   UNL     1      -8.842  -2.289 124.937  0.00  0.00    +0.000 C 
ATOM     16  C   UNL     1      -8.272  -3.642 124.742  0.00  0.00    +0.000 C 
ATOM     17  C   UNL     1      -6.823  -3.713 124.369  0.00  0.00    +0.000 C 
ATOM     18  C   UNL     1      -6.156  -2.640 123.471  0.00  0.00    +0.000 C 
ATOM     19  O   UNL     1      -5.002  -2.737 123.206  0.00  0.00    +0.000 OA
ATOM     20  C   UNL     1      -8.183   0.323 124.021  0.00  0.00    +0.000 A 
ENDROOT
BRANCH   9  21
ATOM     21  O   UNL     1      -6.288   2.859 122.219  0.00  0.00    +0.000 OA
ATOM     22  H   UNL     1      -6.571   2.861 121.288  0.00  0.00    +0.000 HD
ENDBRANCH   9  21
BRANCH  15  23
ATOM     23  O   UNL     1     -10.134  -2.797 125.709  0.00  0.00    +0.000 OA
ATOM     24  H   UNL     1     -10.997  -2.295 125.632  0.00  0.00    +0.000 HD
ENDBRANCH  15  23
BRANCH   2  25
ATOM     25  C   UNL     1      -5.893  -2.560 127.360  0.00  0.00    +0.000 C 
BRANCH  25  26
ATOM     26  C   UNL     1      -4.887  -2.483 128.695  0.00  0.00    +0.000 C 
ATOM     27  C   UNL     1      -4.957  -3.662 129.694  0.00  0.00    +0.000 C 
ATOM     28  C   UNL     1      -3.681  -3.435 128.958  0.00  0.00    +0.000 C 
ENDBRANCH  25  26
ENDBRANCH   2  25
TORSDOF 4
ENDMDL
MODEL 2
REMARK VINA RESULT:      -8.5      1.954      2.843
REMARK  Name = Methylnaltrexone
REMARK  5 active torsions:
REMARK  status: ('A' for Active; 'I' for Inactive)
REMARK    1  A    between atoms: C_1  and  N_2
REMARK    2  A    between atoms: N_2  and  C_3
REMARK    3  A    between atoms: C_3  and  C_4
REMARK    4  A    between atoms: C_13  and  O_14
REMARK    5  A    between atoms: C_20  and  O_21
REMARK                            x       y       z     vdW  Elec       q    Type
REMARK                         _______ _______ _______ _____ _____    ______ ____
ROOT
ATOM      1  C   UNL     1      -9.109  -4.035 127.277  0.00  0.00    +0.000 C 
ATOM      2  N   UNL     1      -8.304  -2.801 126.645  0.00  0.00    +0.000 N 
ATOM      3  C   UNL     1      -9.317  -1.883 126.275  0.00  0.00    +0.000 C 
ATOM      4  C   UNL     1      -8.393  -0.693 125.928  0.00  0.00    +0.000 C 
ATOM      5  C   UNL     1      -7.276  -0.835 124.793  0.00  0.00    +0.000 C 
ATOM      6  C   UNL     1      -6.283   0.338 124.801  0.00  0.00    +0.000 C 
ATOM      7  O   UNL     1      -7.089   1.537 124.548  0.00  0.00    +0.000 OA
ATOM      8  C   UNL     1      -8.082   1.085 123.686  0.00  0.00    +0.000 A 
ATOM      9  C   UNL     1      -9.102   1.775 123.059  0.00  0.00    +0.000 A 
ATOM     10  C   UNL     1     -10.071   1.049 122.337  0.00  0.00    +0.000 A 
ATOM     11  C   UNL     1     -10.078  -0.368 122.333  0.00  0.00    +0.000 A 
ATOM     12  C   UNL     1      -9.150  -1.048 123.118  0.00  0.00    +0.000 A 
ATOM     13  C   UNL     1      -9.119  -2.516 123.516  0.00  0.00    +0.000 C 
ATOM     14  C   UNL     1      -7.898  -2.868 124.770  0.00  0.00    +0.000 C 
ATOM     15  C   UNL     1      -6.496  -2.385 124.723  0.00  0.00    +0.000 C 
ATOM     16  C   UNL     1      -5.304  -2.442 125.602  0.00  0.00    +0.000 C 
ATOM     17  C   UNL     1      -5.097  -1.283 126.528  0.00  0.00    +0.000 C 
ATOM     18  C   UNL     1      -5.485   0.163 126.127  0.00  0.00    +0.000 C 
ATOM     19  O   UNL     1      -5.304   1.049 126.898  0.00  0.00    +0.000 OA
ATOM     20  C   UNL     1      -8.129  -0.301 123.681  0.00  0.00    +0.000 A 
ENDROOT
BRANCH   9  21
ATOM     21  O   UNL     1      -9.245   3.124 123.141  0.00  0.00    +0.000 OA
ATOM     22  H   UNL     1     -10.137   3.312 123.484  0.00  0.00    +0.000 HD
ENDBRANCH   9  21
BRANCH  15  23
ATOM     23  O   UNL     1      -6.468  -3.931 124.357  0.00  0.00    +0.000 OA
ATOM     24  H   UNL     1      -7.170  -4.320 123.758  0.00  0.00    +0.000 HD
ENDBRANCH  15  23
BRANCH   2  25
ATOM     25  C   UNL     1      -7.803  -2.090 128.306  0.00  0.00    +0.000 C 
BRANCH  25  26
ATOM     26  C   UNL     1      -6.560  -2.668 129.266  0.00  0.00    +0.000 C 
ATOM     27  C   UNL     1      -6.888  -2.931 130.755  0.00  0.00    +0.000 C 
ATOM     28  C   UNL     1      -6.511  -4.092 129.899  0.00  0.00    +0.000 C 
ENDBRANCH  25  26
ENDBRANCH   2  25
TORSDOF 4
ENDMDL
MODEL 3
REMARK VINA RESULT:      -8.4      3.107      5.258
REMARK  Name = Methylnaltrexone
REMARK  5 active torsions:
REMARK  status: ('A' for Active; 'I' for Inactive)
REMARK    1  A    between atoms: C_1  and  N_2
REMARK    2  A    between atoms: N_2  and  C_3
REMARK    3  A    between atoms: C_3  and  C_4
REMARK    4  A    between atoms: C_13  and  O_14
REMARK    5  A    between atoms: C_20  and  O_21
REMARK                            x       y       z     vdW  Elec       q    Type
REMARK                         _______ _______ _______ _____ _____    ______ ____
ROOT
ATOM      1  C   UNL     1      -6.223   0.359 129.358  0.00  0.00    +0.000 C 
ATOM      2  N   UNL     1      -6.705   1.116 128.030  0.00  0.00    +0.000 N 
ATOM      3  C   UNL     1      -7.732   0.288 127.514  0.00  0.00    +0.000 C 
ATOM      4  C   UNL     1      -8.239   1.252 126.419  0.00  0.00    +0.000 C 
ATOM      5  C   UNL     1      -7.254   1.764 125.268  0.00  0.00    +0.000 C 
ATOM      6  C   UNL     1      -7.853   2.926 124.460  0.00  0.00    +0.000 C 
ATOM      7  O   UNL     1      -9.080   2.393 123.856  0.00  0.00    +0.000 OA
ATOM      8  C   UNL     1      -8.763   1.065 123.595  0.00  0.00    +0.000 A 
ATOM      9  C   UNL     1      -9.504   0.075 122.977  0.00  0.00    +0.000 A 
ATOM     10  C   UNL     1      -9.000  -1.242 122.962  0.00  0.00    +0.000 A 
ATOM     11  C   UNL     1      -7.812  -1.585 123.654  0.00  0.00    +0.000 A 
ATOM     12  C   UNL     1      -7.175  -0.611 124.421  0.00  0.00    +0.000 A 
ATOM     13  C   UNL     1      -6.081  -0.774 125.466  0.00  0.00    +0.000 C 
ATOM     14  C   UNL     1      -5.783   0.722 126.394  0.00  0.00    +0.000 C 
ATOM     15  C   UNL     1      -5.622   2.063 125.779  0.00  0.00    +0.000 C 
ATOM     16  C   UNL     1      -5.440   3.454 126.255  0.00  0.00    +0.000 C 
ATOM     17  C   UNL     1      -6.682   4.277 126.413  0.00  0.00    +0.000 C 
ATOM     18  C   UNL     1      -7.896   4.116 125.463  0.00  0.00    +0.000 C 
ATOM     19  O   UNL     1      -8.860   4.789 125.632  0.00  0.00    +0.000 OA
ATOM     20  C   UNL     1      -7.616   0.694 124.280  0.00  0.00    +0.000 A 
ENDROOT
BRANCH   9  21
ATOM     21  O   UNL     1     -10.723   0.299 122.421  0.00  0.00    +0.000 OA
ATOM     22  H   UNL     1     -10.926   1.246 122.513  0.00  0.00    +0.000 HD
ENDBRANCH   9  21
BRANCH  15  23
ATOM     23  O   UNL     1      -4.175   1.579 126.222  0.00  0.00    +0.000 OA
ATOM     24  H   UNL     1      -3.851   1.747 127.155  0.00  0.00    +0.000 HD
ENDBRANCH  15  23
BRANCH   2  25
ATOM     25  C   UNL     1      -7.734   2.384 128.953  0.00  0.00    +0.000 C 
BRANCH  25  26
ATOM     26  C   UNL     1      -7.130   3.751 129.707  0.00  0.00    +0.000 C 
ATOM     27  C   UNL     1      -6.581   3.574 131.142  0.00  0.00    +0.000 C 
ATOM     28  C   UNL     1      -5.630   3.979 130.068  0.00  0.00    +0.000 C 
ENDBRANCH  25  26
ENDBRANCH   2  25
TORSDOF 4
ENDMDL
MODEL 4
REMARK VINA RESULT:      -8.4      2.166      3.939
REMARK  Name = Methylnaltrexone
REMARK  5 active torsions:
REMARK  status: ('A' for Active; 'I' for Inactive)
REMARK    1  A    between atoms: C_1  and  N_2
REMARK    2  A    between atoms: N_2  and  C_3
REMARK    3  A    between atoms: C_3  and  C_4
REMARK    4  A    between atoms: C_13  and  O_14
REMARK    5  A    between atoms: C_20  and  O_21
REMARK                            x       y       z     vdW  Elec       q    Type
REMARK                         _______ _______ _______ _____ _____    ______ ____
ROOT
ATOM      1  C   UNL     1      -8.681  -3.508 124.009  0.00  0.00    +0.000 C 
ATOM      2  N   UNL     1      -8.178  -2.256 124.874  0.00  0.00    +0.000 N 
ATOM      3  C   UNL     1      -8.938  -1.167 124.379  0.00  0.00    +0.000 C 
ATOM      4  C   UNL     1      -8.528  -0.131 125.449  0.00  0.00    +0.000 C 
ATOM      5  C   UNL     1      -6.992   0.261 125.654  0.00  0.00    +0.000 C 
ATOM      6  C   UNL     1      -6.762   1.071 126.941  0.00  0.00    +0.000 C 
ATOM      7  O   UNL     1      -7.564   2.290 126.786  0.00  0.00    +0.000 OA
ATOM      8  C   UNL     1      -7.493   2.555 125.423  0.00  0.00    +0.000 A 
ATOM      9  C   UNL     1      -8.005   3.608 124.689  0.00  0.00    +0.000 A 
ATOM     10  C   UNL     1      -7.911   3.567 123.283  0.00  0.00    +0.000 A 
ATOM     11  C   UNL     1      -7.402   2.429 122.611  0.00  0.00    +0.000 A 
ATOM     12  C   UNL     1      -7.056   1.304 123.358  0.00  0.00    +0.000 A 
ATOM     13  C   UNL     1      -6.768  -0.112 122.886  0.00  0.00    +0.000 C 
ATOM     14  C   UNL     1      -6.655  -1.281 124.231  0.00  0.00    +0.000 C 
ATOM     15  C   UNL     1      -5.869  -1.051 125.469  0.00  0.00    +0.000 C 
ATOM     16  C   UNL     1      -5.636  -1.762 126.748  0.00  0.00    +0.000 C 
ATOM     17  C   UNL     1      -6.525  -1.389 127.894  0.00  0.00    +0.000 C 
ATOM     18  C   UNL     1      -7.042   0.059 128.092  0.00  0.00    +0.000 C 
ATOM     19  O   UNL     1      -7.748   0.305 129.015  0.00  0.00    +0.000 OA
ATOM     20  C   UNL     1      -7.020   1.446 124.735  0.00  0.00    +0.000 A 
ENDROOT
BRANCH   9  21
ATOM     21  O   UNL     1      -8.641   4.666 125.257  0.00  0.00    +0.000 OA
ATOM     22  H   UNL     1      -8.009   5.117 125.844  0.00  0.00    +0.000 HD
ENDBRANCH   9  21
BRANCH  15  23
ATOM     23  O   UNL     1      -5.052  -2.089 124.586  0.00  0.00    +0.000 OA
ATOM     24  H   UNL     1      -4.065  -2.193 124.716  0.00  0.00    +0.000 HD
ENDBRANCH  15  23
BRANCH   2  25
ATOM     25  C   UNL     1      -9.194  -2.707 126.385  0.00  0.00    +0.000 C 
BRANCH  25  26
ATOM     26  C   UNL     1      -8.822  -3.930 127.466  0.00  0.00    +0.000 C 
ATOM     27  C   UNL     1      -8.599  -3.518 128.940  0.00  0.00    +0.000 C 
ATOM     28  C   UNL     1      -9.751  -4.409 128.623  0.00  0.00    +0.000 C 
ENDBRANCH  25  26
ENDBRANCH   2  25
TORSDOF 4
ENDMDL
MODEL 5
REMARK VINA RESULT:      -8.4      2.586      5.227
REMARK  Name = Methylnaltrexone
REMARK  5 active torsions:
REMARK  status: ('A' for Active; 'I' for Inactive)
REMARK    1  A    between atoms: C_1  and  N_2
REMARK    2  A    between atoms: N_2  and  C_3
REMARK    3  A    between atoms: C_3  and  C_4
REMARK    4  A    between atoms: C_13  and  O_14
REMARK    5  A    between atoms: C_20  and  O_21
REMARK                            x       y       z     vdW  Elec       q    Type
REMARK                         _______ _______ _______ _____ _____    ______ ____
ROOT
ATOM      1  C   UNL     1      -6.298   0.406 129.658  0.00  0.00    +0.000 C 
ATOM      2  N   UNL     1      -6.882   0.508 128.169  0.00  0.00    +0.000 N 
ATOM      3  C   UNL     1      -7.627  -0.687 128.009  0.00  0.00    +0.000 C 
ATOM      4  C   UNL     1      -8.302  -0.325 126.667  0.00  0.00    +0.000 C 
ATOM      5  C   UNL     1      -7.418   0.002 125.375  0.00  0.00    +0.000 C 
ATOM      6  C   UNL     1      -8.251   0.616 124.238  0.00  0.00    +0.000 C 
ATOM      7  O   UNL     1      -9.259  -0.395 123.900  0.00  0.00    +0.000 OA
ATOM      8  C   UNL     1      -8.594  -1.598 124.101  0.00  0.00    +0.000 A 
ATOM      9  C   UNL     1      -9.014  -2.898 123.891  0.00  0.00    +0.000 A 
ATOM     10  C   UNL     1      -8.185  -3.958 124.312  0.00  0.00    +0.000 A 
ATOM     11  C   UNL     1      -6.992  -3.716 125.037  0.00  0.00    +0.000 A 
ATOM     12  C   UNL     1      -6.675  -2.408 125.397  0.00  0.00    +0.000 A 
ATOM     13  C   UNL     1      -5.640  -1.909 126.394  0.00  0.00    +0.000 C 
ATOM     14  C   UNL     1      -5.795  -0.164 126.737  0.00  0.00    +0.000 C 
ATOM     15  C   UNL     1      -5.953   0.878 125.692  0.00  0.00    +0.000 C 
ATOM     16  C   UNL     1      -6.168   2.344 125.652  0.00  0.00    +0.000 C 
ATOM     17  C   UNL     1      -7.587   2.812 125.562  0.00  0.00    +0.000 C 
ATOM     18  C   UNL     1      -8.661   2.021 124.770  0.00  0.00    +0.000 C 
ATOM     19  O   UNL     1      -9.774   2.432 124.731  0.00  0.00    +0.000 OA
ATOM     20  C   UNL     1      -7.431  -1.395 124.831  0.00  0.00    +0.000 A 
ENDROOT
BRANCH   9  21
ATOM     21  O   UNL     1     -10.215  -3.208 123.336  0.00  0.00    +0.000 OA
ATOM     22  H   UNL     1     -10.433  -4.124 123.583  0.00  0.00    +0.000 HD
ENDBRANCH   9  21
BRANCH  15  23
ATOM     23  O   UNL     1      -4.458   0.975 126.222  0.00  0.00    +0.000 OA
ATOM     24  H   UNL     1      -3.927   1.812 126.082  0.00  0.00    +0.000 HD
ENDBRANCH  15  23
BRANCH   2  25
ATOM     25  C   UNL     1      -8.257   1.695 128.635  0.00  0.00    +0.000 C 
BRANCH  25  26
ATOM     26  C   UNL     1      -8.075   3.345 128.845  0.00  0.00    +0.000 C 
ATOM     27  C   UNL     1      -7.566   3.823 130.225  0.00  0.00    +0.000 C 
ATOM     28  C   UNL     1      -6.709   4.074 129.031  0.00  0.00    +0.000 C 
ENDBRANCH  25  26
ENDBRANCH   2  25
TORSDOF 4
ENDMDL
MODEL 6
REMARK VINA RESULT:      -8.3      7.444      8.887
REMARK  Name = Methylnaltrexone
REMARK  5 active torsions:
REMARK  status: ('A' for Active; 'I' for Inactive)
REMARK    1  A    between atoms: C_1  and  N_2
REMARK    2  A    between atoms: N_2  and  C_3
REMARK    3  A    between atoms: C_3  and  C_4
REMARK    4  A    between atoms: C_13  and  O_14
REMARK    5  A    between atoms: C_20  and  O_21
REMARK                            x       y       z     vdW  Elec       q    Type
REMARK                         _______ _______ _______ _____ _____    ______ ____
ROOT
ATOM      1  C   UNL     1      -7.269   5.416 133.945  0.00  0.00    +0.000 C 
ATOM      2  N   UNL     1      -7.732   5.264 132.418  0.00  0.00    +0.000 N 
ATOM      3  C   UNL     1      -8.147   6.569 132.053  0.00  0.00    +0.000 C 
ATOM      4  C   UNL     1      -8.317   6.310 130.540  0.00  0.00    +0.000 C 
ATOM      5  C   UNL     1      -9.334   5.194 130.015  0.00  0.00    +0.000 C 
ATOM      6  C   UNL     1      -9.146   4.888 128.520  0.00  0.00    +0.000 C 
ATOM      7  O   UNL     1      -9.405   6.154 127.825  0.00  0.00    +0.000 OA
ATOM      8  C   UNL     1     -10.394   6.752 128.597  0.00  0.00    +0.000 A 
ATOM      9  C   UNL     1     -11.081   7.936 128.408  0.00  0.00    +0.000 A 
ATOM     10  C   UNL     1     -11.947   8.391 129.423  0.00  0.00    +0.000 A 
ATOM     11  C   UNL     1     -12.042   7.717 130.666  0.00  0.00    +0.000 A 
ATOM     12  C   UNL     1     -11.209   6.626 130.907  0.00  0.00    +0.000 A 
ATOM     13  C   UNL     1     -10.904   5.920 132.219  0.00  0.00    +0.000 C 
ATOM     14  C   UNL     1      -9.553   4.761 132.084  0.00  0.00    +0.000 C 
ATOM     15  C   UNL     1      -9.421   3.762 130.994  0.00  0.00    +0.000 C 
ATOM     16  C   UNL     1      -8.426   2.747 130.576  0.00  0.00    +0.000 C 
ATOM     17  C   UNL     1      -7.411   3.180 129.563  0.00  0.00    +0.000 C 
ATOM     18  C   UNL     1      -7.757   4.189 128.438  0.00  0.00    +0.000 C 
ATOM     19  O   UNL     1      -6.916   4.504 127.660  0.00  0.00    +0.000 OA
ATOM     20  C   UNL     1     -10.493   6.127 129.831  0.00  0.00    +0.000 A 
ENDROOT
BRANCH   9  21
ATOM     21  O   UNL     1     -10.927   8.715 127.304  0.00  0.00    +0.000 OA
ATOM     22  H   UNL     1     -10.060   9.153 127.364  0.00  0.00    +0.000 HD
ENDBRANCH   9  21
BRANCH  15  23
ATOM     23  O   UNL     1      -9.880   2.973 132.294  0.00  0.00    +0.000 OA
ATOM     24  H   UNL     1     -10.214   3.472 133.096  0.00  0.00    +0.000 HD
ENDBRANCH  15  23
BRANCH   2  25
ATOM     25  C   UNL     1      -5.984   5.271 131.738  0.00  0.00    +0.000 C 
BRANCH  25  26
ATOM     26  C   UNL     1      -4.960   6.595 131.726  0.00  0.00    +0.000 C 
ATOM     27  C   UNL     1      -3.697   6.495 130.838  0.00  0.00    +0.000 C 
ATOM     28  C   UNL     1      -4.720   7.524 130.496  0.00  0.00    +0.000 C 
ENDBRANCH  25  26
ENDBRANCH   2  25
TORSDOF 4
ENDMDL
MODEL 7
REMARK VINA RESULT:      -8.1      3.276      4.881
REMARK  Name = Methylnaltrexone
REMARK  5 active torsions:
REMARK  status: ('A' for Active; 'I' for Inactive)
REMARK    1  A    between atoms: C_1  and  N_2
REMARK    2  A    between atoms: N_2  and  C_3
REMARK    3  A    between atoms: C_3  and  C_4
REMARK    4  A    between atoms: C_13  and  O_14
REMARK    5  A    between atoms: C_20  and  O_21
REMARK                            x       y       z     vdW  Elec       q    Type
REMARK                         _______ _______ _______ _____ _____    ______ ____
ROOT
ATOM      1  C   UNL     1      -5.620   4.544 125.260  0.00  0.00    +0.000 C 
ATOM      2  N   UNL     1      -6.087   3.059 125.640  0.00  0.00    +0.000 N 
ATOM      3  C   UNL     1      -6.298   2.433 124.387  0.00  0.00    +0.000 C 
ATOM      4  C   UNL     1      -6.492   0.993 124.911  0.00  0.00    +0.000 C 
ATOM      5  C   UNL     1      -7.661   0.655 125.948  0.00  0.00    +0.000 C 
ATOM      6  C   UNL     1      -7.508  -0.744 126.566  0.00  0.00    +0.000 C 
ATOM      7  O   UNL     1      -7.567  -1.680 125.437  0.00  0.00    +0.000 OA
ATOM      8  C   UNL     1      -8.462  -1.077 124.560  0.00  0.00    +0.000 A 
ATOM      9  C   UNL     1      -8.960  -1.518 123.349  0.00  0.00    +0.000 A 
ATOM     10  C   UNL     1      -9.756  -0.642 122.582  0.00  0.00    +0.000 A 
ATOM     11  C   UNL     1      -9.963   0.703 122.977  0.00  0.00    +0.000 A 
ATOM     12  C   UNL     1      -9.305   1.181 124.109  0.00  0.00    +0.000 A 
ATOM     13  C   UNL     1      -9.123   2.616 124.580  0.00  0.00    +0.000 C 
ATOM     14  C   UNL     1      -7.961   2.759 125.928  0.00  0.00    +0.000 C 
ATOM     15  C   UNL     1      -7.971   1.888 127.130  0.00  0.00    +0.000 C 
ATOM     16  C   UNL     1      -7.137   1.712 128.342  0.00  0.00    +0.000 C 
ATOM     17  C   UNL     1      -6.059   0.674 128.270  0.00  0.00    +0.000 C 
ATOM     18  C   UNL     1      -6.239  -0.637 127.462  0.00  0.00    +0.000 C 
ATOM     19  O   UNL     1      -5.354  -1.428 127.433  0.00  0.00    +0.000 OA
ATOM     20  C   UNL     1      -8.665   0.250 124.909  0.00  0.00    +0.000 A 
ENDROOT
BRANCH   9  21
ATOM     21  O   UNL     1      -8.681  -2.744 122.834  0.00  0.00    +0.000 OA
ATOM     22  H   UNL     1      -9.321  -2.924 122.123  0.00  0.00    +0.000 HD
ENDBRANCH   9  21
BRANCH  15  23
ATOM     23  O   UNL     1      -8.555   3.298 127.572  0.00  0.00    +0.000 OA
ATOM     24  H   UNL     1      -9.080   3.852 126.923  0.00  0.00    +0.000 HD
ENDBRANCH  15  23
BRANCH   2  25
ATOM     25  C   UNL     1      -4.353   2.457 126.023  0.00  0.00    +0.000 C 
BRANCH  25  26
ATOM     26  C   UNL     1      -3.420   2.964 127.317  0.00  0.00    +0.000 C 
ATOM     27  C   UNL     1      -1.902   3.123 127.067  0.00  0.00    +0.000 C 
ATOM     28  C   UNL     1      -2.693   4.341 127.405  0.00  0.00    +0.000 C 
ENDBRANCH  25  26
ENDBRANCH   2  25
TORSDOF 4
ENDMDL
MODEL 8
REMARK VINA RESULT:      -7.8      9.193     11.104
REMARK  Name = Methylnaltrexone
REMARK  5 active torsions:
REMARK  status: ('A' for Active; 'I' for Inactive)
REMARK    1  A    between atoms: C_1  and  N_2
REMARK    2  A    between atoms: N_2  and  C_3
REMARK    3  A    between atoms: C_3  and  C_4
REMARK    4  A    between atoms: C_13  and  O_14
REMARK    5  A    between atoms: C_20  and  O_21
REMARK                            x       y       z     vdW  Elec       q    Type
REMARK                         _______ _______ _______ _____ _____    ______ ____
ROOT
ATOM      1  C   UNL     1      -6.221   3.808 129.217  0.00  0.00    +0.000 C 
ATOM      2  N   UNL     1      -5.248   4.617 130.201  0.00  0.00    +0.000 N 
ATOM      3  C   UNL     1      -5.248   3.849 131.392  0.00  0.00    +0.000 C 
ATOM      4  C   UNL     1      -4.110   4.603 132.117  0.00  0.00    +0.000 C 
ATOM      5  C   UNL     1      -4.235   6.168 132.419  0.00  0.00    +0.000 C 
ATOM      6  C   UNL     1      -2.902   6.784 132.873  0.00  0.00    +0.000 C 
ATOM      7  O   UNL     1      -2.541   6.073 134.105  0.00  0.00    +0.000 OA
ATOM      8  C   UNL     1      -3.768   5.817 134.704  0.00  0.00    +0.000 A 
ATOM      9  C   UNL     1      -4.064   5.224 135.917  0.00  0.00    +0.000 A 
ATOM     10  C   UNL     1      -5.411   4.953 136.232  0.00  0.00    +0.000 A 
ATOM     11  C   UNL     1      -6.447   5.178 135.292  0.00  0.00    +0.000 A 
ATOM     12  C   UNL     1      -6.111   5.608 134.009  0.00  0.00    +0.000 A 
ATOM     13  C   UNL     1      -6.968   5.648 132.754  0.00  0.00    +0.000 C 
ATOM     14  C   UNL     1      -6.023   6.001 131.281  0.00  0.00    +0.000 C 
ATOM     15  C   UNL     1      -5.023   7.093 131.178  0.00  0.00    +0.000 C 
ATOM     16  C   UNL     1      -4.061   7.584 130.163  0.00  0.00    +0.000 C 
ATOM     17  C   UNL     1      -2.664   7.051 130.248  0.00  0.00    +0.000 C 
ATOM     18  C   UNL     1      -1.995   6.724 131.608  0.00  0.00    +0.000 C 
ATOM     19  O   UNL     1      -0.886   6.299 131.624  0.00  0.00    +0.000 OA
ATOM     20  C   UNL     1      -4.802   6.006 133.798  0.00  0.00    +0.000 A 
ENDROOT
BRANCH   9  21
ATOM     21  O   UNL     1      -3.111   4.844 136.808  0.00  0.00    +0.000 OA
ATOM     22  H   UNL     1      -3.174   3.879 136.922  0.00  0.00    +0.000 HD
ENDBRANCH   9  21
BRANCH  15  23
ATOM     23  O   UNL     1      -6.313   7.569 130.383  0.00  0.00    +0.000 OA
ATOM     24  H   UNL     1      -6.582   7.108 129.536  0.00  0.00    +0.000 HD
ENDBRANCH  15  23
BRANCH   2  25
ATOM     25  C   UNL     1      -3.675   3.985 129.399  0.00  0.00    +0.000 C 
BRANCH  25  26
ATOM     26  C   UNL     1      -3.098   4.463 127.903  0.00  0.00    +0.000 C 
ATOM     27  C   UNL     1      -2.196   3.459 127.147  0.00  0.00    +0.000 C 
ATOM     28  C   UNL     1      -3.509   3.821 126.543  0.00  0.00    +0.000 C 
ENDBRANCH  25  26
ENDBRANCH   2  25
TORSDOF 4
ENDMDL
MODEL 9
REMARK VINA RESULT:      -7.8      7.980      9.602
REMARK  Name = Methylnaltrexone
REMARK  5 active torsions:
REMARK  status: ('A' for Active; 'I' for Inactive)
REMARK    1  A    between atoms: C_1  and  N_2
REMARK    2  A    between atoms: N_2  and  C_3
REMARK    3  A    between atoms: C_3  and  C_4
REMARK    4  A    between atoms: C_13  and  O_14
REMARK    5  A    between atoms: C_20  and  O_21
REMARK                            x       y       z     vdW  Elec       q    Type
REMARK                         _______ _______ _______ _____ _____    ______ ____
ROOT
ATOM      1  C   UNL     1      -1.909   6.657 132.821  0.00  0.00    +0.000 C 
ATOM      2  N   UNL     1      -3.108   6.071 131.934  0.00  0.00    +0.000 N 
ATOM      3  C   UNL     1      -2.563   4.903 131.346  0.00  0.00    +0.000 C 
ATOM      4  C   UNL     1      -3.874   4.347 130.748  0.00  0.00    +0.000 C 
ATOM      5  C   UNL     1      -4.716   5.206 129.694  0.00  0.00    +0.000 C 
ATOM      6  C   UNL     1      -6.114   4.619 129.445  0.00  0.00    +0.000 C 
ATOM      7  O   UNL     1      -5.885   3.272 128.910  0.00  0.00    +0.000 OA
ATOM      8  C   UNL     1      -4.723   3.413 128.161  0.00  0.00    +0.000 A 
ATOM      9  C   UNL     1      -4.050   2.497 127.375  0.00  0.00    +0.000 A 
ATOM     10  C   UNL     1      -2.803   2.858 126.825  0.00  0.00    +0.000 A 
ATOM     11  C   UNL     1      -2.184   4.091 127.149  0.00  0.00    +0.000 A 
ATOM     12  C   UNL     1      -2.793   4.925 128.084  0.00  0.00    +0.000 A 
ATOM     13  C   UNL     1      -2.223   6.133 128.811  0.00  0.00    +0.000 C 
ATOM     14  C   UNL     1      -3.278   6.709 130.132  0.00  0.00    +0.000 C 
ATOM     15  C   UNL     1      -4.741   6.916 129.996  0.00  0.00    +0.000 C 
ATOM     16  C   UNL     1      -5.864   7.302 130.882  0.00  0.00    +0.000 C 
ATOM     17  C   UNL     1      -6.632   6.184 131.518  0.00  0.00    +0.000 C 
ATOM     18  C   UNL     1      -6.872   4.838 130.788  0.00  0.00    +0.000 C 
ATOM     19  O   UNL     1      -7.485   3.980 131.336  0.00  0.00    +0.000 OA
ATOM     20  C   UNL     1      -4.082   4.603 128.475  0.00  0.00    +0.000 A 
ENDROOT
BRANCH   9  21
ATOM     21  O   UNL     1      -4.511   1.240 127.141  0.00  0.00    +0.000 OA
ATOM     22  H   UNL     1      -3.974   0.620 127.667  0.00  0.00    +0.000 HD
ENDBRANCH   9  21
BRANCH  15  23
ATOM     23  O   UNL     1      -4.067   8.354 129.997  0.00  0.00    +0.000 OA
ATOM     24  H   UNL     1      -4.231   8.987 130.756  0.00  0.00    +0.000 HD
ENDBRANCH  15  23
BRANCH   2  25
ATOM     25  C   UNL     1      -4.011   5.316 133.393  0.00  0.00    +0.000 C 
BRANCH  25  26
ATOM     26  C   UNL     1      -4.869   6.175 134.545  0.00  0.00    +0.000 C 
ATOM     27  C   UNL     1      -6.134   5.500 135.125  0.00  0.00    +0.000 C 
ATOM     28  C   UNL     1      -4.994   5.772 136.047  0.00  0.00    +0.000 C 
ENDBRANCH  25  26
ENDBRANCH   2  25
TORSDOF 4
ENDMDL
