MODEL 1
REMARK VINA RESULT:      -8.6      0.000      0.000
REMARK  Name = Methylprednisolone aceponate
REMARK  13 active torsions:
REMARK  status: ('A' for Active; 'I' for Inactive)
REMARK    1  A    between atoms: C_5  and  O_6
REMARK    2  A    between atoms: C_5  and  C_11
REMARK    3  A    between atoms: O_6  and  C_7
REMARK    4  A    between atoms: C_7  and  C_9
REMARK    5  A    between atoms: C_9  and  C_10
REMARK    6  A    between atoms: C_11  and  C_13
REMARK    7  A    between atoms: C_13  and  O_14
REMARK    8  A    between atoms: O_14  and  C_15
REMARK    9  A    between atoms: C_15  and  C_16
REMARK   10  A    between atoms: C_18  and  C_19
REMARK   11  A    between atoms: C_21  and  O_22
REMARK   12  A    between atoms: C_28  and  C_29
REMARK   13  A    between atoms: C_36  and  C_37
REMARK                            x       y       z     vdW  Elec       q    Type
REMARK                         _______ _______ _______ _____ _____    ______ ____
ROOT
ATOM      1  C   UNL     1      -8.671   4.430 132.683  0.00  0.00    +0.000 C 
ATOM      2  C   UNL     1      -8.792   5.135 133.909  0.00  0.00    +0.000 C 
ATOM      3  C   UNL     1      -8.203   5.823 132.725  0.00  0.00    +0.000 C 
ATOM      4  C   UNL     1      -8.550   4.972 130.863  0.00  0.00    +0.000 C 
ATOM      5  C   UNL     1      -9.261   5.866 131.603  0.00  0.00    +0.000 C 
ATOM      6  C   UNL     1     -10.737   6.037 131.654  0.00  0.00    +0.000 C 
ATOM      7  C   UNL     1      -7.970   7.094 131.035  0.00  0.00    +0.000 C 
ATOM      8  C   UNL     1      -6.446   6.347 130.848  0.00  0.00    +0.000 C 
ATOM      9  C   UNL     1      -5.849   5.309 132.000  0.00  0.00    +0.000 C 
ATOM     10  C   UNL     1      -6.892   4.041 132.320  0.00  0.00    +0.000 C 
ATOM     11  C   UNL     1      -6.422   3.172 133.455  0.00  0.00    +0.000 C 
ATOM     12  C   UNL     1      -4.987   2.730 133.268  0.00  0.00    +0.000 C 
ATOM     13  C   UNL     1      -4.622   1.958 134.517  0.00  0.00    +0.000 C 
ATOM     14  C   UNL     1      -3.998   3.835 132.962  0.00  0.00    +0.000 C 
ATOM     15  C   UNL     1      -2.789   3.961 133.545  0.00  0.00    +0.000 C 
ATOM     16  C   UNL     1      -1.950   5.025 132.951  0.00  0.00    +0.000 C 
ATOM     17  O   UNL     1      -0.980   4.886 132.221  0.00  0.00    +0.000 OA
ATOM     18  C   UNL     1      -2.530   6.385 133.227  0.00  0.00    +0.000 C 
ATOM     19  C   UNL     1      -3.451   6.178 132.246  0.00  0.00    +0.000 C 
ATOM     20  C   UNL     1      -4.356   4.866 131.883  0.00  0.00    +0.000 C 
ATOM     21  C   UNL     1      -4.253   4.107 130.547  0.00  0.00    +0.000 C 
ENDROOT
BRANCH   4  22
ATOM     22  C   UNL     1      -9.186   5.609 129.220  0.00  0.00    +0.000 C 
ATOM     23  O   UNL     1      -8.680   5.247 128.140  0.00  0.00    +0.000 OA
BRANCH  22  24
ATOM     24  C   UNL     1     -10.345   6.749 128.961  0.00  0.00    +0.000 C 
BRANCH  24  25
ATOM     25  O   UNL     1     -10.184   7.356 127.557  0.00  0.00    +0.000 OA
BRANCH  25  26
ATOM     26  C   UNL     1     -11.076   7.538 126.537  0.00  0.00    +0.000 C 
ATOM     27  C   UNL     1     -12.504   7.124 126.736  0.00  0.00    +0.000 C 
ATOM     28  O   UNL     1     -10.747   8.032 125.455  0.00  0.00    +0.000 OA
ENDBRANCH  25  26
ENDBRANCH  24  25
ENDBRANCH  22  24
ENDBRANCH   4  22
BRANCH   8  29
ATOM     29  O   UNL     1      -6.499   5.696 129.560  0.00  0.00    +0.000 OA
ATOM     30  H   UNL     1      -6.822   6.306 128.871  0.00  0.00    +0.000 HD
ENDBRANCH   8  29
BRANCH   4  31
ATOM     31  O   UNL     1      -9.555   3.660 130.701  0.00  0.00    +0.000 OA
BRANCH  31  32
ATOM     32  C   UNL     1      -9.231   2.466 130.103  0.00  0.00    +0.000 C 
ATOM     33  O   UNL     1      -9.168   2.308 128.890  0.00  0.00    +0.000 OA
BRANCH  32  34
ATOM     34  C   UNL     1      -8.805   1.296 130.959  0.00  0.00    +0.000 C 
ATOM     35  C   UNL     1      -7.366   0.929 130.516  0.00  0.00    +0.000 C 
ENDBRANCH  32  34
ENDBRANCH  31  32
ENDBRANCH   4  31
TORSDOF 8
ENDMDL
MODEL 2
REMARK VINA RESULT:      -8.5      4.232      7.931
REMARK  Name = Methylprednisolone aceponate
REMARK  13 active torsions:
REMARK  status: ('A' for Active; 'I' for Inactive)
REMARK    1  A    between atoms: C_5  and  O_6
REMARK    2  A    between atoms: C_5  and  C_11
REMARK    3  A    between atoms: O_6  and  C_7
REMARK    4  A    between atoms: C_7  and  C_9
REMARK    5  A    between atoms: C_9  and  C_10
REMARK    6  A    between atoms: C_11  and  C_13
REMARK    7  A    between atoms: C_13  and  O_14
REMARK    8  A    between atoms: O_14  and  C_15
REMARK    9  A    between atoms: C_15  and  C_16
REMARK   10  A    between atoms: C_18  and  C_19
REMARK   11  A    between atoms: C_21  and  O_22
REMARK   12  A    between atoms: C_28  and  C_29
REMARK   13  A    between atoms: C_36  and  C_37
REMARK                            x       y       z     vdW  Elec       q    Type
REMARK                         _______ _______ _______ _____ _____    ______ ____
ROOT
ATOM      1  C   UNL     1      -5.885   0.506 129.385  0.00  0.00    +0.000 C 
ATOM      2  C   UNL     1      -4.745  -0.320 129.562  0.00  0.00    +0.000 C 
ATOM      3  C   UNL     1      -4.900   0.450 128.295  0.00  0.00    +0.000 C 
ATOM      4  C   UNL     1      -6.249   2.029 128.304  0.00  0.00    +0.000 C 
ATOM      5  C   UNL     1      -4.931   1.955 128.634  0.00  0.00    +0.000 C 
ATOM      6  C   UNL     1      -4.203   2.742 129.665  0.00  0.00    +0.000 C 
ATOM      7  C   UNL     1      -4.652   1.928 126.785  0.00  0.00    +0.000 C 
ATOM      8  C   UNL     1      -5.928   1.130 125.979  0.00  0.00    +0.000 C 
ATOM      9  C   UNL     1      -6.528  -0.316 126.536  0.00  0.00    +0.000 C 
ATOM     10  C   UNL     1      -7.039  -0.226 128.126  0.00  0.00    +0.000 C 
ATOM     11  C   UNL     1      -7.457  -1.560 128.681  0.00  0.00    +0.000 C 
ATOM     12  C   UNL     1      -8.449  -2.258 127.775  0.00  0.00    +0.000 C 
ATOM     13  C   UNL     1      -8.701  -3.614 128.399  0.00  0.00    +0.000 C 
ATOM     14  C   UNL     1      -8.046  -2.358 126.320  0.00  0.00    +0.000 C 
ATOM     15  C   UNL     1      -8.161  -3.473 125.570  0.00  0.00    +0.000 C 
ATOM     16  C   UNL     1      -7.855  -3.261 124.138  0.00  0.00    +0.000 C 
ATOM     17  O   UNL     1      -8.647  -3.209 123.208  0.00  0.00    +0.000 OA
ATOM     18  C   UNL     1      -6.398  -2.946 123.939  0.00  0.00    +0.000 C 
ATOM     19  C   UNL     1      -6.627  -1.673 124.365  0.00  0.00    +0.000 C 
ATOM     20  C   UNL     1      -7.513  -1.104 125.615  0.00  0.00    +0.000 C 
ATOM     21  C   UNL     1      -8.737  -0.186 125.439  0.00  0.00    +0.000 C 
ENDROOT
BRANCH   4  22
ATOM     22  C   UNL     1      -6.169   3.833 127.806  0.00  0.00    +0.000 C 
ATOM     23  O   UNL     1      -7.204   4.500 127.605  0.00  0.00    +0.000 OA
BRANCH  22  24
ATOM     24  C   UNL     1      -4.830   4.727 127.465  0.00  0.00    +0.000 C 
BRANCH  24  25
ATOM     25  O   UNL     1      -4.724   5.913 128.441  0.00  0.00    +0.000 OA
BRANCH  25  26
ATOM     26  C   UNL     1      -3.740   6.840 128.642  0.00  0.00    +0.000 C 
ATOM     27  C   UNL     1      -2.308   6.429 128.472  0.00  0.00    +0.000 C 
ATOM     28  O   UNL     1      -3.990   8.006 128.959  0.00  0.00    +0.000 OA
ENDBRANCH  25  26
ENDBRANCH  24  25
ENDBRANCH  22  24
ENDBRANCH   4  22
BRANCH   8  29
ATOM     29  O   UNL     1      -6.983   2.111 125.879  0.00  0.00    +0.000 OA
ATOM     30  H   UNL     1      -6.628   3.017 125.929  0.00  0.00    +0.000 HD
ENDBRANCH   8  29
BRANCH   4  31
ATOM     31  O   UNL     1      -7.012   2.489 129.706  0.00  0.00    +0.000 OA
BRANCH  31  32
ATOM     32  C   UNL     1      -8.358   2.383 129.961  0.00  0.00    +0.000 C 
ATOM     33  O   UNL     1      -9.222   2.455 129.096  0.00  0.00    +0.000 OA
BRANCH  32  34
ATOM     34  C   UNL     1      -8.827   2.039 131.356  0.00  0.00    +0.000 C 
ATOM     35  C   UNL     1      -8.961   0.495 131.405  0.00  0.00    +0.000 C 
ENDBRANCH  32  34
ENDBRANCH  31  32
ENDBRANCH   4  31
TORSDOF 8
ENDMDL
MODEL 3
REMARK VINA RESULT:      -8.4      1.915      2.432
REMARK  Name = Methylprednisolone aceponate
REMARK  13 active torsions:
REMARK  status: ('A' for Active; 'I' for Inactive)
REMARK    1  A    between atoms: C_5  and  O_6
REMARK    2  A    between atoms: C_5  and  C_11
REMARK    3  A    between atoms: O_6  and  C_7
REMARK    4  A    between atoms: C_7  and  C_9
REMARK    5  A    between atoms: C_9  and  C_10
REMARK    6  A    between atoms: C_11  and  C_13
REMARK    7  A    between atoms: C_13  and  O_14
REMARK    8  A    between atoms: O_14  and  C_15
REMARK    9  A    between atoms: C_15  and  C_16
REMARK   10  A    between atoms: C_18  and  C_19
REMARK   11  A    between atoms: C_21  and  O_22
REMARK   12  A    between atoms: C_28  and  C_29
REMARK   13  A    between atoms: C_36  and  C_37
REMARK                            x       y       z     vdW  Elec       q    Type
REMARK                         _______ _______ _______ _____ _____    ______ ____
ROOT
ATOM      1  C   UNL     1      -8.463   2.843 131.052  0.00  0.00    +0.000 C 
ATOM      2  C   UNL     1      -8.900   2.032 132.132  0.00  0.00    +0.000 C 
ATOM      3  C   UNL     1      -8.989   3.516 132.249  0.00  0.00    +0.000 C 
ATOM      4  C   UNL     1      -8.872   4.615 130.491  0.00  0.00    +0.000 C 
ATOM      5  C   UNL     1      -9.923   4.042 131.139  0.00  0.00    +0.000 C 
ATOM      6  C   UNL     1     -11.158   3.467 130.543  0.00  0.00    +0.000 C 
ATOM      7  C   UNL     1      -9.767   5.495 132.306  0.00  0.00    +0.000 C 
ATOM      8  C   UNL     1      -8.140   5.989 132.464  0.00  0.00    +0.000 C 
ATOM      9  C   UNL     1      -6.922   4.881 132.689  0.00  0.00    +0.000 C 
ATOM     10  C   UNL     1      -6.884   3.721 131.484  0.00  0.00    +0.000 C 
ATOM     11  C   UNL     1      -5.873   2.638 131.749  0.00  0.00    +0.000 C 
ATOM     12  C   UNL     1      -4.509   3.210 132.068  0.00  0.00    +0.000 C 
ATOM     13  C   UNL     1      -3.629   2.027 132.408  0.00  0.00    +0.000 C 
ATOM     14  C   UNL     1      -4.483   4.276 133.143  0.00  0.00    +0.000 C 
ATOM     15  C   UNL     1      -3.587   4.325 134.150  0.00  0.00    +0.000 C 
ATOM     16  C   UNL     1      -3.675   5.556 134.966  0.00  0.00    +0.000 C 
ATOM     17  O   UNL     1      -2.907   6.506 134.962  0.00  0.00    +0.000 OA
ATOM     18  C   UNL     1      -4.963   5.597 135.742  0.00  0.00    +0.000 C 
ATOM     19  C   UNL     1      -5.620   5.968 134.609  0.00  0.00    +0.000 C 
ATOM     20  C   UNL     1      -5.507   5.417 133.074  0.00  0.00    +0.000 C 
ATOM     21  C   UNL     1      -5.060   6.293 131.889  0.00  0.00    +0.000 C 
ENDROOT
BRANCH   4  22
ATOM     22  C   UNL     1      -9.908   5.968 129.711  0.00  0.00    +0.000 C 
ATOM     23  O   UNL     1      -9.402   6.824 128.959  0.00  0.00    +0.000 OA
BRANCH  22  24
ATOM     24  C   UNL     1     -11.501   6.291 129.965  0.00  0.00    +0.000 C 
BRANCH  24  25
ATOM     25  O   UNL     1     -12.296   6.084 128.664  0.00  0.00    +0.000 OA
BRANCH  25  26
ATOM     26  C   UNL     1     -12.693   6.959 127.691  0.00  0.00    +0.000 C 
ATOM     27  C   UNL     1     -13.523   8.147 128.076  0.00  0.00    +0.000 C 
ATOM     28  O   UNL     1     -12.390   6.805 126.505  0.00  0.00    +0.000 OA
ENDBRANCH  25  26
ENDBRANCH  24  25
ENDBRANCH  22  24
ENDBRANCH   4  22
BRANCH   8  29
ATOM     29  O   UNL     1      -7.877   6.802 131.300  0.00  0.00    +0.000 OA
ATOM     30  H   UNL     1      -7.499   7.664 131.551  0.00  0.00    +0.000 HD
ENDBRANCH   8  29
BRANCH   4  31
ATOM     31  O   UNL     1      -8.819   3.856 129.014  0.00  0.00    +0.000 OA
BRANCH  31  32
ATOM     32  C   UNL     1      -7.737   3.815 128.170  0.00  0.00    +0.000 C 
ATOM     33  O   UNL     1      -6.999   4.770 127.963  0.00  0.00    +0.000 OA
BRANCH  32  34
ATOM     34  C   UNL     1      -7.335   2.502 127.537  0.00  0.00    +0.000 C 
ATOM     35  C   UNL     1      -8.542   1.545 127.711  0.00  0.00    +0.000 C 
ENDBRANCH  32  34
ENDBRANCH  31  32
ENDBRANCH   4  31
TORSDOF 8
ENDMDL
MODEL 4
REMARK VINA RESULT:      -8.4      6.087      9.937
REMARK  Name = Methylprednisolone aceponate
REMARK  13 active torsions:
REMARK  status: ('A' for Active; 'I' for Inactive)
REMARK    1  A    between atoms: C_5  and  O_6
REMARK    2  A    between atoms: C_5  and  C_11
REMARK    3  A    between atoms: O_6  and  C_7
REMARK    4  A    between atoms: C_7  and  C_9
REMARK    5  A    between atoms: C_9  and  C_10
REMARK    6  A    between atoms: C_11  and  C_13
REMARK    7  A    between atoms: C_13  and  O_14
REMARK    8  A    between atoms: O_14  and  C_15
REMARK    9  A    between atoms: C_15  and  C_16
REMARK   10  A    between atoms: C_18  and  C_19
REMARK   11  A    between atoms: C_21  and  O_22
REMARK   12  A    between atoms: C_28  and  C_29
REMARK   13  A    between atoms: C_36  and  C_37
REMARK                            x       y       z     vdW  Elec       q    Type
REMARK                         _______ _______ _______ _____ _____    ______ ____
ROOT
ATOM      1  C   UNL     1      -5.958  -3.863 131.170  0.00  0.00    +0.000 C 
ATOM      2  C   UNL     1      -5.548  -5.168 130.794  0.00  0.00    +0.000 C 
ATOM      3  C   UNL     1      -4.770  -3.991 130.313  0.00  0.00    +0.000 C 
ATOM      4  C   UNL     1      -5.056  -2.193 131.311  0.00  0.00    +0.000 C 
ATOM      5  C   UNL     1      -4.212  -3.236 131.537  0.00  0.00    +0.000 C 
ATOM      6  C   UNL     1      -3.701  -3.730 132.843  0.00  0.00    +0.000 C 
ATOM      7  C   UNL     1      -3.240  -2.528 130.105  0.00  0.00    +0.000 C 
ATOM      8  C   UNL     1      -4.273  -1.801 128.955  0.00  0.00    +0.000 C 
ATOM      9  C   UNL     1      -5.662  -2.557 128.447  0.00  0.00    +0.000 C 
ATOM     10  C   UNL     1      -6.675  -2.954 129.718  0.00  0.00    +0.000 C 
ATOM     11  C   UNL     1      -7.871  -3.757 129.282  0.00  0.00    +0.000 C 
ATOM     12  C   UNL     1      -8.595  -3.102 128.125  0.00  0.00    +0.000 C 
ATOM     13  C   UNL     1      -9.701  -4.058 127.731  0.00  0.00    +0.000 C 
ATOM     14  C   UNL     1      -7.726  -2.709 126.950  0.00  0.00    +0.000 C 
ATOM     15  C   UNL     1      -8.038  -2.937 125.658  0.00  0.00    +0.000 C 
ATOM     16  C   UNL     1      -7.104  -2.307 124.700  0.00  0.00    +0.000 C 
ATOM     17  O   UNL     1      -7.303  -1.320 124.008  0.00  0.00    +0.000 OA
ATOM     18  C   UNL     1      -5.745  -2.948 124.771  0.00  0.00    +0.000 C 
ATOM     19  C   UNL     1      -5.488  -2.248 125.910  0.00  0.00    +0.000 C 
ATOM     20  C   UNL     1      -6.418  -1.953 127.221  0.00  0.00    +0.000 C 
ATOM     21  C   UNL     1      -6.848  -0.540 127.656  0.00  0.00    +0.000 C 
ENDROOT
BRANCH   4  22
ATOM     22  C   UNL     1      -3.920  -0.921 132.087  0.00  0.00    +0.000 C 
ATOM     23  O   UNL     1      -4.047   0.297 131.850  0.00  0.00    +0.000 OA
BRANCH  22  24
ATOM     24  C   UNL     1      -2.602  -1.190 133.035  0.00  0.00    +0.000 C 
BRANCH  24  25
ATOM     25  O   UNL     1      -2.701  -0.357 134.325  0.00  0.00    +0.000 OA
BRANCH  25  26
ATOM     26  C   UNL     1      -3.630  -0.338 135.327  0.00  0.00    +0.000 C 
ATOM     27  C   UNL     1      -4.159  -1.639 135.854  0.00  0.00    +0.000 C 
ATOM     28  O   UNL     1      -4.050   0.714 135.815  0.00  0.00    +0.000 OA
ENDBRANCH  25  26
ENDBRANCH  24  25
ENDBRANCH  22  24
ENDBRANCH   4  22
BRANCH   8  29
ATOM     29  O   UNL     1      -4.574  -0.495 129.492  0.00  0.00    +0.000 OA
ATOM     30  H   UNL     1      -5.046  -0.564 130.342  0.00  0.00    +0.000 HD
ENDBRANCH   8  29
BRANCH   4  31
ATOM     31  O   UNL     1      -6.008  -2.116 132.671  0.00  0.00    +0.000 OA
BRANCH  31  32
ATOM     32  C   UNL     1      -6.924  -1.133 132.956  0.00  0.00    +0.000 C 
ATOM     33  O   UNL     1      -6.760  -0.280 133.820  0.00  0.00    +0.000 OA
BRANCH  32  34
ATOM     34  C   UNL     1      -8.161  -0.995 132.098  0.00  0.00    +0.000 C 
ATOM     35  C   UNL     1      -7.913   0.219 131.166  0.00  0.00    +0.000 C 
ENDBRANCH  32  34
ENDBRANCH  31  32
ENDBRANCH   4  31
TORSDOF 8
ENDMDL
MODEL 5
REMARK VINA RESULT:      -8.2      4.681      7.343
REMARK  Name = Methylprednisolone aceponate
REMARK  13 active torsions:
REMARK  status: ('A' for Active; 'I' for Inactive)
REMARK    1  A    between atoms: C_5  and  O_6
REMARK    2  A    between atoms: C_5  and  C_11
REMARK    3  A    between atoms: O_6  and  C_7
REMARK    4  A    between atoms: C_7  and  C_9
REMARK    5  A    between atoms: C_9  and  C_10
REMARK    6  A    between atoms: C_11  and  C_13
REMARK    7  A    between atoms: C_13  and  O_14
REMARK    8  A    between atoms: O_14  and  C_15
REMARK    9  A    between atoms: C_15  and  C_16
REMARK   10  A    between atoms: C_18  and  C_19
REMARK   11  A    between atoms: C_21  and  O_22
REMARK   12  A    between atoms: C_28  and  C_29
REMARK   13  A    between atoms: C_36  and  C_37
REMARK                            x       y       z     vdW  Elec       q    Type
REMARK                         _______ _______ _______ _____ _____    ______ ____
ROOT
ATOM      1  C   UNL     1      -5.486   2.269 127.215  0.00  0.00    +0.000 C 
ATOM      2  C   UNL     1      -4.155   2.351 126.729  0.00  0.00    +0.000 C 
ATOM      3  C   UNL     1      -4.990   1.168 126.376  0.00  0.00    +0.000 C 
ATOM      4  C   UNL     1      -7.043   1.346 126.629  0.00  0.00    +0.000 C 
ATOM      5  C   UNL     1      -6.223   1.653 125.586  0.00  0.00    +0.000 C 
ATOM      6  C   UNL     1      -6.382   2.747 124.592  0.00  0.00    +0.000 C 
ATOM      7  C   UNL     1      -6.209  -0.193 125.286  0.00  0.00    +0.000 C 
ATOM      8  C   UNL     1      -6.325  -1.059 126.753  0.00  0.00    +0.000 C 
ATOM      9  C   UNL     1      -5.411  -0.639 128.076  0.00  0.00    +0.000 C 
ATOM     10  C   UNL     1      -5.629   0.958 128.522  0.00  0.00    +0.000 C 
ATOM     11  C   UNL     1      -4.707   1.384 129.633  0.00  0.00    +0.000 C 
ATOM     12  C   UNL     1      -4.757   0.426 130.803  0.00  0.00    +0.000 C 
ATOM     13  C   UNL     1      -3.719   0.917 131.789  0.00  0.00    +0.000 C 
ATOM     14  C   UNL     1      -4.579  -1.037 130.457  0.00  0.00    +0.000 C 
ATOM     15  C   UNL     1      -3.786  -1.891 131.135  0.00  0.00    +0.000 C 
ATOM     16  C   UNL     1      -3.917  -3.299 130.699  0.00  0.00    +0.000 C 
ATOM     17  O   UNL     1      -4.479  -4.210 131.288  0.00  0.00    +0.000 OA
ATOM     18  C   UNL     1      -3.388  -3.482 129.302  0.00  0.00    +0.000 C 
ATOM     19  C   UNL     1      -4.532  -2.932 128.810  0.00  0.00    +0.000 C 
ATOM     20  C   UNL     1      -5.385  -1.622 129.290  0.00  0.00    +0.000 C 
ATOM     21  C   UNL     1      -6.838  -1.693 129.794  0.00  0.00    +0.000 C 
ENDROOT
BRANCH   4  22
ATOM     22  C   UNL     1      -8.537   1.026 125.544  0.00  0.00    +0.000 C 
ATOM     23  O   UNL     1      -9.694   1.029 126.010  0.00  0.00    +0.000 OA
BRANCH  22  24
ATOM     24  C   UNL     1      -8.557   0.607 123.953  0.00  0.00    +0.000 C 
BRANCH  24  25
ATOM     25  O   UNL     1      -9.443  -0.633 123.744  0.00  0.00    +0.000 OA
BRANCH  25  26
ATOM     26  C   UNL     1      -9.283  -1.938 124.118  0.00  0.00    +0.000 C 
ATOM     27  C   UNL     1      -8.700  -2.910 123.135  0.00  0.00    +0.000 C 
ATOM     28  O   UNL     1      -9.602  -2.346 125.238  0.00  0.00    +0.000 OA
ENDBRANCH  25  26
ENDBRANCH  24  25
ENDBRANCH  22  24
ENDBRANCH   4  22
BRANCH   8  29
ATOM     29  O   UNL     1      -7.730  -1.050 127.086  0.00  0.00    +0.000 OA
ATOM     30  H   UNL     1      -7.946  -1.757 127.722  0.00  0.00    +0.000 HD
ENDBRANCH   8  29
BRANCH   4  31
ATOM     31  O   UNL     1      -7.724   2.795 127.073  0.00  0.00    +0.000 OA
BRANCH  31  32
ATOM     32  C   UNL     1      -8.246   3.093 128.308  0.00  0.00    +0.000 C 
ATOM     33  O   UNL     1      -9.147   2.455 128.837  0.00  0.00    +0.000 OA
BRANCH  32  34
ATOM     34  C   UNL     1      -7.616   4.188 129.139  0.00  0.00    +0.000 C 
ATOM     35  C   UNL     1      -7.460   3.615 130.571  0.00  0.00    +0.000 C 
ENDBRANCH  32  34
ENDBRANCH  31  32
ENDBRANCH   4  31
TORSDOF 8
ENDMDL
MODEL 6
REMARK VINA RESULT:      -8.1      1.586      2.070
REMARK  Name = Methylprednisolone aceponate
REMARK  13 active torsions:
REMARK  status: ('A' for Active; 'I' for Inactive)
REMARK    1  A    between atoms: C_5  and  O_6
REMARK    2  A    between atoms: C_5  and  C_11
REMARK    3  A    between atoms: O_6  and  C_7
REMARK    4  A    between atoms: C_7  and  C_9
REMARK    5  A    between atoms: C_9  and  C_10
REMARK    6  A    between atoms: C_11  and  C_13
REMARK    7  A    between atoms: C_13  and  O_14
REMARK    8  A    between atoms: O_14  and  C_15
REMARK    9  A    between atoms: C_15  and  C_16
REMARK   10  A    between atoms: C_18  and  C_19
REMARK   11  A    between atoms: C_21  and  O_22
REMARK   12  A    between atoms: C_28  and  C_29
REMARK   13  A    between atoms: C_36  and  C_37
REMARK                            x       y       z     vdW  Elec       q    Type
REMARK                         _______ _______ _______ _____ _____    ______ ____
ROOT
ATOM      1  C   UNL     1      -7.616   4.081 133.369  0.00  0.00    +0.000 C 
ATOM      2  C   UNL     1      -7.409   4.961 134.462  0.00  0.00    +0.000 C 
ATOM      3  C   UNL     1      -7.659   5.527 133.106  0.00  0.00    +0.000 C 
ATOM      4  C   UNL     1      -8.489   4.258 131.687  0.00  0.00    +0.000 C 
ATOM      5  C   UNL     1      -9.051   5.064 132.628  0.00  0.00    +0.000 C 
ATOM      6  C   UNL     1     -10.321   4.849 133.372  0.00  0.00    +0.000 C 
ATOM      7  C   UNL     1      -8.619   6.447 131.446  0.00  0.00    +0.000 C 
ATOM      8  C   UNL     1      -7.181   6.104 130.591  0.00  0.00    +0.000 C 
ATOM      9  C   UNL     1      -5.838   5.513 131.370  0.00  0.00    +0.000 C 
ATOM     10  C   UNL     1      -6.158   4.107 132.218  0.00  0.00    +0.000 C 
ATOM     11  C   UNL     1      -4.984   3.638 133.034  0.00  0.00    +0.000 C 
ATOM     12  C   UNL     1      -3.720   3.559 132.206  0.00  0.00    +0.000 C 
ATOM     13  C   UNL     1      -2.614   3.177 133.166  0.00  0.00    +0.000 C 
ATOM     14  C   UNL     1      -3.386   4.800 131.405  0.00  0.00    +0.000 C 
ATOM     15  C   UNL     1      -2.158   5.352 131.328  0.00  0.00    +0.000 C 
ATOM     16  C   UNL     1      -2.063   6.457 130.349  0.00  0.00    +0.000 C 
ATOM     17  O   UNL     1      -1.525   6.434 129.252  0.00  0.00    +0.000 OA
ATOM     18  C   UNL     1      -2.871   7.645 130.796  0.00  0.00    +0.000 C 
ATOM     19  C   UNL     1      -4.005   7.011 130.389  0.00  0.00    +0.000 C 
ATOM     20  C   UNL     1      -4.494   5.462 130.576  0.00  0.00    +0.000 C 
ATOM     21  C   UNL     1      -4.747   4.504 129.397  0.00  0.00    +0.000 C 
ENDROOT
BRANCH   4  22
ATOM     22  C   UNL     1      -9.950   4.363 130.519  0.00  0.00    +0.000 C 
ATOM     23  O   UNL     1     -10.072   3.580 129.556  0.00  0.00    +0.000 OA
BRANCH  22  24
ATOM     24  C   UNL     1     -11.151   5.487 130.505  0.00  0.00    +0.000 C 
BRANCH  24  25
ATOM     25  O   UNL     1     -11.313   6.070 129.090  0.00  0.00    +0.000 OA
BRANCH  25  26
ATOM     26  C   UNL     1     -10.482   6.835 128.321  0.00  0.00    +0.000 C 
ATOM     27  C   UNL     1     -10.631   8.327 128.351  0.00  0.00    +0.000 C 
ATOM     28  O   UNL     1      -9.610   6.340 127.602  0.00  0.00    +0.000 OA
ENDBRANCH  25  26
ENDBRANCH  24  25
ENDBRANCH  22  24
ENDBRANCH   4  22
BRANCH   8  29
ATOM     29  O   UNL     1      -7.579   5.217 129.524  0.00  0.00    +0.000 OA
ATOM     30  H   UNL     1      -6.810   4.751 129.149  0.00  0.00    +0.000 HD
ENDBRANCH   8  29
BRANCH   4  31
ATOM     31  O   UNL     1      -8.975   2.724 132.097  0.00  0.00    +0.000 OA
BRANCH  31  32
ATOM     32  C   UNL     1      -8.272   1.567 131.861  0.00  0.00    +0.000 C 
ATOM     33  O   UNL     1      -7.768   0.886 132.746  0.00  0.00    +0.000 OA
BRANCH  32  34
ATOM     34  C   UNL     1      -8.199   1.011 130.458  0.00  0.00    +0.000 C 
ATOM     35  C   UNL     1      -6.825   1.444 129.886  0.00  0.00    +0.000 C 
ENDBRANCH  32  34
ENDBRANCH  31  32
ENDBRANCH   4  31
TORSDOF 8
ENDMDL
MODEL 7
REMARK VINA RESULT:      -8.1      5.016      9.191
REMARK  Name = Methylprednisolone aceponate
REMARK  13 active torsions:
REMARK  status: ('A' for Active; 'I' for Inactive)
REMARK    1  A    between atoms: C_5  and  O_6
REMARK    2  A    between atoms: C_5  and  C_11
REMARK    3  A    between atoms: O_6  and  C_7
REMARK    4  A    between atoms: C_7  and  C_9
REMARK    5  A    between atoms: C_9  and  C_10
REMARK    6  A    between atoms: C_11  and  C_13
REMARK    7  A    between atoms: C_13  and  O_14
REMARK    8  A    between atoms: O_14  and  C_15
REMARK    9  A    between atoms: C_15  and  C_16
REMARK   10  A    between atoms: C_18  and  C_19
REMARK   11  A    between atoms: C_21  and  O_22
REMARK   12  A    between atoms: C_28  and  C_29
REMARK   13  A    between atoms: C_36  and  C_37
REMARK                            x       y       z     vdW  Elec       q    Type
REMARK                         _______ _______ _______ _____ _____    ______ ____
ROOT
ATOM      1  C   UNL     1      -5.834  -4.004 131.453  0.00  0.00    +0.000 C 
ATOM      2  C   UNL     1      -5.250  -5.161 130.876  0.00  0.00    +0.000 C 
ATOM      3  C   UNL     1      -4.636  -3.828 130.620  0.00  0.00    +0.000 C 
ATOM      4  C   UNL     1      -5.167  -2.278 131.895  0.00  0.00    +0.000 C 
ATOM      5  C   UNL     1      -4.191  -3.223 131.967  0.00  0.00    +0.000 C 
ATOM      6  C   UNL     1      -3.625  -3.859 133.187  0.00  0.00    +0.000 C 
ATOM      7  C   UNL     1      -3.315  -2.162 130.701  0.00  0.00    +0.000 C 
ATOM      8  C   UNL     1      -4.430  -1.394 129.660  0.00  0.00    +0.000 C 
ATOM      9  C   UNL     1      -5.703  -2.230 128.995  0.00  0.00    +0.000 C 
ATOM     10  C   UNL     1      -6.660  -2.965 130.153  0.00  0.00    +0.000 C 
ATOM     11  C   UNL     1      -7.734  -3.834 129.556  0.00  0.00    +0.000 C 
ATOM     12  C   UNL     1      -8.533  -3.095 128.504  0.00  0.00    +0.000 C 
ATOM     13  C   UNL     1      -9.498  -4.108 127.926  0.00  0.00    +0.000 C 
ATOM     14  C   UNL     1      -7.719  -2.398 127.436  0.00  0.00    +0.000 C 
ATOM     15  C   UNL     1      -7.991  -2.444 126.116  0.00  0.00    +0.000 C 
ATOM     16  C   UNL     1      -7.144  -1.544 125.302  0.00  0.00    +0.000 C 
ATOM     17  O   UNL     1      -7.471  -0.489 124.779  0.00  0.00    +0.000 OA
ATOM     18  C   UNL     1      -5.712  -2.003 125.304  0.00  0.00    +0.000 C 
ATOM     19  C   UNL     1      -5.557  -1.477 126.550  0.00  0.00    +0.000 C 
ATOM     20  C   UNL     1      -6.527  -1.533 127.865  0.00  0.00    +0.000 C 
ATOM     21  C   UNL     1      -7.146  -0.283 128.517  0.00  0.00    +0.000 C 
ENDROOT
BRANCH   4  22
ATOM     22  C   UNL     1      -4.217  -1.016 132.903  0.00  0.00    +0.000 C 
ATOM     23  O   UNL     1      -2.987  -0.865 132.766  0.00  0.00    +0.000 OA
BRANCH  22  24
ATOM     24  C   UNL     1      -4.784  -0.062 134.118  0.00  0.00    +0.000 C 
BRANCH  24  25
ATOM     25  O   UNL     1      -5.103   1.344 133.581  0.00  0.00    +0.000 OA
BRANCH  25  26
ATOM     26  C   UNL     1      -6.221   1.857 132.986  0.00  0.00    +0.000 C 
ATOM     27  C   UNL     1      -7.200   2.630 133.819  0.00  0.00    +0.000 C 
ATOM     28  O   UNL     1      -6.454   1.707 131.783  0.00  0.00    +0.000 OA
ENDBRANCH  25  26
ENDBRANCH  24  25
ENDBRANCH  22  24
ENDBRANCH   4  22
BRANCH   8  29
ATOM     29  O   UNL     1      -4.908  -0.249 130.398  0.00  0.00    +0.000 OA
ATOM     30  H   UNL     1      -4.767  -0.362 131.356  0.00  0.00    +0.000 HD
ENDBRANCH   8  29
BRANCH   4  31
ATOM     31  O   UNL     1      -6.127  -2.557 133.221  0.00  0.00    +0.000 OA
BRANCH  31  32
ATOM     32  C   UNL     1      -7.446  -2.195 133.350  0.00  0.00    +0.000 C 
ATOM     33  O   UNL     1      -7.909  -1.148 132.913  0.00  0.00    +0.000 OA
BRANCH  32  34
ATOM     34  C   UNL     1      -8.432  -3.169 133.952  0.00  0.00    +0.000 C 
ATOM     35  C   UNL     1      -7.591  -4.286 134.621  0.00  0.00    +0.000 C 
ENDBRANCH  32  34
ENDBRANCH  31  32
ENDBRANCH   4  31
TORSDOF 8
ENDMDL
MODEL 8
REMARK VINA RESULT:      -7.9      4.230      6.473
REMARK  Name = Methylprednisolone aceponate
REMARK  13 active torsions:
REMARK  status: ('A' for Active; 'I' for Inactive)
REMARK    1  A    between atoms: C_5  and  O_6
REMARK    2  A    between atoms: C_5  and  C_11
REMARK    3  A    between atoms: O_6  and  C_7
REMARK    4  A    between atoms: C_7  and  C_9
REMARK    5  A    between atoms: C_9  and  C_10
REMARK    6  A    between atoms: C_11  and  C_13
REMARK    7  A    between atoms: C_13  and  O_14
REMARK    8  A    between atoms: O_14  and  C_15
REMARK    9  A    between atoms: C_15  and  C_16
REMARK   10  A    between atoms: C_18  and  C_19
REMARK   11  A    between atoms: C_21  and  O_22
REMARK   12  A    between atoms: C_28  and  C_29
REMARK   13  A    between atoms: C_36  and  C_37
REMARK                            x       y       z     vdW  Elec       q    Type
REMARK                         _______ _______ _______ _____ _____    ______ ____
ROOT
ATOM      1  C   UNL     1      -4.810   2.991 128.208  0.00  0.00    +0.000 C 
ATOM      2  C   UNL     1      -3.451   2.924 127.805  0.00  0.00    +0.000 C 
ATOM      3  C   UNL     1      -4.455   2.045 127.140  0.00  0.00    +0.000 C 
ATOM      4  C   UNL     1      -6.456   2.556 127.356  0.00  0.00    +0.000 C 
ATOM      5  C   UNL     1      -5.511   2.935 126.453  0.00  0.00    +0.000 C 
ATOM      6  C   UNL     1      -5.387   4.244 125.757  0.00  0.00    +0.000 C 
ATOM      7  C   UNL     1      -5.806   1.247 125.703  0.00  0.00    +0.000 C 
ATOM      8  C   UNL     1      -6.197   0.097 126.904  0.00  0.00    +0.000 C 
ATOM      9  C   UNL     1      -5.333   0.004 128.320  0.00  0.00    +0.000 C 
ATOM     10  C   UNL     1      -5.295   1.460 129.142  0.00  0.00    +0.000 C 
ATOM     11  C   UNL     1      -4.405   1.422 130.355  0.00  0.00    +0.000 C 
ATOM     12  C   UNL     1      -4.724   0.242 131.248  0.00  0.00    +0.000 C 
ATOM     13  C   UNL     1      -3.699   0.272 132.361  0.00  0.00    +0.000 C 
ATOM     14  C   UNL     1      -4.785  -1.103 130.555  0.00  0.00    +0.000 C 
ATOM     15  C   UNL     1      -4.218  -2.232 131.026  0.00  0.00    +0.000 C 
ATOM     16  C   UNL     1      -4.565  -3.442 130.249  0.00  0.00    +0.000 C 
ATOM     17  O   UNL     1      -5.329  -4.338 130.573  0.00  0.00    +0.000 OA
ATOM     18  C   UNL     1      -3.965  -3.387 128.871  0.00  0.00    +0.000 C 
ATOM     19  C   UNL     1      -4.946  -2.523 128.491  0.00  0.00    +0.000 C 
ATOM     20  C   UNL     1      -5.585  -1.224 129.252  0.00  0.00    +0.000 C 
ATOM     21  C   UNL     1      -7.063  -1.129 129.671  0.00  0.00    +0.000 C 
ENDROOT
BRANCH   4  22
ATOM     22  C   UNL     1      -7.889   2.801 126.174  0.00  0.00    +0.000 C 
ATOM     23  O   UNL     1      -8.938   2.136 126.276  0.00  0.00    +0.000 OA
BRANCH  22  24
ATOM     24  C   UNL     1      -7.946   3.771 124.846  0.00  0.00    +0.000 C 
BRANCH  24  25
ATOM     25  O   UNL     1      -8.112   2.918 123.576  0.00  0.00    +0.000 OA
BRANCH  25  26
ATOM     26  C   UNL     1      -7.839   3.181 122.263  0.00  0.00    +0.000 C 
ATOM     27  C   UNL     1      -6.410   3.226 121.810  0.00  0.00    +0.000 C 
ATOM     28  O   UNL     1      -8.731   3.382 121.434  0.00  0.00    +0.000 OA
ENDBRANCH  25  26
ENDBRANCH  24  25
ENDBRANCH  22  24
ENDBRANCH   4  22
BRANCH   8  29
ATOM     29  O   UNL     1      -7.600   0.301 127.179  0.00  0.00    +0.000 OA
ATOM     30  H   UNL     1      -8.038   0.771 126.445  0.00  0.00    +0.000 HD
ENDBRANCH   8  29
BRANCH   4  31
ATOM     31  O   UNL     1      -6.897   3.962 128.123  0.00  0.00    +0.000 OA
BRANCH  31  32
ATOM     32  C   UNL     1      -7.956   4.109 128.986  0.00  0.00    +0.000 C 
ATOM     33  O   UNL     1      -8.988   4.704 128.700  0.00  0.00    +0.000 OA
BRANCH  32  34
ATOM     34  C   UNL     1      -7.930   3.410 130.326  0.00  0.00    +0.000 C 
ATOM     35  C   UNL     1      -8.800   2.137 130.172  0.00  0.00    +0.000 C 
ENDBRANCH  32  34
ENDBRANCH  31  32
ENDBRANCH   4  31
TORSDOF 8
ENDMDL
MODEL 9
REMARK VINA RESULT:      -7.9      4.029      7.523
REMARK  Name = Methylprednisolone aceponate
REMARK  13 active torsions:
REMARK  status: ('A' for Active; 'I' for Inactive)
REMARK    1  A    between atoms: C_5  and  O_6
REMARK    2  A    between atoms: C_5  and  C_11
REMARK    3  A    between atoms: O_6  and  C_7
REMARK    4  A    between atoms: C_7  and  C_9
REMARK    5  A    between atoms: C_9  and  C_10
REMARK    6  A    between atoms: C_11  and  C_13
REMARK    7  A    between atoms: C_13  and  O_14
REMARK    8  A    between atoms: O_14  and  C_15
REMARK    9  A    between atoms: C_15  and  C_16
REMARK   10  A    between atoms: C_18  and  C_19
REMARK   11  A    between atoms: C_21  and  O_22
REMARK   12  A    between atoms: C_28  and  C_29
REMARK   13  A    between atoms: C_36  and  C_37
REMARK                            x       y       z     vdW  Elec       q    Type
REMARK                         _______ _______ _______ _____ _____    ______ ____
ROOT
ATOM      1  C   UNL     1      -6.162   0.392 129.314  0.00  0.00    +0.000 C 
ATOM      2  C   UNL     1      -4.924  -0.252 129.061  0.00  0.00    +0.000 C 
ATOM      3  C   UNL     1      -5.444   0.741 128.079  0.00  0.00    +0.000 C 
ATOM      4  C   UNL     1      -6.930   2.034 128.735  0.00  0.00    +0.000 C 
ATOM      5  C   UNL     1      -5.572   2.108 128.782  0.00  0.00    +0.000 C 
ATOM      6  C   UNL     1      -4.729   2.759 129.820  0.00  0.00    +0.000 C 
ATOM      7  C   UNL     1      -5.710   2.534 126.966  0.00  0.00    +0.000 C 
ATOM      8  C   UNL     1      -7.033   1.734 126.242  0.00  0.00    +0.000 C 
ATOM      9  C   UNL     1      -7.323   0.122 126.524  0.00  0.00    +0.000 C 
ATOM     10  C   UNL     1      -7.474  -0.225 128.153  0.00  0.00    +0.000 C 
ATOM     11  C   UNL     1      -7.603  -1.699 128.426  0.00  0.00    +0.000 C 
ATOM     12  C   UNL     1      -8.684  -2.335 127.579  0.00  0.00    +0.000 C 
ATOM     13  C   UNL     1      -8.633  -3.817 127.881  0.00  0.00    +0.000 C 
ATOM     14  C   UNL     1      -8.605  -2.045 126.095  0.00  0.00    +0.000 C 
ATOM     15  C   UNL     1      -8.755  -2.971 125.127  0.00  0.00    +0.000 C 
ATOM     16  C   UNL     1      -8.801  -2.402 123.762  0.00  0.00    +0.000 C 
ATOM     17  O   UNL     1      -9.780  -2.279 123.041  0.00  0.00    +0.000 OA
ATOM     18  C   UNL     1      -7.471  -1.815 123.377  0.00  0.00    +0.000 C 
ATOM     19  C   UNL     1      -7.745  -0.723 124.142  0.00  0.00    +0.000 C 
ATOM     20  C   UNL     1      -8.391  -0.596 125.638  0.00  0.00    +0.000 C 
ATOM     21  C   UNL     1      -9.720   0.124 125.930  0.00  0.00    +0.000 C 
ENDROOT
BRANCH   4  22
ATOM     22  C   UNL     1      -7.172   3.892 128.697  0.00  0.00    +0.000 C 
ATOM     23  O   UNL     1      -6.979   4.553 127.657  0.00  0.00    +0.000 OA
BRANCH  22  24
ATOM     24  C   UNL     1      -7.533   4.888 129.956  0.00  0.00    +0.000 C 
BRANCH  24  25
ATOM     25  O   UNL     1      -8.604   5.908 129.532  0.00  0.00    +0.000 OA
BRANCH  25  26
ATOM     26  C   UNL     1      -9.361   6.787 130.256  0.00  0.00    +0.000 C 
ATOM     27  C   UNL     1     -10.310   7.696 129.535  0.00  0.00    +0.000 C 
ATOM     28  O   UNL     1      -9.290   6.857 131.486  0.00  0.00    +0.000 OA
ENDBRANCH  25  26
ENDBRANCH  24  25
ENDBRANCH  22  24
ENDBRANCH   4  22
BRANCH   8  29
ATOM     29  O   UNL     1      -8.189   2.524 126.590  0.00  0.00    +0.000 OA
ATOM     30  H   UNL     1      -8.878   1.976 127.008  0.00  0.00    +0.000 HD
ENDBRANCH   8  29
BRANCH   4  31
ATOM     31  O   UNL     1      -7.411   2.043 130.325  0.00  0.00    +0.000 OA
BRANCH  31  32
ATOM     32  C   UNL     1      -8.666   1.731 130.788  0.00  0.00    +0.000 C 
ATOM     33  O   UNL     1      -9.665   2.396 130.543  0.00  0.00    +0.000 OA
BRANCH  32  34
ATOM     34  C   UNL     1      -8.882   0.440 131.544  0.00  0.00    +0.000 C 
ATOM     35  C   UNL     1      -7.675   0.286 132.503  0.00  0.00    +0.000 C 
ENDBRANCH  32  34
ENDBRANCH  31  32
ENDBRANCH   4  31
TORSDOF 8
ENDMDL
