MODEL 1
REMARK VINA RESULT:      -8.3      0.000      0.000
REMARK  Name = Methyltestosterone
REMARK  4 active torsions:
REMARK  status: ('A' for Active; 'I' for Inactive)
REMARK    1  A    between atoms: C_5  and  C_6
REMARK    2  A    between atoms: C_5  and  O_7
REMARK    3  A    between atoms: C_8  and  C_9
REMARK    4  A    between atoms: C_24  and  C_25
REMARK                            x       y       z     vdW  Elec       q    Type
REMARK                         _______ _______ _______ _____ _____    ______ ____
ROOT
ATOM      1  C   UNL     1      -6.981  -3.255 130.542  0.00  0.00    +0.000 C 
ATOM      2  C   UNL     1      -6.183  -4.423 130.413  0.00  0.00    +0.000 C 
ATOM      3  C   UNL     1      -5.607  -3.170 129.871  0.00  0.00    +0.000 C 
ATOM      4  C   UNL     1      -6.577  -1.446 130.533  0.00  0.00    +0.000 C 
ATOM      5  C   UNL     1      -7.811  -1.279 131.659  0.00  0.00    +0.000 C 
ATOM      6  C   UNL     1      -5.529  -2.162 131.097  0.00  0.00    +0.000 C 
ATOM      7  C   UNL     1      -5.111  -2.318 132.496  0.00  0.00    +0.000 C 
ATOM      8  C   UNL     1      -4.452  -1.337 129.794  0.00  0.00    +0.000 C 
ATOM      9  C   UNL     1      -5.363  -1.049 128.340  0.00  0.00    +0.000 C 
ATOM     10  C   UNL     1      -6.430  -2.167 127.727  0.00  0.00    +0.000 C 
ATOM     11  C   UNL     1      -7.608  -2.710 128.887  0.00  0.00    +0.000 C 
ATOM     12  C   UNL     1      -8.420  -3.860 128.350  0.00  0.00    +0.000 C 
ATOM     13  C   UNL     1      -9.000  -3.546 126.999  0.00  0.00    +0.000 C 
ATOM     14  C   UNL     1      -8.041  -3.025 125.969  0.00  0.00    +0.000 C 
ATOM     15  C   UNL     1      -8.124  -3.475 124.709  0.00  0.00    +0.000 C 
ATOM     16  C   UNL     1      -7.410  -2.647 123.740  0.00  0.00    +0.000 C 
ATOM     17  O   UNL     1      -7.788  -1.554 123.324  0.00  0.00    +0.000 OA
ATOM     18  C   UNL     1      -6.003  -2.970 123.699  0.00  0.00    +0.000 C 
ATOM     19  C   UNL     1      -5.776  -2.006 125.077  0.00  0.00    +0.000 C 
ATOM     20  C   UNL     1      -7.046  -1.910 126.311  0.00  0.00    +0.000 C 
ATOM     21  C   UNL     1      -7.869  -0.615 126.530  0.00  0.00    +0.000 C 
ENDROOT
BRANCH   4  22
ATOM     22  O   UNL     1      -6.003  -0.105 130.779  0.00  0.00    +0.000 OA
ATOM     23  H   UNL     1      -5.111  -0.120 131.171  0.00  0.00    +0.000 HD
ENDBRANCH   4  22
TORSDOF 1
ENDMDL
MODEL 2
REMARK VINA RESULT:      -7.8      1.494      6.027
REMARK  Name = Methyltestosterone
REMARK  4 active torsions:
REMARK  status: ('A' for Active; 'I' for Inactive)
REMARK    1  A    between atoms: C_5  and  C_6
REMARK    2  A    between atoms: C_5  and  O_7
REMARK    3  A    between atoms: C_8  and  C_9
REMARK    4  A    between atoms: C_24  and  C_25
REMARK                            x       y       z     vdW  Elec       q    Type
REMARK                         _______ _______ _______ _____ _____    ______ ____
ROOT
ATOM      1  C   UNL     1      -8.354  -3.199 125.715  0.00  0.00    +0.000 C 
ATOM      2  C   UNL     1      -9.770  -3.174 125.817  0.00  0.00    +0.000 C 
ATOM      3  C   UNL     1      -9.096  -1.859 125.716  0.00  0.00    +0.000 C 
ATOM      4  C   UNL     1      -7.116  -1.979 125.070  0.00  0.00    +0.000 C 
ATOM      5  C   UNL     1      -6.242  -3.313 124.546  0.00  0.00    +0.000 C 
ATOM      6  C   UNL     1      -8.296  -1.884 124.343  0.00  0.00    +0.000 C 
ATOM      7  C   UNL     1      -8.639  -2.353 122.995  0.00  0.00    +0.000 C 
ATOM      8  C   UNL     1      -8.275  -0.065 124.818  0.00  0.00    +0.000 C 
ATOM      9  C   UNL     1      -7.540   0.153 126.380  0.00  0.00    +0.000 C 
ATOM     10  C   UNL     1      -7.844  -0.876 127.651  0.00  0.00    +0.000 C 
ATOM     11  C   UNL     1      -7.579  -2.552 127.267  0.00  0.00    +0.000 C 
ATOM     12  C   UNL     1      -8.055  -3.453 128.377  0.00  0.00    +0.000 C 
ATOM     13  C   UNL     1      -7.489  -3.040 129.707  0.00  0.00    +0.000 C 
ATOM     14  C   UNL     1      -7.641  -1.592 130.073  0.00  0.00    +0.000 C 
ATOM     15  C   UNL     1      -7.984  -1.266 131.327  0.00  0.00    +0.000 C 
ATOM     16  C   UNL     1      -7.744   0.136 131.659  0.00  0.00    +0.000 C 
ATOM     17  O   UNL     1      -6.643   0.635 131.881  0.00  0.00    +0.000 OA
ATOM     18  C   UNL     1      -8.824   0.981 131.207  0.00  0.00    +0.000 C 
ATOM     19  C   UNL     1      -8.144   0.963 129.652  0.00  0.00    +0.000 C 
ATOM     20  C   UNL     1      -7.305  -0.485 129.069  0.00  0.00    +0.000 C 
ATOM     21  C   UNL     1      -5.769  -0.506 128.863  0.00  0.00    +0.000 C 
ENDROOT
BRANCH   4  22
ATOM     22  O   UNL     1      -6.353  -1.006 124.259  0.00  0.00    +0.000 OA
ATOM     23  H   UNL     1      -6.841  -0.658 123.491  0.00  0.00    +0.000 HD
ENDBRANCH   4  22
TORSDOF 1
ENDMDL
MODEL 3
REMARK VINA RESULT:      -7.3      3.683      6.026
REMARK  Name = Methyltestosterone
REMARK  4 active torsions:
REMARK  status: ('A' for Active; 'I' for Inactive)
REMARK    1  A    between atoms: C_5  and  C_6
REMARK    2  A    between atoms: C_5  and  O_7
REMARK    3  A    between atoms: C_8  and  C_9
REMARK    4  A    between atoms: C_24  and  C_25
REMARK                            x       y       z     vdW  Elec       q    Type
REMARK                         _______ _______ _______ _____ _____    ______ ____
ROOT
ATOM      1  C   UNL     1      -5.730   3.237 126.430  0.00  0.00    +0.000 C 
ATOM      2  C   UNL     1      -4.368   3.287 126.031  0.00  0.00    +0.000 C 
ATOM      3  C   UNL     1      -5.360   3.071 124.953  0.00  0.00    +0.000 C 
ATOM      4  C   UNL     1      -7.321   3.509 125.517  0.00  0.00    +0.000 C 
ATOM      5  C   UNL     1      -7.898   4.171 126.947  0.00  0.00    +0.000 C 
ATOM      6  C   UNL     1      -6.329   4.330 124.995  0.00  0.00    +0.000 C 
ATOM      7  C   UNL     1      -6.090   5.771 125.146  0.00  0.00    +0.000 C 
ATOM      8  C   UNL     1      -6.736   3.530 123.342  0.00  0.00    +0.000 C 
ATOM      9  C   UNL     1      -7.253   1.884 123.568  0.00  0.00    +0.000 C 
ATOM     10  C   UNL     1      -6.507   0.864 124.650  0.00  0.00    +0.000 C 
ATOM     11  C   UNL     1      -6.395   1.518 126.258  0.00  0.00    +0.000 C 
ATOM     12  C   UNL     1      -5.542   0.651 127.147  0.00  0.00    +0.000 C 
ATOM     13  C   UNL     1      -5.982  -0.786 127.107  0.00  0.00    +0.000 C 
ATOM     14  C   UNL     1      -6.147  -1.393 125.744  0.00  0.00    +0.000 C 
ATOM     15  C   UNL     1      -5.708  -2.641 125.525  0.00  0.00    +0.000 C 
ATOM     16  C   UNL     1      -6.242  -3.248 124.309  0.00  0.00    +0.000 C 
ATOM     17  O   UNL     1      -7.386  -3.676 124.170  0.00  0.00    +0.000 OA
ATOM     18  C   UNL     1      -5.493  -2.844 123.141  0.00  0.00    +0.000 C 
ATOM     19  C   UNL     1      -6.378  -1.396 123.116  0.00  0.00    +0.000 C 
ATOM     20  C   UNL     1      -6.903  -0.651 124.637  0.00  0.00    +0.000 C 
ATOM     21  C   UNL     1      -8.396  -0.614 125.049  0.00  0.00    +0.000 C 
ENDROOT
BRANCH   4  22
ATOM     22  O   UNL     1      -8.421   4.040 124.682  0.00  0.00    +0.000 OA
ATOM     23  H   UNL     1      -8.127   4.629 123.964  0.00  0.00    +0.000 HD
ENDBRANCH   4  22
TORSDOF 1
ENDMDL
MODEL 4
REMARK VINA RESULT:      -7.2      7.078      8.986
REMARK  Name = Methyltestosterone
REMARK  4 active torsions:
REMARK  status: ('A' for Active; 'I' for Inactive)
REMARK    1  A    between atoms: C_5  and  C_6
REMARK    2  A    between atoms: C_5  and  O_7
REMARK    3  A    between atoms: C_8  and  C_9
REMARK    4  A    between atoms: C_24  and  C_25
REMARK                            x       y       z     vdW  Elec       q    Type
REMARK                         _______ _______ _______ _____ _____    ______ ____
ROOT
ATOM      1  C   UNL     1      -5.278   3.781 130.585  0.00  0.00    +0.000 C 
ATOM      2  C   UNL     1      -5.262   3.752 129.165  0.00  0.00    +0.000 C 
ATOM      3  C   UNL     1      -5.468   5.078 129.793  0.00  0.00    +0.000 C 
ATOM      4  C   UNL     1      -4.983   5.131 131.821  0.00  0.00    +0.000 C 
ATOM      5  C   UNL     1      -4.294   3.943 132.786  0.00  0.00    +0.000 C 
ATOM      6  C   UNL     1      -4.189   5.334 130.700  0.00  0.00    +0.000 C 
ATOM      7  C   UNL     1      -2.752   5.123 130.484  0.00  0.00    +0.000 C 
ATOM      8  C   UNL     1      -4.997   7.030 130.610  0.00  0.00    +0.000 C 
ATOM      9  C   UNL     1      -6.630   6.963 131.209  0.00  0.00    +0.000 C 
ATOM     10  C   UNL     1      -7.654   5.703 130.847  0.00  0.00    +0.000 C 
ATOM     11  C   UNL     1      -6.985   4.138 131.208  0.00  0.00    +0.000 C 
ATOM     12  C   UNL     1      -7.861   3.031 130.682  0.00  0.00    +0.000 C 
ATOM     13  C   UNL     1      -9.288   3.196 131.123  0.00  0.00    +0.000 C 
ATOM     14  C   UNL     1      -9.906   4.542 130.885  0.00  0.00    +0.000 C 
ATOM     15  C   UNL     1     -11.165   4.615 130.430  0.00  0.00    +0.000 C 
ATOM     16  C   UNL     1     -11.774   5.933 130.588  0.00  0.00    +0.000 C 
ATOM     17  O   UNL     1     -12.179   6.407 131.647  0.00  0.00    +0.000 OA
ATOM     18  C   UNL     1     -11.399   6.823 129.514  0.00  0.00    +0.000 C 
ATOM     19  C   UNL     1      -9.932   7.119 130.316  0.00  0.00    +0.000 C 
ATOM     20  C   UNL     1      -9.161   5.828 131.256  0.00  0.00    +0.000 C 
ATOM     21  C   UNL     1      -9.087   5.884 132.803  0.00  0.00    +0.000 C 
ENDROOT
BRANCH   4  22
ATOM     22  O   UNL     1      -4.438   6.259 132.607  0.00  0.00    +0.000 OA
ATOM     23  H   UNL     1      -3.554   6.553 132.322  0.00  0.00    +0.000 HD
ENDBRANCH   4  22
TORSDOF 1
ENDMDL
MODEL 5
REMARK VINA RESULT:      -7.2      2.700      6.937
REMARK  Name = Methyltestosterone
REMARK  4 active torsions:
REMARK  status: ('A' for Active; 'I' for Inactive)
REMARK    1  A    between atoms: C_5  and  C_6
REMARK    2  A    between atoms: C_5  and  O_7
REMARK    3  A    between atoms: C_8  and  C_9
REMARK    4  A    between atoms: C_24  and  C_25
REMARK                            x       y       z     vdW  Elec       q    Type
REMARK                         _______ _______ _______ _____ _____    ______ ____
ROOT
ATOM      1  C   UNL     1      -6.582  -2.917 129.162  0.00  0.00    +0.000 C 
ATOM      2  C   UNL     1      -7.749  -3.666 128.853  0.00  0.00    +0.000 C 
ATOM      3  C   UNL     1      -7.911  -2.577 129.844  0.00  0.00    +0.000 C 
ATOM      4  C   UNL     1      -6.323  -1.224 129.870  0.00  0.00    +0.000 C 
ATOM      5  C   UNL     1      -4.981  -1.132 128.867  0.00  0.00    +0.000 C 
ATOM      6  C   UNL     1      -7.478  -1.242 129.098  0.00  0.00    +0.000 C 
ATOM      7  C   UNL     1      -7.749  -0.714 127.755  0.00  0.00    +0.000 C 
ATOM      8  C   UNL     1      -8.348  -0.609 130.640  0.00  0.00    +0.000 C 
ATOM      9  C   UNL     1      -7.581  -1.227 132.075  0.00  0.00    +0.000 C 
ATOM     10  C   UNL     1      -7.058  -2.802 132.190  0.00  0.00    +0.000 C 
ATOM     11  C   UNL     1      -6.013  -3.284 130.886  0.00  0.00    +0.000 C 
ATOM     12  C   UNL     1      -5.729  -4.763 130.925  0.00  0.00    +0.000 C 
ATOM     13  C   UNL     1      -5.247  -5.199 132.281  0.00  0.00    +0.000 C 
ATOM     14  C   UNL     1      -6.081  -4.769 133.452  0.00  0.00    +0.000 C 
ATOM     15  C   UNL     1      -6.317  -5.641 134.443  0.00  0.00    +0.000 C 
ATOM     16  C   UNL     1      -6.808  -5.019 135.670  0.00  0.00    +0.000 C 
ATOM     17  O   UNL     1      -6.125  -4.376 136.463  0.00  0.00    +0.000 OA
ATOM     18  C   UNL     1      -8.233  -4.787 135.615  0.00  0.00    +0.000 C 
ATOM     19  C   UNL     1      -7.935  -3.380 134.714  0.00  0.00    +0.000 C 
ATOM     20  C   UNL     1      -6.571  -3.324 133.583  0.00  0.00    +0.000 C 
ATOM     21  C   UNL     1      -5.325  -2.442 133.857  0.00  0.00    +0.000 C 
ENDROOT
BRANCH   4  22
ATOM     22  O   UNL     1      -6.355   0.225 130.167  0.00  0.00    +0.000 OA
ATOM     23  H   UNL     1      -7.230   0.557 130.435  0.00  0.00    +0.000 HD
ENDBRANCH   4  22
TORSDOF 1
ENDMDL
MODEL 6
REMARK VINA RESULT:      -7.1      2.304      5.891
REMARK  Name = Methyltestosterone
REMARK  4 active torsions:
REMARK  status: ('A' for Active; 'I' for Inactive)
REMARK    1  A    between atoms: C_5  and  C_6
REMARK    2  A    between atoms: C_5  and  O_7
REMARK    3  A    between atoms: C_8  and  C_9
REMARK    4  A    between atoms: C_24  and  C_25
REMARK                            x       y       z     vdW  Elec       q    Type
REMARK                         _______ _______ _______ _____ _____    ______ ____
ROOT
ATOM      1  C   UNL     1      -8.942   0.331 124.836  0.00  0.00    +0.000 C 
ATOM      2  C   UNL     1     -10.147   0.725 125.475  0.00  0.00    +0.000 C 
ATOM      3  C   UNL     1      -8.888   1.145 126.132  0.00  0.00    +0.000 C 
ATOM      4  C   UNL     1      -7.208   0.982 124.906  0.00  0.00    +0.000 C 
ATOM      5  C   UNL     1      -7.105   0.567 123.283  0.00  0.00    +0.000 C 
ATOM      6  C   UNL     1      -8.111   2.025 125.061  0.00  0.00    +0.000 C 
ATOM      7  C   UNL     1      -8.540   3.076 124.130  0.00  0.00    +0.000 C 
ATOM      8  C   UNL     1      -7.196   2.391 126.663  0.00  0.00    +0.000 C 
ATOM      9  C   UNL     1      -6.577   0.923 127.364  0.00  0.00    +0.000 C 
ATOM     10  C   UNL     1      -7.463  -0.484 127.396  0.00  0.00    +0.000 C 
ATOM     11  C   UNL     1      -8.068  -0.959 125.835  0.00  0.00    +0.000 C 
ATOM     12  C   UNL     1      -9.023  -2.119 125.945  0.00  0.00    +0.000 C 
ATOM     13  C   UNL     1      -8.431  -3.252 126.736  0.00  0.00    +0.000 C 
ATOM     14  C   UNL     1      -7.846  -2.896 128.071  0.00  0.00    +0.000 C 
ATOM     15  C   UNL     1      -8.069  -3.700 129.120  0.00  0.00    +0.000 C 
ATOM     16  C   UNL     1      -7.169  -3.464 130.246  0.00  0.00    +0.000 C 
ATOM     17  O   UNL     1      -5.989  -3.805 130.296  0.00  0.00    +0.000 OA
ATOM     18  C   UNL     1      -7.623  -2.367 131.068  0.00  0.00    +0.000 C 
ATOM     19  C   UNL     1      -6.931  -1.290 129.954  0.00  0.00    +0.000 C 
ATOM     20  C   UNL     1      -6.912  -1.691 128.227  0.00  0.00    +0.000 C 
ATOM     21  C   UNL     1      -5.594  -2.036 127.488  0.00  0.00    +0.000 C 
ENDROOT
BRANCH   4  22
ATOM     22  O   UNL     1      -5.993   1.825 124.895  0.00  0.00    +0.000 OA
ATOM     23  H   UNL     1      -5.322   1.566 125.552  0.00  0.00    +0.000 HD
ENDBRANCH   4  22
TORSDOF 1
ENDMDL
MODEL 7
REMARK VINA RESULT:      -7.1      1.718      3.255
REMARK  Name = Methyltestosterone
REMARK  4 active torsions:
REMARK  status: ('A' for Active; 'I' for Inactive)
REMARK    1  A    between atoms: C_5  and  C_6
REMARK    2  A    between atoms: C_5  and  O_7
REMARK    3  A    between atoms: C_8  and  C_9
REMARK    4  A    between atoms: C_24  and  C_25
REMARK                            x       y       z     vdW  Elec       q    Type
REMARK                         _______ _______ _______ _____ _____    ______ ____
ROOT
ATOM      1  C   UNL     1      -6.426  -0.790 129.721  0.00  0.00    +0.000 C 
ATOM      2  C   UNL     1      -7.512   0.105 129.911  0.00  0.00    +0.000 C 
ATOM      3  C   UNL     1      -7.851  -1.232 129.372  0.00  0.00    +0.000 C 
ATOM      4  C   UNL     1      -6.324  -2.637 129.595  0.00  0.00    +0.000 C 
ATOM      5  C   UNL     1      -4.851  -2.498 130.387  0.00  0.00    +0.000 C 
ATOM      6  C   UNL     1      -7.350  -2.278 130.459  0.00  0.00    +0.000 C 
ATOM      7  C   UNL     1      -7.434  -2.315 131.925  0.00  0.00    +0.000 C 
ATOM      8  C   UNL     1      -8.458  -3.313 129.346  0.00  0.00    +0.000 C 
ATOM      9  C   UNL     1      -7.894  -3.259 127.700  0.00  0.00    +0.000 C 
ATOM     10  C   UNL     1      -7.350  -1.854 126.997  0.00  0.00    +0.000 C 
ATOM     11  C   UNL     1      -6.108  -1.053 127.916  0.00  0.00    +0.000 C 
ATOM     12  C   UNL     1      -5.792   0.305 127.347  0.00  0.00    +0.000 C 
ATOM     13  C   UNL     1      -5.504   0.235 125.873  0.00  0.00    +0.000 C 
ATOM     14  C   UNL     1      -6.514  -0.489 125.032  0.00  0.00    +0.000 C 
ATOM     15  C   UNL     1      -6.870   0.026 123.847  0.00  0.00    +0.000 C 
ATOM     16  C   UNL     1      -7.555  -0.923 122.974  0.00  0.00    +0.000 C 
ATOM     17  O   UNL     1      -7.016  -1.842 122.360  0.00  0.00    +0.000 OA
ATOM     18  C   UNL     1      -8.962  -1.015 123.289  0.00  0.00    +0.000 C 
ATOM     19  C   UNL     1      -8.574  -2.068 124.562  0.00  0.00    +0.000 C 
ATOM     20  C   UNL     1      -7.059  -1.856 125.458  0.00  0.00    +0.000 C 
ATOM     21  C   UNL     1      -5.895  -2.871 125.336  0.00  0.00    +0.000 C 
ENDROOT
BRANCH   4  22
ATOM     22  O   UNL     1      -6.441  -4.096 129.807  0.00  0.00    +0.000 OA
ATOM     23  H   UNL     1      -7.049  -4.540 129.190  0.00  0.00    +0.000 HD
ENDBRANCH   4  22
TORSDOF 1
ENDMDL
MODEL 8
REMARK VINA RESULT:      -7.0      1.532      2.997
REMARK  Name = Methyltestosterone
REMARK  4 active torsions:
REMARK  status: ('A' for Active; 'I' for Inactive)
REMARK    1  A    between atoms: C_5  and  C_6
REMARK    2  A    between atoms: C_5  and  O_7
REMARK    3  A    between atoms: C_8  and  C_9
REMARK    4  A    between atoms: C_24  and  C_25
REMARK                            x       y       z     vdW  Elec       q    Type
REMARK                         _______ _______ _______ _____ _____    ______ ____
ROOT
ATOM      1  C   UNL     1      -7.284   0.017 131.241  0.00  0.00    +0.000 C 
ATOM      2  C   UNL     1      -8.650  -0.089 131.615  0.00  0.00    +0.000 C 
ATOM      3  C   UNL     1      -7.982  -1.345 131.203  0.00  0.00    +0.000 C 
ATOM      4  C   UNL     1      -5.900  -1.213 131.162  0.00  0.00    +0.000 C 
ATOM      5  C   UNL     1      -4.900   0.049 131.634  0.00  0.00    +0.000 C 
ATOM      6  C   UNL     1      -6.761  -1.536 132.202  0.00  0.00    +0.000 C 
ATOM      7  C   UNL     1      -6.623  -1.372 133.655  0.00  0.00    +0.000 C 
ATOM      8  C   UNL     1      -6.904  -3.218 131.373  0.00  0.00    +0.000 C 
ATOM      9  C   UNL     1      -6.747  -3.066 129.647  0.00  0.00    +0.000 C 
ATOM     10  C   UNL     1      -7.466  -1.829 128.799  0.00  0.00    +0.000 C 
ATOM     11  C   UNL     1      -7.086  -0.248 129.420  0.00  0.00    +0.000 C 
ATOM     12  C   UNL     1      -7.912   0.819 128.751  0.00  0.00    +0.000 C 
ATOM     13  C   UNL     1      -7.835   0.722 127.253  0.00  0.00    +0.000 C 
ATOM     14  C   UNL     1      -8.103  -0.630 126.659  0.00  0.00    +0.000 C 
ATOM     15  C   UNL     1      -8.854  -0.723 125.553  0.00  0.00    +0.000 C 
ATOM     16  C   UNL     1      -8.741  -2.009 124.871  0.00  0.00    +0.000 C 
ATOM     17  O   UNL     1      -7.782  -2.373 124.193  0.00  0.00    +0.000 OA
ATOM     18  C   UNL     1      -9.602  -3.004 125.466  0.00  0.00    +0.000 C 
ATOM     19  C   UNL     1      -8.432  -3.248 126.671  0.00  0.00    +0.000 C 
ATOM     20  C   UNL     1      -7.444  -1.888 127.234  0.00  0.00    +0.000 C 
ATOM     21  C   UNL     1      -5.930  -1.797 126.915  0.00  0.00    +0.000 C 
ENDROOT
BRANCH   4  22
ATOM     22  O   UNL     1      -4.906  -2.271 131.445  0.00  0.00    +0.000 OA
ATOM     23  H   UNL     1      -4.132  -1.965 131.951  0.00  0.00    +0.000 HD
ENDBRANCH   4  22
TORSDOF 1
ENDMDL
MODEL 9
REMARK VINA RESULT:      -6.9      2.163      6.144
REMARK  Name = Methyltestosterone
REMARK  4 active torsions:
REMARK  status: ('A' for Active; 'I' for Inactive)
REMARK    1  A    between atoms: C_5  and  C_6
REMARK    2  A    between atoms: C_5  and  O_7
REMARK    3  A    between atoms: C_8  and  C_9
REMARK    4  A    between atoms: C_24  and  C_25
REMARK                            x       y       z     vdW  Elec       q    Type
REMARK                         _______ _______ _______ _____ _____    ______ ____
ROOT
ATOM      1  C   UNL     1      -7.780  -2.967 125.849  0.00  0.00    +0.000 C 
ATOM      2  C   UNL     1      -8.955  -3.072 126.640  0.00  0.00    +0.000 C 
ATOM      3  C   UNL     1      -8.807  -1.832 125.844  0.00  0.00    +0.000 C 
ATOM      4  C   UNL     1      -7.354  -1.961 124.352  0.00  0.00    +0.000 C 
ATOM      5  C   UNL     1      -6.439  -3.280 123.864  0.00  0.00    +0.000 C 
ATOM      6  C   UNL     1      -8.701  -2.298 124.328  0.00  0.00    +0.000 C 
ATOM      7  C   UNL     1      -9.432  -3.294 123.535  0.00  0.00    +0.000 C 
ATOM      8  C   UNL     1      -9.016  -0.449 124.187  0.00  0.00    +0.000 C 
ATOM      9  C   UNL     1      -7.784   0.447 125.028  0.00  0.00    +0.000 C 
ATOM     10  C   UNL     1      -7.199  -0.029 126.510  0.00  0.00    +0.000 C 
ATOM     11  C   UNL     1      -6.644  -1.678 126.540  0.00  0.00    +0.000 C 
ATOM     12  C   UNL     1      -6.313  -2.122 127.941  0.00  0.00    +0.000 C 
ATOM     13  C   UNL     1      -5.383  -1.158 128.623  0.00  0.00    +0.000 C 
ATOM     14  C   UNL     1      -5.782   0.288 128.587  0.00  0.00    +0.000 C 
ATOM     15  C   UNL     1      -5.636   1.036 129.690  0.00  0.00    +0.000 C 
ATOM     16  C   UNL     1      -5.701   2.473 129.440  0.00  0.00    +0.000 C 
ATOM     17  O   UNL     1      -4.810   3.146 128.923  0.00  0.00    +0.000 OA
ATOM     18  C   UNL     1      -7.066   2.941 129.376  0.00  0.00    +0.000 C 
ATOM     19  C   UNL     1      -7.142   2.396 127.770  0.00  0.00    +0.000 C 
ATOM     20  C   UNL     1      -6.248   0.945 127.283  0.00  0.00    +0.000 C 
ATOM     21  C   UNL     1      -5.015   1.027 126.347  0.00  0.00    +0.000 C 
ENDROOT
BRANCH   4  22
ATOM     22  O   UNL     1      -7.333  -1.299 123.029  0.00  0.00    +0.000 OA
ATOM     23  H   UNL     1      -6.478  -0.893 122.801  0.00  0.00    +0.000 HD
ENDBRANCH   4  22
TORSDOF 1
ENDMDL
