MODEL 1
REMARK VINA RESULT:      -7.1      0.000      0.000
REMARK  Name = Methotrimeprazine
REMARK  9 active torsions:
REMARK  status: ('A' for Active; 'I' for Inactive)
REMARK    1  A    between atoms: C_1  and  O_2
REMARK    2  A    between atoms: O_2  and  C_3
REMARK    3  A    between atoms: N_14  and  C_15
REMARK    4  A    between atoms: C_15  and  C_16
REMARK    5  A    between atoms: C_16  and  C_17
REMARK    6  A    between atoms: C_16  and  C_18
REMARK    7  A    between atoms: C_18  and  N_19
REMARK    8  A    between atoms: N_19  and  C_20
REMARK    9  A    between atoms: N_19  and  C_21
REMARK                            x       y       z     vdW  Elec       q    Type
REMARK                         _______ _______ _______ _____ _____    ______ ____
ROOT
ATOM      1  C   UNL     1      -8.126   0.293 124.504  0.00  0.00    +0.000 A 
ATOM      2  C   UNL     1      -7.365   1.443 124.764  0.00  0.00    +0.000 A 
ATOM      3  C   UNL     1      -7.714   2.511 124.075  0.00  0.00    +0.000 A 
ATOM      4  C   UNL     1      -8.951   2.366 122.897  0.00  0.00    +0.000 A 
ATOM      5  S   UNL     1      -9.059   3.389 120.882  0.00  0.00    +0.000 S 
ATOM      6  C   UNL     1      -6.779   3.921 120.700  0.00  0.00    +0.000 A 
ATOM      7  C   UNL     1      -5.732   3.918 122.073  0.00  0.00    +0.000 A 
ATOM      8  C   UNL     1      -4.478   4.710 121.967  0.00  0.00    +0.000 A 
ATOM      9  C   UNL     1      -4.452   5.306 120.623  0.00  0.00    +0.000 A 
ATOM     10  C   UNL     1      -5.482   5.311 119.457  0.00  0.00    +0.000 A 
ATOM     11  C   UNL     1      -6.760   4.664 119.487  0.00  0.00    +0.000 A 
ATOM     12  N   UNL     1      -6.126   3.429 123.765  0.00  0.00    +0.000 N 
ATOM     13  C   UNL     1      -9.654   1.211 122.722  0.00  0.00    +0.000 A 
ATOM     14  C   UNL     1      -9.210   0.183 123.542  0.00  0.00    +0.000 A 
ENDROOT
BRANCH   1  16
ATOM     15  C   UNL     1      -8.587  -1.953 124.657  0.00  0.00    +0.000 C 
ATOM     16  O   UNL     1      -7.787  -0.874 125.146  0.00  0.00    +0.000 OA
ENDBRANCH   1  16
BRANCH  12  17
ATOM     17  C   UNL     1      -6.294   4.384 125.050  0.00  0.00    +0.000 C 
BRANCH  17  18
ATOM     18  C   UNL     1      -5.071   4.479 125.897  0.00  0.00    +0.000 C 
ATOM     19  C   UNL     1      -4.192   3.220 125.950  0.00  0.00    +0.000 C 
BRANCH  18  20
ATOM     20  C   UNL     1      -5.463   4.665 127.339  0.00  0.00    +0.000 C 
BRANCH  20  21
ATOM     21  N   UNL     1      -4.801   5.479 128.304  0.00  0.00    +0.000 NA
ATOM     22  C   UNL     1      -3.669   6.343 128.045  0.00  0.00    +0.000 C 
ATOM     23  C   UNL     1      -5.270   5.009 129.575  0.00  0.00    +0.000 C 
ENDBRANCH  20  21
ENDBRANCH  18  20
ENDBRANCH  17  18
ENDBRANCH  12  17
TORSDOF 5
ENDMDL
MODEL 2
REMARK VINA RESULT:      -6.9      4.321      6.858
REMARK  Name = Methotrimeprazine
REMARK  9 active torsions:
REMARK  status: ('A' for Active; 'I' for Inactive)
REMARK    1  A    between atoms: C_1  and  O_2
REMARK    2  A    between atoms: O_2  and  C_3
REMARK    3  A    between atoms: N_14  and  C_15
REMARK    4  A    between atoms: C_15  and  C_16
REMARK    5  A    between atoms: C_16  and  C_17
REMARK    6  A    between atoms: C_16  and  C_18
REMARK    7  A    between atoms: C_18  and  N_19
REMARK    8  A    between atoms: N_19  and  C_20
REMARK    9  A    between atoms: N_19  and  C_21
REMARK                            x       y       z     vdW  Elec       q    Type
REMARK                         _______ _______ _______ _____ _____    ______ ____
ROOT
ATOM      1  C   UNL     1      -4.887  -2.874 129.585  0.00  0.00    +0.000 A 
ATOM      2  C   UNL     1      -5.004  -1.809 128.680  0.00  0.00    +0.000 A 
ATOM      3  C   UNL     1      -6.207  -1.639 128.170  0.00  0.00    +0.000 A 
ATOM      4  C   UNL     1      -7.440  -2.760 128.571  0.00  0.00    +0.000 A 
ATOM      5  S   UNL     1      -9.073  -3.553 127.220  0.00  0.00    +0.000 S 
ATOM      6  C   UNL     1      -8.047  -3.019 125.176  0.00  0.00    +0.000 A 
ATOM      7  C   UNL     1      -6.752  -1.881 125.078  0.00  0.00    +0.000 A 
ATOM      8  C   UNL     1      -6.502  -1.256 123.753  0.00  0.00    +0.000 A 
ATOM      9  C   UNL     1      -7.474  -1.829 122.810  0.00  0.00    +0.000 A 
ATOM     10  C   UNL     1      -8.665  -2.813 123.000  0.00  0.00    +0.000 A 
ATOM     11  C   UNL     1      -9.055  -3.399 124.247  0.00  0.00    +0.000 A 
ATOM     12  N   UNL     1      -5.919  -1.032 126.435  0.00  0.00    +0.000 N 
ATOM     13  C   UNL     1      -7.244  -3.759 129.478  0.00  0.00    +0.000 A 
ATOM     14  C   UNL     1      -5.945  -3.795 129.966  0.00  0.00    +0.000 A 
ENDROOT
BRANCH   1  16
ATOM     15  C   UNL     1      -2.793  -3.696 129.114  0.00  0.00    +0.000 C 
ATOM     16  O   UNL     1      -3.649  -3.146 130.118  0.00  0.00    +0.000 OA
ENDBRANCH   1  16
BRANCH  12  17
ATOM     17  C   UNL     1      -6.030   0.523 126.838  0.00  0.00    +0.000 C 
BRANCH  17  18
ATOM     18  C   UNL     1      -5.291   1.439 125.923  0.00  0.00    +0.000 C 
ATOM     19  C   UNL     1      -4.185   2.284 126.572  0.00  0.00    +0.000 C 
BRANCH  18  20
ATOM     20  C   UNL     1      -6.229   2.487 125.383  0.00  0.00    +0.000 C 
BRANCH  20  21
ATOM     21  N   UNL     1      -6.238   3.023 124.063  0.00  0.00    +0.000 NA
ATOM     22  C   UNL     1      -5.564   4.231 123.638  0.00  0.00    +0.000 C 
ATOM     23  C   UNL     1      -7.285   2.319 123.381  0.00  0.00    +0.000 C 
ENDBRANCH  20  21
ENDBRANCH  18  20
ENDBRANCH  17  18
ENDBRANCH  12  17
TORSDOF 5
ENDMDL
MODEL 3
REMARK VINA RESULT:      -6.7      3.950      7.350
REMARK  Name = Methotrimeprazine
REMARK  9 active torsions:
REMARK  status: ('A' for Active; 'I' for Inactive)
REMARK    1  A    between atoms: C_1  and  O_2
REMARK    2  A    between atoms: O_2  and  C_3
REMARK    3  A    between atoms: N_14  and  C_15
REMARK    4  A    between atoms: C_15  and  C_16
REMARK    5  A    between atoms: C_16  and  C_17
REMARK    6  A    between atoms: C_16  and  C_18
REMARK    7  A    between atoms: C_18  and  N_19
REMARK    8  A    between atoms: N_19  and  C_20
REMARK    9  A    between atoms: N_19  and  C_21
REMARK                            x       y       z     vdW  Elec       q    Type
REMARK                         _______ _______ _______ _____ _____    ______ ____
ROOT
ATOM      1  C   UNL     1      -9.060  -2.749 126.152  0.00  0.00    +0.000 A 
ATOM      2  C   UNL     1      -8.384  -1.522 126.079  0.00  0.00    +0.000 A 
ATOM      3  C   UNL     1      -7.662  -1.219 127.140  0.00  0.00    +0.000 A 
ATOM      4  C   UNL     1      -7.703  -2.269 128.494  0.00  0.00    +0.000 A 
ATOM      5  S   UNL     1      -7.669  -1.694 130.683  0.00  0.00    +0.000 S 
ATOM      6  C   UNL     1      -8.348   0.537 130.411  0.00  0.00    +0.000 A 
ATOM      7  C   UNL     1      -8.259   1.335 128.882  0.00  0.00    +0.000 A 
ATOM      8  C   UNL     1      -8.239   2.822 128.897  0.00  0.00    +0.000 A 
ATOM      9  C   UNL     1      -8.329   3.244 130.303  0.00  0.00    +0.000 A 
ATOM     10  C   UNL     1      -8.339   2.448 131.640  0.00  0.00    +0.000 A 
ATOM     11  C   UNL     1      -8.265   1.021 131.746  0.00  0.00    +0.000 A 
ATOM     12  N   UNL     1      -7.776   0.632 127.292  0.00  0.00    +0.000 N 
ATOM     13  C   UNL     1      -8.374  -3.455 128.472  0.00  0.00    +0.000 A 
ATOM     14  C   UNL     1      -9.054  -3.666 127.280  0.00  0.00    +0.000 A 
ENDROOT
BRANCH   1  16
ATOM     15  C   UNL     1      -9.111  -3.212 123.901  0.00  0.00    +0.000 C 
ATOM     16  O   UNL     1      -9.875  -3.109 125.105  0.00  0.00    +0.000 OA
ENDBRANCH   1  16
BRANCH  12  17
ATOM     17  C   UNL     1      -6.416   0.898 126.473  0.00  0.00    +0.000 C 
BRANCH  17  18
ATOM     18  C   UNL     1      -6.589   1.777 125.281  0.00  0.00    +0.000 C 
ATOM     19  C   UNL     1      -5.872   3.134 125.339  0.00  0.00    +0.000 C 
BRANCH  18  20
ATOM     20  C   UNL     1      -8.035   2.177 125.147  0.00  0.00    +0.000 C 
BRANCH  20  21
ATOM     21  N   UNL     1      -8.842   2.077 123.976  0.00  0.00    +0.000 NA
ATOM     22  C   UNL     1      -8.624   2.794 122.738  0.00  0.00    +0.000 C 
ATOM     23  C   UNL     1     -10.037   1.408 124.401  0.00  0.00    +0.000 C 
ENDBRANCH  20  21
ENDBRANCH  18  20
ENDBRANCH  17  18
ENDBRANCH  12  17
TORSDOF 5
ENDMDL
MODEL 4
REMARK VINA RESULT:      -6.7      3.295      6.539
REMARK  Name = Methotrimeprazine
REMARK  9 active torsions:
REMARK  status: ('A' for Active; 'I' for Inactive)
REMARK    1  A    between atoms: C_1  and  O_2
REMARK    2  A    between atoms: O_2  and  C_3
REMARK    3  A    between atoms: N_14  and  C_15
REMARK    4  A    between atoms: C_15  and  C_16
REMARK    5  A    between atoms: C_16  and  C_17
REMARK    6  A    between atoms: C_16  and  C_18
REMARK    7  A    between atoms: C_18  and  N_19
REMARK    8  A    between atoms: N_19  and  C_20
REMARK    9  A    between atoms: N_19  and  C_21
REMARK                            x       y       z     vdW  Elec       q    Type
REMARK                         _______ _______ _______ _____ _____    ______ ____
ROOT
ATOM      1  C   UNL     1      -8.959   0.722 123.108  0.00  0.00    +0.000 A 
ATOM      2  C   UNL     1      -7.969   0.877 124.089  0.00  0.00    +0.000 A 
ATOM      3  C   UNL     1      -7.468  -0.249 124.559  0.00  0.00    +0.000 A 
ATOM      4  C   UNL     1      -8.126  -1.735 124.017  0.00  0.00    +0.000 A 
ATOM      5  S   UNL     1      -8.459  -3.617 125.229  0.00  0.00    +0.000 S 
ATOM      6  C   UNL     1      -8.398  -2.613 127.351  0.00  0.00    +0.000 A 
ATOM      7  C   UNL     1      -7.723  -1.043 127.595  0.00  0.00    +0.000 A 
ATOM      8  C   UNL     1      -7.290  -0.701 128.976  0.00  0.00    +0.000 A 
ATOM      9  C   UNL     1      -7.593  -1.861 129.827  0.00  0.00    +0.000 A 
ATOM     10  C   UNL     1      -8.148  -3.280 129.508  0.00  0.00    +0.000 A 
ATOM     11  C   UNL     1      -8.505  -3.748 128.202  0.00  0.00    +0.000 A 
ATOM     12  N   UNL     1      -7.090   0.097 126.348  0.00  0.00    +0.000 N 
ATOM     13  C   UNL     1      -9.079  -1.794 123.043  0.00  0.00    +0.000 A 
ATOM     14  C   UNL     1      -9.483  -0.539 122.610  0.00  0.00    +0.000 A 
ENDROOT
BRANCH   1  16
ATOM     15  C   UNL     1      -8.599   2.887 122.424  0.00  0.00    +0.000 C 
ATOM     16  O   UNL     1      -9.566   1.850 122.609  0.00  0.00    +0.000 OA
ENDBRANCH   1  16
BRANCH  12  17
ATOM     17  C   UNL     1      -5.555   0.491 126.066  0.00  0.00    +0.000 C 
BRANCH  17  18
ATOM     18  C   UNL     1      -5.161   1.821 126.612  0.00  0.00    +0.000 C 
ATOM     19  C   UNL     1      -4.654   1.827 128.062  0.00  0.00    +0.000 C 
BRANCH  18  20
ATOM     20  C   UNL     1      -6.366   2.721 126.683  0.00  0.00    +0.000 C 
BRANCH  20  21
ATOM     21  N   UNL     1      -6.633   3.854 125.861  0.00  0.00    +0.000 NA
ATOM     22  C   UNL     1      -7.917   4.508 125.717  0.00  0.00    +0.000 C 
ATOM     23  C   UNL     1      -5.490   3.972 125.003  0.00  0.00    +0.000 C 
ENDBRANCH  20  21
ENDBRANCH  18  20
ENDBRANCH  17  18
ENDBRANCH  12  17
TORSDOF 5
ENDMDL
MODEL 5
REMARK VINA RESULT:      -6.4      4.549      6.822
REMARK  Name = Methotrimeprazine
REMARK  9 active torsions:
REMARK  status: ('A' for Active; 'I' for Inactive)
REMARK    1  A    between atoms: C_1  and  O_2
REMARK    2  A    between atoms: O_2  and  C_3
REMARK    3  A    between atoms: N_14  and  C_15
REMARK    4  A    between atoms: C_15  and  C_16
REMARK    5  A    between atoms: C_16  and  C_17
REMARK    6  A    between atoms: C_16  and  C_18
REMARK    7  A    between atoms: C_18  and  N_19
REMARK    8  A    between atoms: N_19  and  C_20
REMARK    9  A    between atoms: N_19  and  C_21
REMARK                            x       y       z     vdW  Elec       q    Type
REMARK                         _______ _______ _______ _____ _____    ______ ____
ROOT
ATOM      1  C   UNL     1      -4.954  -3.246 129.520  0.00  0.00    +0.000 A 
ATOM      2  C   UNL     1      -4.889  -2.208 128.580  0.00  0.00    +0.000 A 
ATOM      3  C   UNL     1      -6.044  -1.871 128.039  0.00  0.00    +0.000 A 
ATOM      4  C   UNL     1      -7.442  -2.774 128.449  0.00  0.00    +0.000 A 
ATOM      5  S   UNL     1      -9.156  -3.351 127.089  0.00  0.00    +0.000 S 
ATOM      6  C   UNL     1      -8.027  -3.053 125.052  0.00  0.00    +0.000 A 
ATOM      7  C   UNL     1      -6.570  -2.133 124.946  0.00  0.00    +0.000 A 
ATOM      8  C   UNL     1      -6.205  -1.600 123.607  0.00  0.00    +0.000 A 
ATOM      9  C   UNL     1      -7.239  -2.048 122.663  0.00  0.00    +0.000 A 
ATOM     10  C   UNL     1      -8.571  -2.829 122.858  0.00  0.00    +0.000 A 
ATOM     11  C   UNL     1      -9.068  -3.304 124.115  0.00  0.00    +0.000 A 
ATOM     12  N   UNL     1      -5.637  -1.377 126.292  0.00  0.00    +0.000 N 
ATOM     13  C   UNL     1      -7.418  -3.760 129.391  0.00  0.00    +0.000 A 
ATOM     14  C   UNL     1      -6.148  -3.979 129.907  0.00  0.00    +0.000 A 
ENDROOT
BRANCH   1  16
ATOM     15  C   UNL     1      -2.764  -3.794 129.089  0.00  0.00    +0.000 C 
ATOM     16  O   UNL     1      -3.782  -3.688 130.087  0.00  0.00    +0.000 OA
ENDBRANCH   1  16
BRANCH  12  17
ATOM     17  C   UNL     1      -5.512   0.189 126.643  0.00  0.00    +0.000 C 
BRANCH  17  18
ATOM     18  C   UNL     1      -6.689   1.000 126.220  0.00  0.00    +0.000 C 
ATOM     19  C   UNL     1      -6.493   1.859 124.961  0.00  0.00    +0.000 C 
BRANCH  18  20
ATOM     20  C   UNL     1      -7.005   2.030 127.272  0.00  0.00    +0.000 C 
BRANCH  20  21
ATOM     21  N   UNL     1      -7.074   1.816 128.680  0.00  0.00    +0.000 NA
ATOM     22  C   UNL     1      -8.049   0.992 129.361  0.00  0.00    +0.000 C 
ATOM     23  C   UNL     1      -6.223   2.818 129.252  0.00  0.00    +0.000 C 
ENDBRANCH  20  21
ENDBRANCH  18  20
ENDBRANCH  17  18
ENDBRANCH  12  17
TORSDOF 5
ENDMDL
MODEL 6
REMARK VINA RESULT:      -6.4      4.175      7.217
REMARK  Name = Methotrimeprazine
REMARK  9 active torsions:
REMARK  status: ('A' for Active; 'I' for Inactive)
REMARK    1  A    between atoms: C_1  and  O_2
REMARK    2  A    between atoms: O_2  and  C_3
REMARK    3  A    between atoms: N_14  and  C_15
REMARK    4  A    between atoms: C_15  and  C_16
REMARK    5  A    between atoms: C_16  and  C_17
REMARK    6  A    between atoms: C_16  and  C_18
REMARK    7  A    between atoms: C_18  and  N_19
REMARK    8  A    between atoms: N_19  and  C_20
REMARK    9  A    between atoms: N_19  and  C_21
REMARK                            x       y       z     vdW  Elec       q    Type
REMARK                         _______ _______ _______ _____ _____    ______ ____
ROOT
ATOM      1  C   UNL     1      -9.036  -2.643 126.278  0.00  0.00    +0.000 A 
ATOM      2  C   UNL     1      -8.409  -1.389 126.327  0.00  0.00    +0.000 A 
ATOM      3  C   UNL     1      -7.670  -1.175 127.398  0.00  0.00    +0.000 A 
ATOM      4  C   UNL     1      -7.633  -2.369 128.627  0.00  0.00    +0.000 A 
ATOM      5  S   UNL     1      -7.560  -2.038 130.865  0.00  0.00    +0.000 S 
ATOM      6  C   UNL     1      -8.331   0.180 130.859  0.00  0.00    +0.000 A 
ATOM      7  C   UNL     1      -8.315   1.144 129.427  0.00  0.00    +0.000 A 
ATOM      8  C   UNL     1      -8.352   2.620 129.607  0.00  0.00    +0.000 A 
ATOM      9  C   UNL     1      -8.418   2.881 131.052  0.00  0.00    +0.000 A 
ATOM     10  C   UNL     1      -8.361   1.942 132.292  0.00  0.00    +0.000 A 
ATOM     11  C   UNL     1      -8.229   0.516 132.238  0.00  0.00    +0.000 A 
ATOM     12  N   UNL     1      -7.850   0.641 127.758  0.00  0.00    +0.000 N 
ATOM     13  C   UNL     1      -8.259  -3.572 128.489  0.00  0.00    +0.000 A 
ATOM     14  C   UNL     1      -8.964  -3.677 127.297  0.00  0.00    +0.000 A 
ENDROOT
BRANCH   1  16
ATOM     15  C   UNL     1      -9.093  -3.297 124.075  0.00  0.00    +0.000 C 
ATOM     16  O   UNL     1      -9.866  -2.918 125.218  0.00  0.00    +0.000 OA
ENDBRANCH   1  16
BRANCH  12  17
ATOM     17  C   UNL     1      -6.525   1.052 126.941  0.00  0.00    +0.000 C 
BRANCH  17  18
ATOM     18  C   UNL     1      -6.712   2.214 126.027  0.00  0.00    +0.000 C 
ATOM     19  C   UNL     1      -7.467   1.925 124.721  0.00  0.00    +0.000 C 
BRANCH  18  20
ATOM     20  C   UNL     1      -5.374   2.695 125.532  0.00  0.00    +0.000 C 
BRANCH  20  21
ATOM     21  N   UNL     1      -4.414   3.448 126.268  0.00  0.00    +0.000 NA
ATOM     22  C   UNL     1      -3.103   2.982 126.667  0.00  0.00    +0.000 C 
ATOM     23  C   UNL     1      -5.136   4.575 126.783  0.00  0.00    +0.000 C 
ENDBRANCH  20  21
ENDBRANCH  18  20
ENDBRANCH  17  18
ENDBRANCH  12  17
TORSDOF 5
ENDMDL
MODEL 7
REMARK VINA RESULT:      -6.4      3.528      7.822
REMARK  Name = Methotrimeprazine
REMARK  9 active torsions:
REMARK  status: ('A' for Active; 'I' for Inactive)
REMARK    1  A    between atoms: C_1  and  O_2
REMARK    2  A    between atoms: O_2  and  C_3
REMARK    3  A    between atoms: N_14  and  C_15
REMARK    4  A    between atoms: C_15  and  C_16
REMARK    5  A    between atoms: C_16  and  C_17
REMARK    6  A    between atoms: C_16  and  C_18
REMARK    7  A    between atoms: C_18  and  N_19
REMARK    8  A    between atoms: N_19  and  C_20
REMARK    9  A    between atoms: N_19  and  C_21
REMARK                            x       y       z     vdW  Elec       q    Type
REMARK                         _______ _______ _______ _____ _____    ______ ____
ROOT
ATOM      1  C   UNL     1      -4.195   2.302 127.081  0.00  0.00    +0.000 A 
ATOM      2  C   UNL     1      -5.272   1.856 126.300  0.00  0.00    +0.000 A 
ATOM      3  C   UNL     1      -6.338   1.483 126.981  0.00  0.00    +0.000 A 
ATOM      4  C   UNL     1      -6.267   1.484 128.693  0.00  0.00    +0.000 A 
ATOM      5  S   UNL     1      -7.203  -0.010 130.111  0.00  0.00    +0.000 S 
ATOM      6  C   UNL     1      -7.491  -1.748 128.558  0.00  0.00    +0.000 A 
ATOM      7  C   UNL     1      -7.444  -1.463 126.855  0.00  0.00    +0.000 A 
ATOM      8  C   UNL     1      -8.099  -2.473 125.983  0.00  0.00    +0.000 A 
ATOM      9  C   UNL     1      -8.628  -3.528 126.861  0.00  0.00    +0.000 A 
ATOM     10  C   UNL     1      -8.685  -3.675 128.409  0.00  0.00    +0.000 A 
ATOM     11  C   UNL     1      -8.173  -2.718 129.344  0.00  0.00    +0.000 A 
ATOM     12  N   UNL     1      -7.075   0.083 126.001  0.00  0.00    +0.000 N 
ATOM     13  C   UNL     1      -5.182   1.953 129.373  0.00  0.00    +0.000 A 
ATOM     14  C   UNL     1      -4.152   2.352 128.532  0.00  0.00    +0.000 A 
ENDROOT
BRANCH   1  16
ATOM     15  C   UNL     1      -2.182   3.381 127.340  0.00  0.00    +0.000 C 
ATOM     16  O   UNL     1      -3.030   2.657 126.444  0.00  0.00    +0.000 OA
ENDBRANCH   1  16
BRANCH  12  17
ATOM     17  C   UNL     1      -8.099   1.032 125.200  0.00  0.00    +0.000 C 
BRANCH  17  18
ATOM     18  C   UNL     1      -7.901   1.026 123.722  0.00  0.00    +0.000 C 
ATOM     19  C   UNL     1      -7.037  -0.116 123.166  0.00  0.00    +0.000 C 
BRANCH  18  20
ATOM     20  C   UNL     1      -7.131   2.251 123.305  0.00  0.00    +0.000 C 
BRANCH  20  21
ATOM     21  N   UNL     1      -7.453   3.136 122.236  0.00  0.00    +0.000 NA
ATOM     22  C   UNL     1      -8.738   3.231 121.576  0.00  0.00    +0.000 C 
ATOM     23  C   UNL     1      -6.192   3.633 121.769  0.00  0.00    +0.000 C 
ENDBRANCH  20  21
ENDBRANCH  18  20
ENDBRANCH  17  18
ENDBRANCH  12  17
TORSDOF 5
ENDMDL
MODEL 8
REMARK VINA RESULT:      -6.3      4.431      7.366
REMARK  Name = Methotrimeprazine
REMARK  9 active torsions:
REMARK  status: ('A' for Active; 'I' for Inactive)
REMARK    1  A    between atoms: C_1  and  O_2
REMARK    2  A    between atoms: O_2  and  C_3
REMARK    3  A    between atoms: N_14  and  C_15
REMARK    4  A    between atoms: C_15  and  C_16
REMARK    5  A    between atoms: C_16  and  C_17
REMARK    6  A    between atoms: C_16  and  C_18
REMARK    7  A    between atoms: C_18  and  N_19
REMARK    8  A    between atoms: N_19  and  C_20
REMARK    9  A    between atoms: N_19  and  C_21
REMARK                            x       y       z     vdW  Elec       q    Type
REMARK                         _______ _______ _______ _____ _____    ______ ____
ROOT
ATOM      1  C   UNL     1      -8.065   2.523 128.223  0.00  0.00    +0.000 A 
ATOM      2  C   UNL     1      -7.757   1.159 128.332  0.00  0.00    +0.000 A 
ATOM      3  C   UNL     1      -7.240   0.615 127.248  0.00  0.00    +0.000 A 
ATOM      4  C   UNL     1      -7.095   1.571 125.833  0.00  0.00    +0.000 A 
ATOM      5  S   UNL     1      -7.404   0.914 123.690  0.00  0.00    +0.000 S 
ATOM      6  C   UNL     1      -8.658  -1.016 124.153  0.00  0.00    +0.000 A 
ATOM      7  C   UNL     1      -8.671  -1.738 125.721  0.00  0.00    +0.000 A 
ATOM      8  C   UNL     1      -9.071  -3.167 125.804  0.00  0.00    +0.000 A 
ATOM      9  C   UNL     1      -9.391  -3.609 124.439  0.00  0.00    +0.000 A 
ATOM     10  C   UNL     1      -9.288  -2.903 123.055  0.00  0.00    +0.000 A 
ATOM     11  C   UNL     1      -8.824  -1.563 122.850  0.00  0.00    +0.000 A 
ATOM     12  N   UNL     1      -7.881  -1.131 127.226  0.00  0.00    +0.000 N 
ATOM     13  C   UNL     1      -7.402   2.900 125.821  0.00  0.00    +0.000 A 
ATOM     14  C   UNL     1      -7.895   3.348 127.039  0.00  0.00    +0.000 A 
ENDROOT
BRANCH   1  16
ATOM     15  C   UNL     1      -7.837   4.227 129.749  0.00  0.00    +0.000 C 
ATOM     16  O   UNL     1      -8.657   3.147 129.295  0.00  0.00    +0.000 OA
ENDBRANCH   1  16
BRANCH  12  17
ATOM     17  C   UNL     1      -6.588  -1.737 127.969  0.00  0.00    +0.000 C 
BRANCH  17  18
ATOM     18  C   UNL     1      -6.883  -2.913 128.837  0.00  0.00    +0.000 C 
ATOM     19  C   UNL     1      -8.263  -2.918 129.513  0.00  0.00    +0.000 C 
BRANCH  18  20
ATOM     20  C   UNL     1      -5.943  -2.930 130.012  0.00  0.00    +0.000 C 
BRANCH  20  21
ATOM     21  N   UNL     1      -4.823  -3.792 130.196  0.00  0.00    +0.000 NA
ATOM     22  C   UNL     1      -3.540  -3.660 129.540  0.00  0.00    +0.000 C 
ATOM     23  C   UNL     1      -5.345  -4.943 130.874  0.00  0.00    +0.000 C 
ENDBRANCH  20  21
ENDBRANCH  18  20
ENDBRANCH  17  18
ENDBRANCH  12  17
TORSDOF 5
ENDMDL
MODEL 9
REMARK VINA RESULT:      -6.2      4.578      6.914
REMARK  Name = Methotrimeprazine
REMARK  9 active torsions:
REMARK  status: ('A' for Active; 'I' for Inactive)
REMARK    1  A    between atoms: C_1  and  O_2
REMARK    2  A    between atoms: O_2  and  C_3
REMARK    3  A    between atoms: N_14  and  C_15
REMARK    4  A    between atoms: C_15  and  C_16
REMARK    5  A    between atoms: C_16  and  C_17
REMARK    6  A    between atoms: C_16  and  C_18
REMARK    7  A    between atoms: C_18  and  N_19
REMARK    8  A    between atoms: N_19  and  C_20
REMARK    9  A    between atoms: N_19  and  C_21
REMARK                            x       y       z     vdW  Elec       q    Type
REMARK                         _______ _______ _______ _____ _____    ______ ____
ROOT
ATOM      1  C   UNL     1      -5.210  -2.941 123.792  0.00  0.00    +0.000 A 
ATOM      2  C   UNL     1      -5.798  -2.908 125.065  0.00  0.00    +0.000 A 
ATOM      3  C   UNL     1      -6.850  -2.120 125.174  0.00  0.00    +0.000 A 
ATOM      4  C   UNL     1      -7.314  -1.171 123.825  0.00  0.00    +0.000 A 
ATOM      5  S   UNL     1      -8.127   0.940 123.841  0.00  0.00    +0.000 S 
ATOM      6  C   UNL     1      -7.367   1.531 125.983  0.00  0.00    +0.000 A 
ATOM      7  C   UNL     1      -6.888   0.340 127.138  0.00  0.00    +0.000 A 
ATOM      8  C   UNL     1      -6.893   0.747 128.568  0.00  0.00    +0.000 A 
ATOM      9  C   UNL     1      -7.310   2.156 128.619  0.00  0.00    +0.000 A 
ATOM     10  C   UNL     1      -7.793   3.148 127.520  0.00  0.00    +0.000 A 
ATOM     11  C   UNL     1      -7.920   2.834 126.128  0.00  0.00    +0.000 A 
ATOM     12  N   UNL     1      -6.774  -1.446 126.906  0.00  0.00    +0.000 N 
ATOM     13  C   UNL     1      -6.695  -1.280 122.615  0.00  0.00    +0.000 A 
ATOM     14  C   UNL     1      -5.634  -2.175 122.632  0.00  0.00    +0.000 A 
ENDROOT
BRANCH   1  16
ATOM     15  C   UNL     1      -4.422  -5.083 123.517  0.00  0.00    +0.000 C 
ATOM     16  O   UNL     1      -4.076  -3.698 123.616  0.00  0.00    +0.000 OA
ENDBRANCH   1  16
BRANCH  12  17
ATOM     17  C   UNL     1      -7.743  -2.579 127.513  0.00  0.00    +0.000 C 
BRANCH  17  18
ATOM     18  C   UNL     1      -7.348  -3.050 128.871  0.00  0.00    +0.000 C 
ATOM     19  C   UNL     1      -7.964  -2.285 130.052  0.00  0.00    +0.000 C 
BRANCH  18  20
ATOM     20  C   UNL     1      -5.872  -2.837 129.076  0.00  0.00    +0.000 C 
BRANCH  20  21
ATOM     21  N   UNL     1      -4.957  -3.740 129.691  0.00  0.00    +0.000 NA
ATOM     22  C   UNL     1      -5.280  -4.682 130.741  0.00  0.00    +0.000 C 
ATOM     23  C   UNL     1      -3.657  -3.285 129.293  0.00  0.00    +0.000 C 
ENDBRANCH  20  21
ENDBRANCH  18  20
ENDBRANCH  17  18
ENDBRANCH  12  17
TORSDOF 5
ENDMDL
