MODEL 1
REMARK VINA RESULT:      -5.9      0.000      0.000
REMARK  Name = Methocarbamol
REMARK  9 active torsions:
REMARK  status: ('A' for Active; 'I' for Inactive)
REMARK    1  A    between atoms: C_1  and  O_2
REMARK    2  A    between atoms: O_2  and  C_3
REMARK    3  A    between atoms: C_4  and  O_5
REMARK    4  A    between atoms: O_5  and  C_6
REMARK    5  A    between atoms: C_6  and  C_7
REMARK    6  A    between atoms: C_7  and  O_8
REMARK    7  A    between atoms: C_7  and  C_9
REMARK    8  A    between atoms: C_9  and  O_10
REMARK    9  A    between atoms: O_10  and  C_11
REMARK                            x       y       z     vdW  Elec       q    Type
REMARK                         _______ _______ _______ _____ _____    ______ ____
ROOT
ATOM      1  C   UNL     1     -10.854   4.909 130.501  0.00  0.00    +0.000 C 
ENDROOT
BRANCH   1   2
ATOM      2  O   UNL     1     -11.788   5.248 129.471  0.00  0.00    +0.000 OA
BRANCH   2   4
ATOM      3  C   UNL     1     -12.098   7.423 128.297  0.00  0.00    +0.000 A 
ATOM      4  C   UNL     1     -12.183   6.567 129.409  0.00  0.00    +0.000 A 
ATOM      5  C   UNL     1     -12.693   7.078 130.613  0.00  0.00    +0.000 A 
ATOM      6  C   UNL     1     -12.997   8.437 130.745  0.00  0.00    +0.000 A 
ATOM      7  C   UNL     1     -12.851   9.288 129.654  0.00  0.00    +0.000 A 
ATOM      8  C   UNL     1     -12.421   8.778 128.429  0.00  0.00    +0.000 A 
BRANCH   3  10
ATOM      9  C   UNL     1     -10.973   7.620 126.233  0.00  0.00    +0.000 C 
ATOM     10  O   UNL     1     -11.880   6.895 127.051  0.00  0.00    +0.000 OA
ENDBRANCH   3  10
ENDBRANCH   2   4
ENDBRANCH   1   2
BRANCH   1  11
ATOM     11  C   UNL     1      -9.407   5.221 130.104  0.00  0.00    +0.000 C 
BRANCH  11  12
ATOM     12  O   UNL     1      -9.341   5.513 128.703  0.00  0.00    +0.000 OA
ATOM     13  H   UNL     1      -8.682   4.925 128.297  0.00  0.00    +0.000 HD
ENDBRANCH  11  12
BRANCH  11  14
ATOM     14  C   UNL     1      -8.910   6.436 130.913  0.00  0.00    +0.000 C 
BRANCH  14  15
ATOM     15  O   UNL     1      -9.429   6.377 132.256  0.00  0.00    +0.000 OA
BRANCH  15  16
ATOM     16  C   UNL     1      -8.851   5.635 133.231  0.00  0.00    +0.000 C 
ATOM     17  N   UNL     1      -9.603   4.659 133.805  0.00  0.00    +0.000 N 
ATOM     18  O   UNL     1      -7.691   5.813 133.591  0.00  0.00    +0.000 OA
ATOM     19  H   UNL     1     -10.556   4.445 133.572  0.00  0.00    +0.000 HD
ATOM     20  H   UNL     1      -9.147   4.108 134.520  0.00  0.00    +0.000 HD
ENDBRANCH  15  16
ENDBRANCH  14  15
ENDBRANCH  11  14
ENDBRANCH   1  11
TORSDOF 8
ENDMDL
MODEL 2
REMARK VINA RESULT:      -5.7      1.969      2.589
REMARK  Name = Methocarbamol
REMARK  9 active torsions:
REMARK  status: ('A' for Active; 'I' for Inactive)
REMARK    1  A    between atoms: C_1  and  O_2
REMARK    2  A    between atoms: O_2  and  C_3
REMARK    3  A    between atoms: C_4  and  O_5
REMARK    4  A    between atoms: O_5  and  C_6
REMARK    5  A    between atoms: C_6  and  C_7
REMARK    6  A    between atoms: C_7  and  O_8
REMARK    7  A    between atoms: C_7  and  C_9
REMARK    8  A    between atoms: C_9  and  O_10
REMARK    9  A    between atoms: O_10  and  C_11
REMARK                            x       y       z     vdW  Elec       q    Type
REMARK                         _______ _______ _______ _____ _____    ______ ____
ROOT
ATOM      1  C   UNL     1      -8.622   6.744 131.042  0.00  0.00    +0.000 C 
ENDROOT
BRANCH   1   2
ATOM      2  O   UNL     1      -9.728   6.153 130.352  0.00  0.00    +0.000 OA
BRANCH   2   4
ATOM      3  C   UNL     1     -10.932   7.831 128.959  0.00  0.00    +0.000 A 
ATOM      4  C   UNL     1     -10.793   6.983 130.072  0.00  0.00    +0.000 A 
ATOM      5  C   UNL     1     -11.810   6.969 131.038  0.00  0.00    +0.000 A 
ATOM      6  C   UNL     1     -12.882   7.865 130.965  0.00  0.00    +0.000 A 
ATOM      7  C   UNL     1     -12.978   8.743 129.890  0.00  0.00    +0.000 A 
ATOM      8  C   UNL     1     -12.016   8.712 128.881  0.00  0.00    +0.000 A 
BRANCH   3  10
ATOM      9  C   UNL     1     -10.776   7.587 126.619  0.00  0.00    +0.000 C 
ATOM     10  O   UNL     1     -10.113   7.663 127.872  0.00  0.00    +0.000 OA
ENDBRANCH   3  10
ENDBRANCH   2   4
ENDBRANCH   1   2
BRANCH   1  11
ATOM     11  C   UNL     1      -8.302   6.022 132.357  0.00  0.00    +0.000 C 
BRANCH  11  12
ATOM     12  O   UNL     1      -9.401   6.159 133.266  0.00  0.00    +0.000 OA
ATOM     13  H   UNL     1      -9.055   6.464 134.122  0.00  0.00    +0.000 HD
ENDBRANCH  11  12
BRANCH  11  14
ATOM     14  C   UNL     1      -8.048   4.529 132.066  0.00  0.00    +0.000 C 
BRANCH  14  15
ATOM     15  O   UNL     1      -9.215   3.756 132.412  0.00  0.00    +0.000 OA
BRANCH  15  16
ATOM     16  C   UNL     1      -9.821   2.917 131.538  0.00  0.00    +0.000 C 
ATOM     17  N   UNL     1     -10.919   3.378 130.885  0.00  0.00    +0.000 N 
ATOM     18  O   UNL     1      -9.404   1.783 131.323  0.00  0.00    +0.000 OA
ATOM     19  H   UNL     1     -11.327   4.289 131.000  0.00  0.00    +0.000 HD
ATOM     20  H   UNL     1     -11.347   2.739 130.227  0.00  0.00    +0.000 HD
ENDBRANCH  15  16
ENDBRANCH  14  15
ENDBRANCH  11  14
ENDBRANCH   1  11
TORSDOF 8
ENDMDL
MODEL 3
REMARK VINA RESULT:      -5.7      1.922      3.124
REMARK  Name = Methocarbamol
REMARK  9 active torsions:
REMARK  status: ('A' for Active; 'I' for Inactive)
REMARK    1  A    between atoms: C_1  and  O_2
REMARK    2  A    between atoms: O_2  and  C_3
REMARK    3  A    between atoms: C_4  and  O_5
REMARK    4  A    between atoms: O_5  and  C_6
REMARK    5  A    between atoms: C_6  and  C_7
REMARK    6  A    between atoms: C_7  and  O_8
REMARK    7  A    between atoms: C_7  and  C_9
REMARK    8  A    between atoms: C_9  and  O_10
REMARK    9  A    between atoms: O_10  and  C_11
REMARK                            x       y       z     vdW  Elec       q    Type
REMARK                         _______ _______ _______ _____ _____    ______ ____
ROOT
ATOM      1  C   UNL     1      -8.902   6.319 130.145  0.00  0.00    +0.000 C 
ENDROOT
BRANCH   1   2
ATOM      2  O   UNL     1      -9.512   7.540 129.712  0.00  0.00    +0.000 OA
BRANCH   2   4
ATOM      3  C   UNL     1     -11.922   6.945 129.517  0.00  0.00    +0.000 A 
ATOM      4  C   UNL     1     -10.698   7.423 129.020  0.00  0.00    +0.000 A 
ATOM      5  C   UNL     1     -10.623   7.808 127.672  0.00  0.00    +0.000 A 
ATOM      6  C   UNL     1     -11.705   7.609 126.807  0.00  0.00    +0.000 A 
ATOM      7  C   UNL     1     -12.894   7.077 127.298  0.00  0.00    +0.000 A 
ATOM      8  C   UNL     1     -13.008   6.765 128.652  0.00  0.00    +0.000 A 
BRANCH   3  10
ATOM      9  C   UNL     1     -13.047   7.738 131.432  0.00  0.00    +0.000 C 
ATOM     10  O   UNL     1     -12.107   6.834 130.871  0.00  0.00    +0.000 OA
ENDBRANCH   3  10
ENDBRANCH   2   4
ENDBRANCH   1   2
BRANCH   1  11
ATOM     11  C   UNL     1      -8.506   6.357 131.625  0.00  0.00    +0.000 C 
BRANCH  11  12
ATOM     12  O   UNL     1      -9.676   6.511 132.437  0.00  0.00    +0.000 OA
ATOM     13  H   UNL     1      -9.715   5.768 133.064  0.00  0.00    +0.000 HD
ENDBRANCH  11  12
BRANCH  11  14
ATOM     14  C   UNL     1      -7.788   5.041 131.991  0.00  0.00    +0.000 C 
BRANCH  14  15
ATOM     15  O   UNL     1      -8.663   3.921 131.753  0.00  0.00    +0.000 OA
BRANCH  15  16
ATOM     16  C   UNL     1      -9.305   3.270 132.753  0.00  0.00    +0.000 C 
ATOM     17  N   UNL     1      -9.963   2.124 132.434  0.00  0.00    +0.000 N 
ATOM     18  O   UNL     1      -9.298   3.677 133.911  0.00  0.00    +0.000 OA
ATOM     19  H   UNL     1     -10.020   1.721 131.516  0.00  0.00    +0.000 HD
ATOM     20  H   UNL     1     -10.423   1.648 133.198  0.00  0.00    +0.000 HD
ENDBRANCH  15  16
ENDBRANCH  14  15
ENDBRANCH  11  14
ENDBRANCH   1  11
TORSDOF 8
ENDMDL
MODEL 4
REMARK VINA RESULT:      -5.6      1.955      2.218
REMARK  Name = Methocarbamol
REMARK  9 active torsions:
REMARK  status: ('A' for Active; 'I' for Inactive)
REMARK    1  A    between atoms: C_1  and  O_2
REMARK    2  A    between atoms: O_2  and  C_3
REMARK    3  A    between atoms: C_4  and  O_5
REMARK    4  A    between atoms: O_5  and  C_6
REMARK    5  A    between atoms: C_6  and  C_7
REMARK    6  A    between atoms: C_7  and  O_8
REMARK    7  A    between atoms: C_7  and  C_9
REMARK    8  A    between atoms: C_9  and  O_10
REMARK    9  A    between atoms: O_10  and  C_11
REMARK                            x       y       z     vdW  Elec       q    Type
REMARK                         _______ _______ _______ _____ _____    ______ ____
ROOT
ATOM      1  C   UNL     1      -8.891   5.223 129.427  0.00  0.00    +0.000 C 
ENDROOT
BRANCH   1   2
ATOM      2  O   UNL     1      -9.041   6.632 129.638  0.00  0.00    +0.000 OA
BRANCH   2   4
ATOM      3  C   UNL     1     -11.008   8.080 129.155  0.00  0.00    +0.000 A 
ATOM      4  C   UNL     1     -10.321   7.085 129.872  0.00  0.00    +0.000 A 
ATOM      5  C   UNL     1     -10.960   6.482 130.966  0.00  0.00    +0.000 A 
ATOM      6  C   UNL     1     -12.203   6.941 131.414  0.00  0.00    +0.000 A 
ATOM      7  C   UNL     1     -12.848   7.970 130.733  0.00  0.00    +0.000 A 
ATOM      8  C   UNL     1     -12.260   8.524 129.596  0.00  0.00    +0.000 A 
BRANCH   3  10
ATOM      9  C   UNL     1     -11.014   7.728 126.823  0.00  0.00    +0.000 C 
ATOM     10  O   UNL     1     -10.539   8.479 127.930  0.00  0.00    +0.000 OA
ENDBRANCH   3  10
ENDBRANCH   2   4
ENDBRANCH   1   2
BRANCH   1  11
ATOM     11  C   UNL     1      -7.547   4.696 129.944  0.00  0.00    +0.000 C 
BRANCH  11  12
ATOM     12  O   UNL     1      -6.507   5.631 129.634  0.00  0.00    +0.000 OA
ATOM     13  H   UNL     1      -6.754   6.107 128.824  0.00  0.00    +0.000 HD
ENDBRANCH  11  12
BRANCH  11  14
ATOM     14  C   UNL     1      -7.633   4.501 131.472  0.00  0.00    +0.000 C 
BRANCH  14  15
ATOM     15  O   UNL     1      -8.832   3.774 131.807  0.00  0.00    +0.000 OA
BRANCH  15  16
ATOM     16  C   UNL     1      -9.042   3.238 133.034  0.00  0.00    +0.000 C 
ATOM     17  N   UNL     1      -9.856   3.917 133.884  0.00  0.00    +0.000 N 
ATOM     18  O   UNL     1      -8.535   2.175 133.380  0.00  0.00    +0.000 OA
ATOM     19  H   UNL     1     -10.311   4.790 133.683  0.00  0.00    +0.000 HD
ATOM     20  H   UNL     1     -10.010   3.491 134.788  0.00  0.00    +0.000 HD
ENDBRANCH  15  16
ENDBRANCH  14  15
ENDBRANCH  11  14
ENDBRANCH   1  11
TORSDOF 8
ENDMDL
MODEL 5
REMARK VINA RESULT:      -5.6      8.019     10.363
REMARK  Name = Methocarbamol
REMARK  9 active torsions:
REMARK  status: ('A' for Active; 'I' for Inactive)
REMARK    1  A    between atoms: C_1  and  O_2
REMARK    2  A    between atoms: O_2  and  C_3
REMARK    3  A    between atoms: C_4  and  O_5
REMARK    4  A    between atoms: O_5  and  C_6
REMARK    5  A    between atoms: C_6  and  C_7
REMARK    6  A    between atoms: C_7  and  O_8
REMARK    7  A    between atoms: C_7  and  C_9
REMARK    8  A    between atoms: C_9  and  O_10
REMARK    9  A    between atoms: O_10  and  C_11
REMARK                            x       y       z     vdW  Elec       q    Type
REMARK                         _______ _______ _______ _____ _____    ______ ____
ROOT
ATOM      1  C   UNL     1      -8.954   1.107 125.884  0.00  0.00    +0.000 C 
ENDROOT
BRANCH   1   2
ATOM      2  O   UNL     1      -8.110   0.039 125.440  0.00  0.00    +0.000 OA
BRANCH   2   4
ATOM      3  C   UNL     1      -9.123  -2.232 125.577  0.00  0.00    +0.000 A 
ATOM      4  C   UNL     1      -8.304  -1.187 126.039  0.00  0.00    +0.000 A 
ATOM      5  C   UNL     1      -7.613  -1.358 127.249  0.00  0.00    +0.000 A 
ATOM      6  C   UNL     1      -7.826  -2.490 128.043  0.00  0.00    +0.000 A 
ATOM      7  C   UNL     1      -8.687  -3.492 127.604  0.00  0.00    +0.000 A 
ATOM      8  C   UNL     1      -9.317  -3.371 126.366  0.00  0.00    +0.000 A 
BRANCH   3  10
ATOM      9  C   UNL     1      -8.662  -2.708 123.313  0.00  0.00    +0.000 C 
ATOM     10  O   UNL     1      -9.576  -2.216 124.283  0.00  0.00    +0.000 OA
ENDBRANCH   3  10
ENDBRANCH   2   4
ENDBRANCH   1   2
BRANCH   1  11
ATOM     11  C   UNL     1      -9.480   1.957 124.721  0.00  0.00    +0.000 C 
BRANCH  11  12
ATOM     12  O   UNL     1      -9.209   3.341 124.969  0.00  0.00    +0.000 OA
ATOM     13  H   UNL     1     -10.054   3.822 124.982  0.00  0.00    +0.000 HD
ENDBRANCH  11  12
BRANCH  11  14
ATOM     14  C   UNL     1      -8.784   1.516 123.416  0.00  0.00    +0.000 C 
BRANCH  14  15
ATOM     15  O   UNL     1      -9.321   2.253 122.300  0.00  0.00    +0.000 OA
BRANCH  15  16
ATOM     16  C   UNL     1      -8.623   3.224 121.663  0.00  0.00    +0.000 C 
ATOM     17  N   UNL     1      -7.482   3.667 122.253  0.00  0.00    +0.000 N 
ATOM     18  O   UNL     1      -8.986   3.693 120.588  0.00  0.00    +0.000 OA
ATOM     19  H   UNL     1      -7.113   3.340 123.128  0.00  0.00    +0.000 HD
ATOM     20  H   UNL     1      -6.971   4.382 121.753  0.00  0.00    +0.000 HD
ENDBRANCH  15  16
ENDBRANCH  14  15
ENDBRANCH  11  14
ENDBRANCH   1  11
TORSDOF 8
ENDMDL
MODEL 6
REMARK VINA RESULT:      -5.6      1.586      1.711
REMARK  Name = Methocarbamol
REMARK  9 active torsions:
REMARK  status: ('A' for Active; 'I' for Inactive)
REMARK    1  A    between atoms: C_1  and  O_2
REMARK    2  A    between atoms: O_2  and  C_3
REMARK    3  A    between atoms: C_4  and  O_5
REMARK    4  A    between atoms: O_5  and  C_6
REMARK    5  A    between atoms: C_6  and  C_7
REMARK    6  A    between atoms: C_7  and  O_8
REMARK    7  A    between atoms: C_7  and  C_9
REMARK    8  A    between atoms: C_9  and  O_10
REMARK    9  A    between atoms: O_10  and  C_11
REMARK                            x       y       z     vdW  Elec       q    Type
REMARK                         _______ _______ _______ _____ _____    ______ ____
ROOT
ATOM      1  C   UNL     1     -10.879   4.696 130.699  0.00  0.00    +0.000 C 
ENDROOT
BRANCH   1   2
ATOM      2  O   UNL     1     -11.615   5.106 129.542  0.00  0.00    +0.000 OA
BRANCH   2   4
ATOM      3  C   UNL     1     -12.065   7.291 128.434  0.00  0.00    +0.000 A 
ATOM      4  C   UNL     1     -12.065   6.409 129.528  0.00  0.00    +0.000 A 
ATOM      5  C   UNL     1     -12.539   6.872 130.766  0.00  0.00    +0.000 A 
ATOM      6  C   UNL     1     -12.891   8.214 130.942  0.00  0.00    +0.000 A 
ATOM      7  C   UNL     1     -12.829   9.094 129.866  0.00  0.00    +0.000 A 
ATOM      8  C   UNL     1     -12.436   8.628 128.612  0.00  0.00    +0.000 A 
BRANCH   3  10
ATOM      9  C   UNL     1     -10.996   7.544 126.347  0.00  0.00    +0.000 C 
ATOM     10  O   UNL     1     -11.884   6.798 127.167  0.00  0.00    +0.000 OA
ENDBRANCH   3  10
ENDBRANCH   2   4
ENDBRANCH   1   2
BRANCH   1  11
ATOM     11  C   UNL     1      -9.483   4.168 130.347  0.00  0.00    +0.000 C 
BRANCH  11  12
ATOM     12  O   UNL     1      -9.578   3.226 129.272  0.00  0.00    +0.000 OA
ATOM     13  H   UNL     1     -10.308   2.613 129.465  0.00  0.00    +0.000 HD
ENDBRANCH  11  12
BRANCH  11  14
ATOM     14  C   UNL     1      -8.587   5.351 129.925  0.00  0.00    +0.000 C 
BRANCH  14  15
ATOM     15  O   UNL     1      -8.255   6.151 131.076  0.00  0.00    +0.000 OA
BRANCH  15  16
ATOM     16  C   UNL     1      -7.020   6.672 131.273  0.00  0.00    +0.000 C 
ATOM     17  N   UNL     1      -6.311   6.219 132.341  0.00  0.00    +0.000 N 
ATOM     18  O   UNL     1      -6.536   7.514 130.523  0.00  0.00    +0.000 OA
ATOM     19  H   UNL     1      -6.629   5.533 133.003  0.00  0.00    +0.000 HD
ATOM     20  H   UNL     1      -5.387   6.611 132.460  0.00  0.00    +0.000 HD
ENDBRANCH  15  16
ENDBRANCH  14  15
ENDBRANCH  11  14
ENDBRANCH   1  11
TORSDOF 8
ENDMDL
MODEL 7
REMARK VINA RESULT:      -5.6      9.423     11.676
REMARK  Name = Methocarbamol
REMARK  9 active torsions:
REMARK  status: ('A' for Active; 'I' for Inactive)
REMARK    1  A    between atoms: C_1  and  O_2
REMARK    2  A    between atoms: O_2  and  C_3
REMARK    3  A    between atoms: C_4  and  O_5
REMARK    4  A    between atoms: O_5  and  C_6
REMARK    5  A    between atoms: C_6  and  C_7
REMARK    6  A    between atoms: C_7  and  O_8
REMARK    7  A    between atoms: C_7  and  C_9
REMARK    8  A    between atoms: C_9  and  O_10
REMARK    9  A    between atoms: O_10  and  C_11
REMARK                            x       y       z     vdW  Elec       q    Type
REMARK                         _______ _______ _______ _____ _____    ______ ____
ROOT
ATOM      1  C   UNL     1      -9.327  -0.265 123.854  0.00  0.00    +0.000 C 
ENDROOT
BRANCH   1   2
ATOM      2  O   UNL     1      -9.266  -1.648 123.487  0.00  0.00    +0.000 OA
BRANCH   2   4
ATOM      3  C   UNL     1      -7.567  -3.228 124.392  0.00  0.00    +0.000 A 
ATOM      4  C   UNL     1      -8.019  -2.234 123.506  0.00  0.00    +0.000 A 
ATOM      5  C   UNL     1      -7.130  -1.740 122.539  0.00  0.00    +0.000 A 
ATOM      6  C   UNL     1      -5.787  -2.133 122.531  0.00  0.00    +0.000 A 
ATOM      7  C   UNL     1      -5.336  -3.073 123.453  0.00  0.00    +0.000 A 
ATOM      8  C   UNL     1      -6.227  -3.632 124.367  0.00  0.00    +0.000 A 
BRANCH   3  10
ATOM      9  C   UNL     1      -8.769  -3.366 126.417  0.00  0.00    +0.000 C 
ATOM     10  O   UNL     1      -8.474  -3.927 125.146  0.00  0.00    +0.000 OA
ENDBRANCH   3  10
ENDBRANCH   2   4
ENDBRANCH   1   2
BRANCH   1  11
ATOM     11  C   UNL     1      -9.911   0.610 122.738  0.00  0.00    +0.000 C 
BRANCH  11  12
ATOM     12  O   UNL     1     -11.342   0.542 122.767  0.00  0.00    +0.000 OA
ATOM     13  H   UNL     1     -11.635   0.637 123.689  0.00  0.00    +0.000 HD
ENDBRANCH  11  12
BRANCH  11  14
ATOM     14  C   UNL     1      -9.455   2.069 122.947  0.00  0.00    +0.000 C 
BRANCH  14  15
ATOM     15  O   UNL     1      -8.027   2.167 122.773  0.00  0.00    +0.000 OA
BRANCH  15  16
ATOM     16  C   UNL     1      -7.437   3.217 122.153  0.00  0.00    +0.000 C 
ATOM     17  N   UNL     1      -8.115   3.804 121.132  0.00  0.00    +0.000 N 
ATOM     18  O   UNL     1      -6.337   3.643 122.491  0.00  0.00    +0.000 OA
ATOM     19  H   UNL     1      -9.017   3.521 120.792  0.00  0.00    +0.000 HD
ATOM     20  H   UNL     1      -7.662   4.594 120.694  0.00  0.00    +0.000 HD
ENDBRANCH  15  16
ENDBRANCH  14  15
ENDBRANCH  11  14
ENDBRANCH   1  11
TORSDOF 8
ENDMDL
MODEL 8
REMARK VINA RESULT:      -5.6      2.501      6.343
REMARK  Name = Methocarbamol
REMARK  9 active torsions:
REMARK  status: ('A' for Active; 'I' for Inactive)
REMARK    1  A    between atoms: C_1  and  O_2
REMARK    2  A    between atoms: O_2  and  C_3
REMARK    3  A    between atoms: C_4  and  O_5
REMARK    4  A    between atoms: O_5  and  C_6
REMARK    5  A    between atoms: C_6  and  C_7
REMARK    6  A    between atoms: C_7  and  O_8
REMARK    7  A    between atoms: C_7  and  C_9
REMARK    8  A    between atoms: C_9  and  O_10
REMARK    9  A    between atoms: O_10  and  C_11
REMARK                            x       y       z     vdW  Elec       q    Type
REMARK                         _______ _______ _______ _____ _____    ______ ____
ROOT
ATOM      1  C   UNL     1     -10.169   6.667 130.874  0.00  0.00    +0.000 C 
ENDROOT
BRANCH   1   2
ATOM      2  O   UNL     1      -9.645   6.477 132.193  0.00  0.00    +0.000 OA
BRANCH   2   4
ATOM      3  C   UNL     1      -7.618   5.583 133.331  0.00  0.00    +0.000 A 
ATOM      4  C   UNL     1      -8.290   6.245 132.289  0.00  0.00    +0.000 A 
ATOM      5  C   UNL     1      -7.535   6.766 131.226  0.00  0.00    +0.000 A 
ATOM      6  C   UNL     1      -6.137   6.737 131.257  0.00  0.00    +0.000 A 
ATOM      7  C   UNL     1      -5.480   6.132 132.325  0.00  0.00    +0.000 A 
ATOM      8  C   UNL     1      -6.220   5.540 133.348  0.00  0.00    +0.000 A 
BRANCH   3  10
ATOM      9  C   UNL     1      -8.572   3.483 133.825  0.00  0.00    +0.000 C 
ATOM     10  O   UNL     1      -8.332   4.825 134.223  0.00  0.00    +0.000 OA
ENDBRANCH   3  10
ENDBRANCH   2   4
ENDBRANCH   1   2
BRANCH   1  11
ATOM     11  C   UNL     1     -11.564   6.053 130.706  0.00  0.00    +0.000 C 
BRANCH  11  12
ATOM     12  O   UNL     1     -12.341   6.282 131.888  0.00  0.00    +0.000 OA
ATOM     13  H   UNL     1     -11.751   6.224 132.659  0.00  0.00    +0.000 HD
ENDBRANCH  11  12
BRANCH  11  14
ATOM     14  C   UNL     1     -12.260   6.703 129.492  0.00  0.00    +0.000 C 
BRANCH  14  15
ATOM     15  O   UNL     1     -11.581   6.327 128.278  0.00  0.00    +0.000 OA
BRANCH  15  16
ATOM     16  C   UNL     1     -11.209   7.230 127.339  0.00  0.00    +0.000 C 
ATOM     17  N   UNL     1     -10.697   8.411 127.774  0.00  0.00    +0.000 N 
ATOM     18  O   UNL     1     -11.312   7.006 126.137  0.00  0.00    +0.000 OA
ATOM     19  H   UNL     1     -10.577   8.676 128.735  0.00  0.00    +0.000 HD
ATOM     20  H   UNL     1     -10.413   9.064 127.055  0.00  0.00    +0.000 HD
ENDBRANCH  15  16
ENDBRANCH  14  15
ENDBRANCH  11  14
ENDBRANCH   1  11
TORSDOF 8
ENDMDL
MODEL 9
REMARK VINA RESULT:      -5.6      8.119     10.261
REMARK  Name = Methocarbamol
REMARK  9 active torsions:
REMARK  status: ('A' for Active; 'I' for Inactive)
REMARK    1  A    between atoms: C_1  and  O_2
REMARK    2  A    between atoms: O_2  and  C_3
REMARK    3  A    between atoms: C_4  and  O_5
REMARK    4  A    between atoms: O_5  and  C_6
REMARK    5  A    between atoms: C_6  and  C_7
REMARK    6  A    between atoms: C_7  and  O_8
REMARK    7  A    between atoms: C_7  and  C_9
REMARK    8  A    between atoms: C_9  and  O_10
REMARK    9  A    between atoms: O_10  and  C_11
REMARK                            x       y       z     vdW  Elec       q    Type
REMARK                         _______ _______ _______ _____ _____    ______ ____
ROOT
ATOM      1  C   UNL     1      -9.335   0.379 123.212  0.00  0.00    +0.000 C 
ENDROOT
BRANCH   1   2
ATOM      2  O   UNL     1      -9.356  -1.003 123.586  0.00  0.00    +0.000 OA
BRANCH   2   4
ATOM      3  C   UNL     1      -7.637  -1.905 125.146  0.00  0.00    +0.000 A 
ATOM      4  C   UNL     1      -8.138  -1.581 123.873  0.00  0.00    +0.000 A 
ATOM      5  C   UNL     1      -7.335  -1.832 122.750  0.00  0.00    +0.000 A 
ATOM      6  C   UNL     1      -6.018  -2.280 122.895  0.00  0.00    +0.000 A 
ATOM      7  C   UNL     1      -5.511  -2.539 124.165  0.00  0.00    +0.000 A 
ATOM      8  C   UNL     1      -6.324  -2.370 125.285  0.00  0.00    +0.000 A 
BRANCH   3  10
ATOM      9  C   UNL     1      -8.941  -3.235 126.593  0.00  0.00    +0.000 C 
ATOM     10  O   UNL     1      -8.488  -1.941 126.220  0.00  0.00    +0.000 OA
ENDBRANCH   3  10
ENDBRANCH   2   4
ENDBRANCH   1   2
BRANCH   1  11
ATOM     11  C   UNL     1      -9.778   1.300 124.355  0.00  0.00    +0.000 C 
BRANCH  11  12
ATOM     12  O   UNL     1     -10.222   0.513 125.467  0.00  0.00    +0.000 OA
ATOM     13  H   UNL     1      -9.470   0.384 126.071  0.00  0.00    +0.000 HD
ENDBRANCH  11  12
BRANCH  11  14
ATOM     14  C   UNL     1      -8.588   2.183 124.783  0.00  0.00    +0.000 C 
BRANCH  14  15
ATOM     15  O   UNL     1      -9.061   3.484 125.185  0.00  0.00    +0.000 OA
BRANCH  15  16
ATOM     16  C   UNL     1      -8.224   4.503 125.495  0.00  0.00    +0.000 C 
ATOM     17  N   UNL     1      -7.087   4.626 124.761  0.00  0.00    +0.000 N 
ATOM     18  O   UNL     1      -8.469   5.301 126.395  0.00  0.00    +0.000 OA
ATOM     19  H   UNL     1      -6.810   4.019 124.009  0.00  0.00    +0.000 HD
ATOM     20  H   UNL     1      -6.485   5.401 125.000  0.00  0.00    +0.000 HD
ENDBRANCH  15  16
ENDBRANCH  14  15
ENDBRANCH  11  14
ENDBRANCH   1  11
TORSDOF 8
ENDMDL
