MODEL 1
REMARK VINA RESULT:      -4.2      0.000      0.000
REMARK  Name = Methenamine
REMARK  0 active torsions:
REMARK  status: ('A' for Active; 'I' for Inactive)
REMARK                            x       y       z     vdW  Elec       q    Type
REMARK                         _______ _______ _______ _____ _____    ______ ____
ROOT
ATOM      1  C   UNL     1     -10.343   7.576 129.955  0.00  0.00    +0.000 C 
ATOM      2  N   UNL     1     -10.854   8.163 128.725  0.00  0.00    +0.000 NA
ATOM      3  C   UNL     1     -12.031   8.964 129.032  0.00  0.00    +0.000 C 
ATOM      4  N   UNL     1     -13.060   8.133 129.643  0.00  0.00    +0.000 NA
ATOM      5  C   UNL     1     -12.533   7.546 130.867  0.00  0.00    +0.000 C 
ATOM      6  N   UNL     1     -11.359   6.736 130.573  0.00  0.00    +0.000 NA
ATOM      7  C   UNL     1     -11.732   5.678 129.643  0.00  0.00    +0.000 C 
ATOM      8  N   UNL     1     -12.252   6.252 128.411  0.00  0.00    +0.000 NA
ATOM      9  C   UNL     1     -11.230   7.096 127.808  0.00  0.00    +0.000 C 
ATOM     10  C   UNL     1     -13.420   7.066 128.720  0.00  0.00    +0.000 C 
ENDROOT
TORSDOF 0
ENDMDL
MODEL 2
REMARK VINA RESULT:      -4.2      0.056      2.252
REMARK  Name = Methenamine
REMARK  0 active torsions:
REMARK  status: ('A' for Active; 'I' for Inactive)
REMARK                            x       y       z     vdW  Elec       q    Type
REMARK                         _______ _______ _______ _____ _____    ______ ____
ROOT
ATOM      1  C   UNL     1     -11.277   7.160 127.772  0.00  0.00    +0.000 C 
ATOM      2  N   UNL     1     -12.280   6.296 128.377  0.00  0.00    +0.000 NA
ATOM      3  C   UNL     1     -13.442   7.095 128.741  0.00  0.00    +0.000 C 
ATOM      4  N   UNL     1     -13.060   8.138 129.684  0.00  0.00    +0.000 NA
ATOM      5  C   UNL     1     -12.052   8.990 129.068  0.00  0.00    +0.000 C 
ATOM      6  N   UNL     1     -10.881   8.204 128.707  0.00  0.00    +0.000 NA
ATOM      7  C   UNL     1     -10.334   7.585 129.907  0.00  0.00    +0.000 C 
ATOM      8  N   UNL     1     -11.330   6.723 130.527  0.00  0.00    +0.000 NA
ATOM      9  C   UNL     1     -11.723   5.690 129.580  0.00  0.00    +0.000 C 
ATOM     10  C   UNL     1     -12.498   7.520 130.876  0.00  0.00    +0.000 C 
ENDROOT
TORSDOF 0
ENDMDL
MODEL 3
REMARK VINA RESULT:      -4.2      0.031      2.264
REMARK  Name = Methenamine
REMARK  0 active torsions:
REMARK  status: ('A' for Active; 'I' for Inactive)
REMARK                            x       y       z     vdW  Elec       q    Type
REMARK                         _______ _______ _______ _____ _____    ______ ____
ROOT
ATOM      1  C   UNL     1     -11.259   7.107 127.780  0.00  0.00    +0.000 C 
ATOM      2  N   UNL     1     -10.864   8.170 128.694  0.00  0.00    +0.000 NA
ATOM      3  C   UNL     1     -10.340   7.577 129.917  0.00  0.00    +0.000 C 
ATOM      4  N   UNL     1     -11.355   6.742 130.545  0.00  0.00    +0.000 NA
ATOM      5  C   UNL     1     -11.746   5.689 129.618  0.00  0.00    +0.000 C 
ATOM      6  N   UNL     1     -12.279   6.268 128.393  0.00  0.00    +0.000 NA
ATOM      7  C   UNL     1     -13.437   7.089 128.720  0.00  0.00    +0.000 C 
ATOM      8  N   UNL     1     -13.058   8.152 129.640  0.00  0.00    +0.000 NA
ATOM      9  C   UNL     1     -12.032   8.977 129.018  0.00  0.00    +0.000 C 
ATOM     10  C   UNL     1     -12.519   7.559 130.856  0.00  0.00    +0.000 C 
ENDROOT
TORSDOF 0
ENDMDL
MODEL 4
REMARK VINA RESULT:      -4.2      0.195      2.269
REMARK  Name = Methenamine
REMARK  0 active torsions:
REMARK  status: ('A' for Active; 'I' for Inactive)
REMARK                            x       y       z     vdW  Elec       q    Type
REMARK                         _______ _______ _______ _____ _____    ______ ____
ROOT
ATOM      1  C   UNL     1     -12.620   7.657 130.702  0.00  0.00    +0.000 C 
ATOM      2  N   UNL     1     -11.444   6.843 130.431  0.00  0.00    +0.000 NA
ATOM      3  C   UNL     1     -10.425   7.672 129.801  0.00  0.00    +0.000 C 
ATOM      4  N   UNL     1     -10.932   8.231 128.555  0.00  0.00    +0.000 NA
ATOM      5  C   UNL     1     -12.111   9.036 128.840  0.00  0.00    +0.000 C 
ATOM      6  N   UNL     1     -13.142   8.218 129.464  0.00  0.00    +0.000 NA
ATOM      7  C   UNL     1     -13.496   7.130 128.562  0.00  0.00    +0.000 C 
ATOM      8  N   UNL     1     -12.327   6.312 128.276  0.00  0.00    +0.000 NA
ATOM      9  C   UNL     1     -11.810   5.765 129.522  0.00  0.00    +0.000 C 
ATOM     10  C   UNL     1     -11.302   7.144 127.660  0.00  0.00    +0.000 C 
ENDROOT
TORSDOF 0
ENDMDL
MODEL 5
REMARK VINA RESULT:      -4.2      0.232      2.286
REMARK  Name = Methenamine
REMARK  0 active torsions:
REMARK  status: ('A' for Active; 'I' for Inactive)
REMARK                            x       y       z     vdW  Elec       q    Type
REMARK                         _______ _______ _______ _____ _____    ______ ____
ROOT
ATOM      1  C   UNL     1     -11.795   5.797 129.516  0.00  0.00    +0.000 C 
ATOM      2  N   UNL     1     -12.356   6.325 128.281  0.00  0.00    +0.000 NA
ATOM      3  C   UNL     1     -11.352   7.142 127.613  0.00  0.00    +0.000 C 
ATOM      4  N   UNL     1     -10.942   8.242 128.475  0.00  0.00    +0.000 NA
ATOM      5  C   UNL     1     -10.390   7.699 129.708  0.00  0.00    +0.000 C 
ATOM      6  N   UNL     1     -11.387   6.886 130.392  0.00  0.00    +0.000 NA
ATOM      7  C   UNL     1     -12.548   7.712 130.696  0.00  0.00    +0.000 C 
ATOM      8  N   UNL     1     -13.115   8.254 129.469  0.00  0.00    +0.000 NA
ATOM      9  C   UNL     1     -13.510   7.155 128.600  0.00  0.00    +0.000 C 
ATOM     10  C   UNL     1     -12.106   9.057 128.793  0.00  0.00    +0.000 C 
ENDROOT
TORSDOF 0
ENDMDL
MODEL 6
REMARK VINA RESULT:      -4.2      0.252      2.616
REMARK  Name = Methenamine
REMARK  0 active torsions:
REMARK  status: ('A' for Active; 'I' for Inactive)
REMARK                            x       y       z     vdW  Elec       q    Type
REMARK                         _______ _______ _______ _____ _____    ______ ____
ROOT
ATOM      1  C   UNL     1     -13.494   7.237 128.519  0.00  0.00    +0.000 C 
ATOM      2  N   UNL     1     -12.356   6.376 128.234  0.00  0.00    +0.000 NA
ATOM      3  C   UNL     1     -11.862   5.810 129.482  0.00  0.00    +0.000 C 
ATOM      4  N   UNL     1     -11.456   6.874 130.391  0.00  0.00    +0.000 NA
ATOM      5  C   UNL     1     -12.602   7.731 130.661  0.00  0.00    +0.000 C 
ATOM      6  N   UNL     1     -13.101   8.310 129.422  0.00  0.00    +0.000 NA
ATOM      7  C   UNL     1     -12.040   9.091 128.799  0.00  0.00    +0.000 C 
ATOM      8  N   UNL     1     -10.892   8.243 128.516  0.00  0.00    +0.000 NA
ATOM      9  C   UNL     1     -11.300   7.170 127.620  0.00  0.00    +0.000 C 
ATOM     10  C   UNL     1     -10.408   7.664 129.762  0.00  0.00    +0.000 C 
ENDROOT
TORSDOF 0
ENDMDL
MODEL 7
REMARK VINA RESULT:      -4.2      0.142      2.262
REMARK  Name = Methenamine
REMARK  0 active torsions:
REMARK  status: ('A' for Active; 'I' for Inactive)
REMARK                            x       y       z     vdW  Elec       q    Type
REMARK                         _______ _______ _______ _____ _____    ______ ____
ROOT
ATOM      1  C   UNL     1     -12.046   9.018 128.873  0.00  0.00    +0.000 C 
ATOM      2  N   UNL     1     -10.886   8.195 128.562  0.00  0.00    +0.000 NA
ATOM      3  C   UNL     1     -11.295   7.105 127.687  0.00  0.00    +0.000 C 
ATOM      4  N   UNL     1     -12.313   6.292 128.339  0.00  0.00    +0.000 NA
ATOM      5  C   UNL     1     -13.463   7.129 128.650  0.00  0.00    +0.000 C 
ATOM      6  N   UNL     1     -13.069   8.219 129.531  0.00  0.00    +0.000 NA
ATOM      7  C   UNL     1     -12.521   7.663 130.761  0.00  0.00    +0.000 C 
ATOM      8  N   UNL     1     -11.364   6.831 130.464  0.00  0.00    +0.000 NA
ATOM      9  C   UNL     1     -10.352   7.639 129.799  0.00  0.00    +0.000 C 
ATOM     10  C   UNL     1     -11.770   5.750 129.576  0.00  0.00    +0.000 C 
ENDROOT
TORSDOF 0
ENDMDL
MODEL 8
REMARK VINA RESULT:      -4.2      0.188      2.237
REMARK  Name = Methenamine
REMARK  0 active torsions:
REMARK  status: ('A' for Active; 'I' for Inactive)
REMARK                            x       y       z     vdW  Elec       q    Type
REMARK                         _______ _______ _______ _____ _____    ______ ____
ROOT
ATOM      1  C   UNL     1     -11.807   5.758 129.539  0.00  0.00    +0.000 C 
ATOM      2  N   UNL     1     -11.402   6.838 130.427  0.00  0.00    +0.000 NA
ATOM      3  C   UNL     1     -12.564   7.659 130.740  0.00  0.00    +0.000 C 
ATOM      4  N   UNL     1     -13.130   8.216 129.519  0.00  0.00    +0.000 NA
ATOM      5  C   UNL     1     -13.524   7.125 128.638  0.00  0.00    +0.000 C 
ATOM      6  N   UNL     1     -12.370   6.300 128.310  0.00  0.00    +0.000 NA
ATOM      7  C   UNL     1     -11.366   7.126 127.651  0.00  0.00    +0.000 C 
ATOM      8  N   UNL     1     -10.957   8.215 128.526  0.00  0.00    +0.000 NA
ATOM      9  C   UNL     1     -10.406   7.660 129.754  0.00  0.00    +0.000 C 
ATOM     10  C   UNL     1     -12.122   9.027 128.853  0.00  0.00    +0.000 C 
ENDROOT
TORSDOF 0
ENDMDL
MODEL 9
REMARK VINA RESULT:      -4.2      0.213      2.613
REMARK  Name = Methenamine
REMARK  0 active torsions:
REMARK  status: ('A' for Active; 'I' for Inactive)
REMARK                            x       y       z     vdW  Elec       q    Type
REMARK                         _______ _______ _______ _____ _____    ______ ____
ROOT
ATOM      1  C   UNL     1     -13.487   7.222 128.569  0.00  0.00    +0.000 C 
ATOM      2  N   UNL     1     -13.083   8.286 129.476  0.00  0.00    +0.000 NA
ATOM      3  C   UNL     1     -12.033   9.076 128.848  0.00  0.00    +0.000 C 
ATOM      4  N   UNL     1     -10.885   8.233 128.539  0.00  0.00    +0.000 NA
ATOM      5  C   UNL     1     -11.306   7.170 127.637  0.00  0.00    +0.000 C 
ATOM      6  N   UNL     1     -12.350   6.366 128.257  0.00  0.00    +0.000 NA
ATOM      7  C   UNL     1     -11.837   5.788 129.492  0.00  0.00    +0.000 C 
ATOM      8  N   UNL     1     -11.422   6.842 130.406  0.00  0.00    +0.000 NA
ATOM      9  C   UNL     1     -12.564   7.694 130.702  0.00  0.00    +0.000 C 
ATOM     10  C   UNL     1     -10.383   7.641 129.771  0.00  0.00    +0.000 C 
ENDROOT
TORSDOF 0
ENDMDL
