MODEL 1
REMARK VINA RESULT:      -8.6      0.000      0.000
REMARK  Name = Methylprednisolone
REMARK  8 active torsions:
REMARK  status: ('A' for Active; 'I' for Inactive)
REMARK    1  A    between atoms: C_5  and  O_6
REMARK    2  A    between atoms: C_5  and  C_7
REMARK    3  A    between atoms: C_7  and  C_9
REMARK    4  A    between atoms: C_9  and  O_10
REMARK    5  A    between atoms: C_11  and  C_12
REMARK    6  A    between atoms: C_14  and  O_15
REMARK    7  A    between atoms: C_21  and  C_22
REMARK    8  A    between atoms: C_29  and  C_30
REMARK                            x       y       z     vdW  Elec       q    Type
REMARK                         _______ _______ _______ _____ _____    ______ ____
ROOT
ATOM      1  C   UNL     1      -7.307  -1.333 123.230  0.00  0.00    +0.000 C 
ATOM      2  C   UNL     1      -6.002  -1.675 122.792  0.00  0.00    +0.000 C 
ATOM      3  C   UNL     1      -6.201  -1.545 124.275  0.00  0.00    +0.000 C 
ATOM      4  C   UNL     1      -8.145  -1.635 124.985  0.00  0.00    +0.000 C 
ATOM      5  C   UNL     1      -7.251  -2.591 124.662  0.00  0.00    +0.000 C 
ATOM      6  C   UNL     1      -7.477  -3.985 124.207  0.00  0.00    +0.000 C 
ATOM      7  C   UNL     1      -6.525  -2.028 126.308  0.00  0.00    +0.000 C 
ATOM      8  C   UNL     1      -6.749  -0.335 126.526  0.00  0.00    +0.000 C 
ATOM      9  C   UNL     1      -6.463   0.728 125.289  0.00  0.00    +0.000 C 
ATOM     10  C   UNL     1      -7.362   0.375 123.873  0.00  0.00    +0.000 C 
ATOM     11  C   UNL     1      -6.913   1.250 122.734  0.00  0.00    +0.000 C 
ATOM     12  C   UNL     1      -6.913   2.717 123.113  0.00  0.00    +0.000 C 
ATOM     13  C   UNL     1      -6.383   3.467 121.909  0.00  0.00    +0.000 C 
ATOM     14  C   UNL     1      -6.173   3.090 124.381  0.00  0.00    +0.000 C 
ATOM     15  C   UNL     1      -5.354   4.156 124.509  0.00  0.00    +0.000 C 
ATOM     16  C   UNL     1      -4.895   4.399 125.896  0.00  0.00    +0.000 C 
ATOM     17  O   UNL     1      -5.264   5.277 126.661  0.00  0.00    +0.000 OA
ATOM     18  C   UNL     1      -3.976   3.303 126.357  0.00  0.00    +0.000 C 
ATOM     19  C   UNL     1      -5.057   2.497 126.552  0.00  0.00    +0.000 C 
ATOM     20  C   UNL     1      -6.402   2.247 125.640  0.00  0.00    +0.000 C 
ATOM     21  C   UNL     1      -7.824   2.587 126.110  0.00  0.00    +0.000 C 
ENDROOT
BRANCH   4  22
ATOM     22  O   UNL     1      -9.289  -1.760 124.020  0.00  0.00    +0.000 OA
ATOM     23  H   UNL     1     -10.139  -1.955 124.438  0.00  0.00    +0.000 HD
ENDBRANCH   4  22
BRANCH   4  24
ATOM     24  C   UNL     1      -9.064  -2.635 126.241  0.00  0.00    +0.000 C 
ATOM     25  O   UNL     1     -10.271  -2.918 126.141  0.00  0.00    +0.000 OA
BRANCH  24  26
ATOM     26  C   UNL     1      -8.469  -3.120 127.656  0.00  0.00    +0.000 C 
BRANCH  26  27
ATOM     27  O   UNL     1      -9.267  -4.188 128.243  0.00  0.00    +0.000 OA
ATOM     28  H   UNL     1      -8.694  -4.974 128.354  0.00  0.00    +0.000 HD
ENDBRANCH  26  27
ENDBRANCH  24  26
ENDBRANCH   4  24
BRANCH   8  29
ATOM     29  O   UNL     1      -8.106  -0.181 126.994  0.00  0.00    +0.000 OA
ATOM     30  H   UNL     1      -8.469  -1.036 127.290  0.00  0.00    +0.000 HD
ENDBRANCH   8  29
TORSDOF 5
ENDMDL
MODEL 2
REMARK VINA RESULT:      -8.0      3.023      5.392
REMARK  Name = Methylprednisolone
REMARK  8 active torsions:
REMARK  status: ('A' for Active; 'I' for Inactive)
REMARK    1  A    between atoms: C_5  and  O_6
REMARK    2  A    between atoms: C_5  and  C_7
REMARK    3  A    between atoms: C_7  and  C_9
REMARK    4  A    between atoms: C_9  and  O_10
REMARK    5  A    between atoms: C_11  and  C_12
REMARK    6  A    between atoms: C_14  and  O_15
REMARK    7  A    between atoms: C_21  and  C_22
REMARK    8  A    between atoms: C_29  and  C_30
REMARK                            x       y       z     vdW  Elec       q    Type
REMARK                         _______ _______ _______ _____ _____    ______ ____
ROOT
ATOM      1  C   UNL     1      -8.422  -3.239 126.075  0.00  0.00    +0.000 C 
ATOM      2  C   UNL     1      -9.816  -3.266 126.335  0.00  0.00    +0.000 C 
ATOM      3  C   UNL     1      -9.239  -1.950 125.896  0.00  0.00    +0.000 C 
ATOM      4  C   UNL     1      -7.392  -1.987 124.959  0.00  0.00    +0.000 C 
ATOM      5  C   UNL     1      -8.646  -2.183 124.503  0.00  0.00    +0.000 C 
ATOM      6  C   UNL     1      -9.119  -2.979 123.344  0.00  0.00    +0.000 C 
ATOM      7  C   UNL     1      -8.671  -0.308 124.691  0.00  0.00    +0.000 C 
ATOM      8  C   UNL     1      -7.735   0.182 126.050  0.00  0.00    +0.000 C 
ATOM      9  C   UNL     1      -7.846  -0.621 127.495  0.00  0.00    +0.000 C 
ATOM     10  C   UNL     1      -7.528  -2.299 127.361  0.00  0.00    +0.000 C 
ATOM     11  C   UNL     1      -7.837  -2.997 128.659  0.00  0.00    +0.000 C 
ATOM     12  C   UNL     1      -7.151  -2.333 129.836  0.00  0.00    +0.000 C 
ATOM     13  C   UNL     1      -7.598  -3.088 131.070  0.00  0.00    +0.000 C 
ATOM     14  C   UNL     1      -7.356  -0.838 129.985  0.00  0.00    +0.000 C 
ATOM     15  C   UNL     1      -7.616  -0.210 131.151  0.00  0.00    +0.000 C 
ATOM     16  C   UNL     1      -7.596   1.268 131.055  0.00  0.00    +0.000 C 
ATOM     17  O   UNL     1      -6.734   2.031 131.463  0.00  0.00    +0.000 OA
ATOM     18  C   UNL     1      -8.745   1.767 130.224  0.00  0.00    +0.000 C 
ATOM     19  C   UNL     1      -8.073   1.400 129.097  0.00  0.00    +0.000 C 
ATOM     20  C   UNL     1      -7.200   0.050 128.747  0.00  0.00    +0.000 C 
ATOM     21  C   UNL     1      -5.696   0.066 128.437  0.00  0.00    +0.000 C 
ENDROOT
BRANCH   4  22
ATOM     22  O   UNL     1      -6.659  -3.289 124.800  0.00  0.00    +0.000 OA
ATOM     23  H   UNL     1      -6.042  -3.306 124.056  0.00  0.00    +0.000 HD
ENDBRANCH   4  22
BRANCH   4  24
ATOM     24  C   UNL     1      -6.691  -1.371 123.361  0.00  0.00    +0.000 C 
ATOM     25  O   UNL     1      -6.878  -0.218 122.932  0.00  0.00    +0.000 OA
BRANCH  24  26
ATOM     26  C   UNL     1      -5.903  -2.272 122.286  0.00  0.00    +0.000 C 
BRANCH  26  27
ATOM     27  O   UNL     1      -4.778  -2.976 122.887  0.00  0.00    +0.000 OA
ATOM     28  H   UNL     1      -3.976  -2.428 122.771  0.00  0.00    +0.000 HD
ENDBRANCH  26  27
ENDBRANCH  24  26
ENDBRANCH   4  24
BRANCH   8  29
ATOM     29  O   UNL     1      -6.363   0.178 125.598  0.00  0.00    +0.000 OA
ATOM     30  H   UNL     1      -6.272   0.675 124.764  0.00  0.00    +0.000 HD
ENDBRANCH   8  29
TORSDOF 5
ENDMDL
MODEL 3
REMARK VINA RESULT:      -8.0      2.555      5.623
REMARK  Name = Methylprednisolone
REMARK  8 active torsions:
REMARK  status: ('A' for Active; 'I' for Inactive)
REMARK    1  A    between atoms: C_5  and  O_6
REMARK    2  A    between atoms: C_5  and  C_7
REMARK    3  A    between atoms: C_7  and  C_9
REMARK    4  A    between atoms: C_9  and  O_10
REMARK    5  A    between atoms: C_11  and  C_12
REMARK    6  A    between atoms: C_14  and  O_15
REMARK    7  A    between atoms: C_21  and  C_22
REMARK    8  A    between atoms: C_29  and  C_30
REMARK                            x       y       z     vdW  Elec       q    Type
REMARK                         _______ _______ _______ _____ _____    ______ ____
ROOT
ATOM      1  C   UNL     1      -8.021   1.180 126.168  0.00  0.00    +0.000 C 
ATOM      2  C   UNL     1      -6.850   1.980 126.160  0.00  0.00    +0.000 C 
ATOM      3  C   UNL     1      -6.718   0.588 125.611  0.00  0.00    +0.000 C 
ATOM      4  C   UNL     1      -8.460  -0.388 125.062  0.00  0.00    +0.000 C 
ATOM      5  C   UNL     1      -7.675   0.501 124.420  0.00  0.00    +0.000 C 
ATOM      6  C   UNL     1      -8.021   1.470 123.352  0.00  0.00    +0.000 C 
ATOM      7  C   UNL     1      -6.598  -1.037 124.264  0.00  0.00    +0.000 C 
ATOM      8  C   UNL     1      -6.737  -2.026 125.667  0.00  0.00    +0.000 C 
ATOM      9  C   UNL     1      -6.710  -1.359 127.183  0.00  0.00    +0.000 C 
ATOM     10  C   UNL     1      -7.903  -0.151 127.412  0.00  0.00    +0.000 C 
ATOM     11  C   UNL     1      -7.699   0.546 128.731  0.00  0.00    +0.000 C 
ATOM     12  C   UNL     1      -7.590  -0.436 129.880  0.00  0.00    +0.000 C 
ATOM     13  C   UNL     1      -7.323   0.389 131.120  0.00  0.00    +0.000 C 
ATOM     14  C   UNL     1      -6.583  -1.558 129.720  0.00  0.00    +0.000 C 
ATOM     15  C   UNL     1      -5.737  -1.976 130.685  0.00  0.00    +0.000 C 
ATOM     16  C   UNL     1      -4.982  -3.201 130.334  0.00  0.00    +0.000 C 
ATOM     17  O   UNL     1      -5.159  -4.333 130.756  0.00  0.00    +0.000 OA
ATOM     18  C   UNL     1      -4.004  -2.929 129.226  0.00  0.00    +0.000 C 
ATOM     19  C   UNL     1      -5.030  -2.961 128.330  0.00  0.00    +0.000 C 
ATOM     20  C   UNL     1      -6.547  -2.328 128.396  0.00  0.00    +0.000 C 
ATOM     21  C   UNL     1      -7.825  -3.179 128.379  0.00  0.00    +0.000 C 
ENDROOT
BRANCH   4  22
ATOM     22  O   UNL     1      -9.790   0.276 125.278  0.00  0.00    +0.000 OA
ATOM     23  H   UNL     1      -9.829   1.191 124.969  0.00  0.00    +0.000 HD
ENDBRANCH   4  22
BRANCH   4  24
ATOM     24  C   UNL     1      -9.100  -1.227 123.543  0.00  0.00    +0.000 C 
ATOM     25  O   UNL     1      -9.842  -0.670 122.714  0.00  0.00    +0.000 OA
BRANCH  24  26
ATOM     26  C   UNL     1      -8.905  -2.786 123.193  0.00  0.00    +0.000 C 
BRANCH  26  27
ATOM     27  O   UNL     1     -10.123  -3.551 123.428  0.00  0.00    +0.000 OA
ATOM     28  H   UNL     1     -10.398  -3.412 124.357  0.00  0.00    +0.000 HD
ENDBRANCH  26  27
ENDBRANCH  24  26
ENDBRANCH   4  24
BRANCH   8  29
ATOM     29  O   UNL     1      -7.957  -2.779 125.490  0.00  0.00    +0.000 OA
ATOM     30  H   UNL     1      -8.397  -2.931 126.347  0.00  0.00    +0.000 HD
ENDBRANCH   8  29
TORSDOF 5
ENDMDL
MODEL 4
REMARK VINA RESULT:      -7.9      4.466      7.352
REMARK  Name = Methylprednisolone
REMARK  8 active torsions:
REMARK  status: ('A' for Active; 'I' for Inactive)
REMARK    1  A    between atoms: C_5  and  O_6
REMARK    2  A    between atoms: C_5  and  C_7
REMARK    3  A    between atoms: C_7  and  C_9
REMARK    4  A    between atoms: C_9  and  O_10
REMARK    5  A    between atoms: C_11  and  C_12
REMARK    6  A    between atoms: C_14  and  O_15
REMARK    7  A    between atoms: C_21  and  C_22
REMARK    8  A    between atoms: C_29  and  C_30
REMARK                            x       y       z     vdW  Elec       q    Type
REMARK                         _______ _______ _______ _____ _____    ______ ____
ROOT
ATOM      1  C   UNL     1      -5.964  -3.876 131.307  0.00  0.00    +0.000 C 
ATOM      2  C   UNL     1      -5.461  -5.118 130.844  0.00  0.00    +0.000 C 
ATOM      3  C   UNL     1      -4.718  -3.887 130.409  0.00  0.00    +0.000 C 
ATOM      4  C   UNL     1      -5.032  -2.152 131.495  0.00  0.00    +0.000 C 
ATOM      5  C   UNL     1      -4.218  -3.210 131.688  0.00  0.00    +0.000 C 
ATOM      6  C   UNL     1      -3.661  -3.759 132.948  0.00  0.00    +0.000 C 
ATOM      7  C   UNL     1      -3.280  -2.341 130.304  0.00  0.00    +0.000 C 
ATOM      8  C   UNL     1      -4.370  -1.595 129.200  0.00  0.00    +0.000 C 
ATOM      9  C   UNL     1      -5.724  -2.391 128.672  0.00  0.00    +0.000 C 
ATOM     10  C   UNL     1      -6.733  -2.927 129.949  0.00  0.00    +0.000 C 
ATOM     11  C   UNL     1      -7.833  -3.806 129.414  0.00  0.00    +0.000 C 
ATOM     12  C   UNL     1      -8.581  -3.147 128.273  0.00  0.00    +0.000 C 
ATOM     13  C   UNL     1      -9.602  -4.158 127.795  0.00  0.00    +0.000 C 
ATOM     14  C   UNL     1      -7.741  -2.610 127.132  0.00  0.00    +0.000 C 
ATOM     15  C   UNL     1      -8.033  -2.763 125.823  0.00  0.00    +0.000 C 
ATOM     16  C   UNL     1      -7.151  -1.994 124.916  0.00  0.00    +0.000 C 
ATOM     17  O   UNL     1      -7.421  -0.975 124.298  0.00  0.00    +0.000 OA
ATOM     18  C   UNL     1      -5.751  -2.540 124.939  0.00  0.00    +0.000 C 
ATOM     19  C   UNL     1      -5.542  -1.918 126.133  0.00  0.00    +0.000 C 
ATOM     20  C   UNL     1      -6.498  -1.778 127.464  0.00  0.00    +0.000 C 
ATOM     21  C   UNL     1      -7.030  -0.438 127.993  0.00  0.00    +0.000 C 
ENDROOT
BRANCH   4  22
ATOM     22  O   UNL     1      -6.019  -2.146 132.627  0.00  0.00    +0.000 OA
ATOM     23  H   UNL     1      -5.620  -2.258 133.500  0.00  0.00    +0.000 HD
ENDBRANCH   4  22
BRANCH   4  24
ATOM     24  C   UNL     1      -3.974  -0.920 132.381  0.00  0.00    +0.000 C 
ATOM     25  O   UNL     1      -4.214   0.301 132.400  0.00  0.00    +0.000 OA
BRANCH  24  26
ATOM     26  C   UNL     1      -2.566  -1.246 133.088  0.00  0.00    +0.000 C 
BRANCH  26  27
ATOM     27  O   UNL     1      -2.086  -0.125 133.886  0.00  0.00    +0.000 OA
ATOM     28  H   UNL     1      -1.391   0.339 133.377  0.00  0.00    +0.000 HD
ENDBRANCH  26  27
ENDBRANCH  24  26
ENDBRANCH   4  24
BRANCH   8  29
ATOM     29  O   UNL     1      -4.752  -0.347 129.817  0.00  0.00    +0.000 OA
ATOM     30  H   UNL     1      -3.981   0.086 130.229  0.00  0.00    +0.000 HD
ENDBRANCH   8  29
TORSDOF 5
ENDMDL
MODEL 5
REMARK VINA RESULT:      -7.9      2.255      3.575
REMARK  Name = Methylprednisolone
REMARK  8 active torsions:
REMARK  status: ('A' for Active; 'I' for Inactive)
REMARK    1  A    between atoms: C_5  and  O_6
REMARK    2  A    between atoms: C_5  and  C_7
REMARK    3  A    between atoms: C_7  and  C_9
REMARK    4  A    between atoms: C_9  and  O_10
REMARK    5  A    between atoms: C_11  and  C_12
REMARK    6  A    between atoms: C_14  and  O_15
REMARK    7  A    between atoms: C_21  and  C_22
REMARK    8  A    between atoms: C_29  and  C_30
REMARK                            x       y       z     vdW  Elec       q    Type
REMARK                         _______ _______ _______ _____ _____    ______ ____
ROOT
ATOM      1  C   UNL     1      -5.975  -1.120 125.098  0.00  0.00    +0.000 C 
ATOM      2  C   UNL     1      -5.620  -1.909 126.222  0.00  0.00    +0.000 C 
ATOM      3  C   UNL     1      -7.034  -1.406 126.173  0.00  0.00    +0.000 C 
ATOM      4  C   UNL     1      -7.758  -0.777 124.337  0.00  0.00    +0.000 C 
ATOM      5  C   UNL     1      -7.659  -1.996 124.905  0.00  0.00    +0.000 C 
ATOM      6  C   UNL     1      -7.538  -3.331 124.269  0.00  0.00    +0.000 C 
ATOM      7  C   UNL     1      -9.125  -1.319 125.874  0.00  0.00    +0.000 C 
ATOM      8  C   UNL     1      -8.950   0.373 126.146  0.00  0.00    +0.000 C 
ATOM      9  C   UNL     1      -7.499   1.011 126.626  0.00  0.00    +0.000 C 
ATOM     10  C   UNL     1      -6.209   0.629 125.565  0.00  0.00    +0.000 C 
ATOM     11  C   UNL     1      -4.895   1.068 126.157  0.00  0.00    +0.000 C 
ATOM     12  C   UNL     1      -4.926   2.519 126.591  0.00  0.00    +0.000 C 
ATOM     13  C   UNL     1      -3.579   2.804 127.220  0.00  0.00    +0.000 C 
ATOM     14  C   UNL     1      -6.070   2.933 127.495  0.00  0.00    +0.000 C 
ATOM     15  C   UNL     1      -5.945   3.720 128.584  0.00  0.00    +0.000 C 
ATOM     16  C   UNL     1      -7.236   4.119 129.190  0.00  0.00    +0.000 C 
ATOM     17  O   UNL     1      -7.780   5.211 129.136  0.00  0.00    +0.000 OA
ATOM     18  C   UNL     1      -7.931   2.934 129.800  0.00  0.00    +0.000 C 
ATOM     19  C   UNL     1      -8.313   2.534 128.555  0.00  0.00    +0.000 C 
ATOM     20  C   UNL     1      -7.490   2.487 127.131  0.00  0.00    +0.000 C 
ATOM     21  C   UNL     1      -7.878   3.315 125.897  0.00  0.00    +0.000 C 
ENDROOT
BRANCH   4  22
ATOM     22  O   UNL     1      -6.855  -0.778 123.137  0.00  0.00    +0.000 OA
ATOM     23  H   UNL     1      -6.463  -1.638 122.938  0.00  0.00    +0.000 HD
ENDBRANCH   4  22
BRANCH   4  24
ATOM     24  C   UNL     1      -9.216  -1.172 123.269  0.00  0.00    +0.000 C 
ATOM     25  O   UNL     1      -9.720  -2.307 123.191  0.00  0.00    +0.000 OA
BRANCH  24  26
ATOM     26  C   UNL     1      -9.900  -0.159 122.222  0.00  0.00    +0.000 C 
BRANCH  26  27
ATOM     27  O   UNL     1     -11.144   0.397 122.737  0.00  0.00    +0.000 OA
ATOM     28  H   UNL     1     -11.443  -0.160 123.484  0.00  0.00    +0.000 HD
ENDBRANCH  26  27
ENDBRANCH  24  26
ENDBRANCH   4  24
BRANCH   8  29
ATOM     29  O   UNL     1      -9.378   1.008 124.922  0.00  0.00    +0.000 OA
ATOM     30  H   UNL     1     -10.217   1.485 125.055  0.00  0.00    +0.000 HD
ENDBRANCH   8  29
TORSDOF 5
ENDMDL
MODEL 6
REMARK VINA RESULT:      -7.9      6.283      8.335
REMARK  Name = Methylprednisolone
REMARK  8 active torsions:
REMARK  status: ('A' for Active; 'I' for Inactive)
REMARK    1  A    between atoms: C_5  and  O_6
REMARK    2  A    between atoms: C_5  and  C_7
REMARK    3  A    between atoms: C_7  and  C_9
REMARK    4  A    between atoms: C_9  and  O_10
REMARK    5  A    between atoms: C_11  and  C_12
REMARK    6  A    between atoms: C_14  and  O_15
REMARK    7  A    between atoms: C_21  and  C_22
REMARK    8  A    between atoms: C_29  and  C_30
REMARK                            x       y       z     vdW  Elec       q    Type
REMARK                         _______ _______ _______ _____ _____    ______ ____
ROOT
ATOM      1  C   UNL     1      -7.733   3.689 129.371  0.00  0.00    +0.000 C 
ATOM      2  C   UNL     1      -7.463   2.445 129.996  0.00  0.00    +0.000 C 
ATOM      3  C   UNL     1      -7.635   3.631 130.903  0.00  0.00    +0.000 C 
ATOM      4  C   UNL     1      -8.587   5.296 130.122  0.00  0.00    +0.000 C 
ATOM      5  C   UNL     1      -9.054   4.153 130.666  0.00  0.00    +0.000 C 
ATOM      6  C   UNL     1     -10.344   3.455 130.441  0.00  0.00    +0.000 C 
ATOM      7  C   UNL     1      -8.488   5.037 132.231  0.00  0.00    +0.000 C 
ATOM      8  C   UNL     1      -7.072   5.969 131.929  0.00  0.00    +0.000 C 
ATOM      9  C   UNL     1      -5.820   5.349 131.039  0.00  0.00    +0.000 C 
ATOM     10  C   UNL     1      -6.297   4.811 129.484  0.00  0.00    +0.000 C 
ATOM     11  C   UNL     1      -5.164   4.086 128.809  0.00  0.00    +0.000 C 
ATOM     12  C   UNL     1      -3.887   4.902 128.812  0.00  0.00    +0.000 C 
ATOM     13  C   UNL     1      -2.826   4.034 128.169  0.00  0.00    +0.000 C 
ATOM     14  C   UNL     1      -3.434   5.446 130.152  0.00  0.00    +0.000 C 
ATOM     15  C   UNL     1      -2.161   5.426 130.600  0.00  0.00    +0.000 C 
ATOM     16  C   UNL     1      -1.954   6.179 131.860  0.00  0.00    +0.000 C 
ATOM     17  O   UNL     1      -1.413   7.264 132.000  0.00  0.00    +0.000 OA
ATOM     18  C   UNL     1      -2.649   5.503 133.008  0.00  0.00    +0.000 C 
ATOM     19  C   UNL     1      -3.837   6.004 132.569  0.00  0.00    +0.000 C 
ATOM     20  C   UNL     1      -4.468   6.128 131.055  0.00  0.00    +0.000 C 
ATOM     21  C   UNL     1      -4.791   7.466 130.374  0.00  0.00    +0.000 C 
ENDROOT
BRANCH   4  22
ATOM     22  O   UNL     1      -9.019   5.304 128.683  0.00  0.00    +0.000 OA
ATOM     23  H   UNL     1      -9.907   5.658 128.539  0.00  0.00    +0.000 HD
ENDBRANCH   4  22
BRANCH   4  24
ATOM     24  C   UNL     1     -10.037   6.347 130.587  0.00  0.00    +0.000 C 
ATOM     25  O   UNL     1     -10.454   7.286 129.886  0.00  0.00    +0.000 OA
BRANCH  24  26
ATOM     26  C   UNL     1     -10.821   6.276 131.991  0.00  0.00    +0.000 C 
BRANCH  26  27
ATOM     27  O   UNL     1     -12.262   6.172 131.803  0.00  0.00    +0.000 OA
ATOM     28  H   UNL     1     -12.448   6.181 130.842  0.00  0.00    +0.000 HD
ENDBRANCH  26  27
ENDBRANCH  24  26
ENDBRANCH   4  24
BRANCH   8  29
ATOM     29  O   UNL     1      -7.537   7.194 131.323  0.00  0.00    +0.000 OA
ATOM     30  H   UNL     1      -8.156   7.660 131.916  0.00  0.00    +0.000 HD
ENDBRANCH   8  29
TORSDOF 5
ENDMDL
MODEL 7
REMARK VINA RESULT:      -7.8      2.061      6.728
REMARK  Name = Methylprednisolone
REMARK  8 active torsions:
REMARK  status: ('A' for Active; 'I' for Inactive)
REMARK    1  A    between atoms: C_5  and  O_6
REMARK    2  A    between atoms: C_5  and  C_7
REMARK    3  A    between atoms: C_7  and  C_9
REMARK    4  A    between atoms: C_9  and  O_10
REMARK    5  A    between atoms: C_11  and  C_12
REMARK    6  A    between atoms: C_14  and  O_15
REMARK    7  A    between atoms: C_21  and  C_22
REMARK    8  A    between atoms: C_29  and  C_30
REMARK                            x       y       z     vdW  Elec       q    Type
REMARK                         _______ _______ _______ _____ _____    ______ ____
ROOT
ATOM      1  C   UNL     1      -6.100   0.947 128.561  0.00  0.00    +0.000 C 
ATOM      2  C   UNL     1      -4.859   0.273 128.441  0.00  0.00    +0.000 C 
ATOM      3  C   UNL     1      -5.390   0.929 127.199  0.00  0.00    +0.000 C 
ATOM      4  C   UNL     1      -6.846   2.383 127.440  0.00  0.00    +0.000 C 
ATOM      5  C   UNL     1      -5.500   2.424 127.514  0.00  0.00    +0.000 C 
ATOM      6  C   UNL     1      -4.621   3.344 128.276  0.00  0.00    +0.000 C 
ATOM      7  C   UNL     1      -5.707   2.325 125.644  0.00  0.00    +0.000 C 
ATOM      8  C   UNL     1      -7.058   1.342 125.229  0.00  0.00    +0.000 C 
ATOM      9  C   UNL     1      -7.325  -0.103 125.992  0.00  0.00    +0.000 C 
ATOM     10  C   UNL     1      -7.430   0.042 127.697  0.00  0.00    +0.000 C 
ATOM     11  C   UNL     1      -7.474  -1.320 128.337  0.00  0.00    +0.000 C 
ATOM     12  C   UNL     1      -8.548  -2.198 127.728  0.00  0.00    +0.000 C 
ATOM     13  C   UNL     1      -8.437  -3.543 128.413  0.00  0.00    +0.000 C 
ATOM     14  C   UNL     1      -8.538  -2.332 126.218  0.00  0.00    +0.000 C 
ATOM     15  C   UNL     1      -8.709  -3.490 125.547  0.00  0.00    +0.000 C 
ATOM     16  C   UNL     1      -8.834  -3.323 124.080  0.00  0.00    +0.000 C 
ATOM     17  O   UNL     1      -9.847  -3.412 123.403  0.00  0.00    +0.000 OA
ATOM     18  C   UNL     1      -7.536  -2.860 123.481  0.00  0.00    +0.000 C 
ATOM     19  C   UNL     1      -7.791  -1.601 123.933  0.00  0.00    +0.000 C 
ATOM     20  C   UNL     1      -8.385  -1.065 125.370  0.00  0.00    +0.000 C 
ATOM     21  C   UNL     1      -9.714  -0.310 125.513  0.00  0.00    +0.000 C 
ENDROOT
BRANCH   4  22
ATOM     22  O   UNL     1      -7.371   2.697 128.812  0.00  0.00    +0.000 OA
ATOM     23  H   UNL     1      -8.231   2.301 129.005  0.00  0.00    +0.000 HD
ENDBRANCH   4  22
BRANCH   4  24
ATOM     24  C   UNL     1      -7.072   4.145 126.925  0.00  0.00    +0.000 C 
ATOM     25  O   UNL     1      -8.087   4.813 127.196  0.00  0.00    +0.000 OA
BRANCH  24  26
ATOM     26  C   UNL     1      -6.079   4.963 125.958  0.00  0.00    +0.000 C 
BRANCH  26  27
ATOM     27  O   UNL     1      -6.809   5.771 124.989  0.00  0.00    +0.000 OA
ATOM     28  H   UNL     1      -6.159   6.277 124.460  0.00  0.00    +0.000 HD
ENDBRANCH  26  27
ENDBRANCH  24  26
ENDBRANCH   4  24
BRANCH   8  29
ATOM     29  O   UNL     1      -8.216   2.192 125.381  0.00  0.00    +0.000 OA
ATOM     30  H   UNL     1      -8.271   2.543 126.289  0.00  0.00    +0.000 HD
ENDBRANCH   8  29
TORSDOF 5
ENDMDL
MODEL 8
REMARK VINA RESULT:      -7.8      3.071      5.622
REMARK  Name = Methylprednisolone
REMARK  8 active torsions:
REMARK  status: ('A' for Active; 'I' for Inactive)
REMARK    1  A    between atoms: C_5  and  O_6
REMARK    2  A    between atoms: C_5  and  C_7
REMARK    3  A    between atoms: C_7  and  C_9
REMARK    4  A    between atoms: C_9  and  O_10
REMARK    5  A    between atoms: C_11  and  C_12
REMARK    6  A    between atoms: C_14  and  O_15
REMARK    7  A    between atoms: C_21  and  C_22
REMARK    8  A    between atoms: C_29  and  C_30
REMARK                            x       y       z     vdW  Elec       q    Type
REMARK                         _______ _______ _______ _____ _____    ______ ____
ROOT
ATOM      1  C   UNL     1      -7.876  -1.932 125.237  0.00  0.00    +0.000 C 
ATOM      2  C   UNL     1      -9.047  -2.650 125.590  0.00  0.00    +0.000 C 
ATOM      3  C   UNL     1      -9.105  -1.156 125.736  0.00  0.00    +0.000 C 
ATOM      4  C   UNL     1      -7.690  -0.044 124.711  0.00  0.00    +0.000 C 
ATOM      5  C   UNL     1      -8.872  -0.576 124.338  0.00  0.00    +0.000 C 
ATOM      6  C   UNL     1      -9.337  -1.004 122.997  0.00  0.00    +0.000 C 
ATOM      7  C   UNL     1      -9.493   0.886 125.352  0.00  0.00    +0.000 C 
ATOM      8  C   UNL     1      -8.451   1.189 126.689  0.00  0.00    +0.000 C 
ATOM      9  C   UNL     1      -7.879  -0.056 127.621  0.00  0.00    +0.000 C 
ATOM     10  C   UNL     1      -7.049  -1.251 126.716  0.00  0.00    +0.000 C 
ATOM     11  C   UNL     1      -6.730  -2.439 127.584  0.00  0.00    +0.000 C 
ATOM     12  C   UNL     1      -6.024  -2.034 128.862  0.00  0.00    +0.000 C 
ATOM     13  C   UNL     1      -5.826  -3.306 129.659  0.00  0.00    +0.000 C 
ATOM     14  C   UNL     1      -6.684  -0.948 129.686  0.00  0.00    +0.000 C 
ATOM     15  C   UNL     1      -6.818  -0.974 131.029  0.00  0.00    +0.000 C 
ATOM     16  C   UNL     1      -7.338   0.286 131.608  0.00  0.00    +0.000 C 
ATOM     17  O   UNL     1      -6.717   1.133 132.231  0.00  0.00    +0.000 OA
ATOM     18  C   UNL     1      -8.769   0.510 131.205  0.00  0.00    +0.000 C 
ATOM     19  C   UNL     1      -8.345   0.915 129.975  0.00  0.00    +0.000 C 
ATOM     20  C   UNL     1      -7.191   0.310 128.972  0.00  0.00    +0.000 C 
ATOM     21  C   UNL     1      -5.930   1.085 128.560  0.00  0.00    +0.000 C 
ENDROOT
BRANCH   4  22
ATOM     22  O   UNL     1      -6.625  -0.741 123.913  0.00  0.00    +0.000 OA
ATOM     23  H   UNL     1      -5.907  -0.163 123.623  0.00  0.00    +0.000 HD
ENDBRANCH   4  22
BRANCH   4  24
ATOM     24  C   UNL     1      -7.711   1.357 123.503  0.00  0.00    +0.000 C 
ATOM     25  O   UNL     1      -6.687   1.804 122.956  0.00  0.00    +0.000 OA
BRANCH  24  26
ATOM     26  C   UNL     1      -9.001   2.246 123.136  0.00  0.00    +0.000 C 
BRANCH  26  27
ATOM     27  O   UNL     1      -8.629   3.536 122.570  0.00  0.00    +0.000 OA
ATOM     28  H   UNL     1      -8.897   4.236 123.199  0.00  0.00    +0.000 HD
ENDBRANCH  26  27
ENDBRANCH  24  26
ENDBRANCH   4  24
BRANCH   8  29
ATOM     29  O   UNL     1      -7.343   1.943 126.154  0.00  0.00    +0.000 OA
ATOM     30  H   UNL     1      -7.008   1.532 125.335  0.00  0.00    +0.000 HD
ENDBRANCH   8  29
TORSDOF 5
ENDMDL
MODEL 9
REMARK VINA RESULT:      -7.8      4.083      6.926
REMARK  Name = Methylprednisolone
REMARK  8 active torsions:
REMARK  status: ('A' for Active; 'I' for Inactive)
REMARK    1  A    between atoms: C_5  and  O_6
REMARK    2  A    between atoms: C_5  and  C_7
REMARK    3  A    between atoms: C_7  and  C_9
REMARK    4  A    between atoms: C_9  and  O_10
REMARK    5  A    between atoms: C_11  and  C_12
REMARK    6  A    between atoms: C_14  and  O_15
REMARK    7  A    between atoms: C_21  and  C_22
REMARK    8  A    between atoms: C_29  and  C_30
REMARK                            x       y       z     vdW  Elec       q    Type
REMARK                         _______ _______ _______ _____ _____    ______ ____
ROOT
ATOM      1  C   UNL     1      -6.953  -0.300 131.233  0.00  0.00    +0.000 C 
ATOM      2  C   UNL     1      -8.277  -0.470 131.713  0.00  0.00    +0.000 C 
ATOM      3  C   UNL     1      -7.583  -1.701 131.203  0.00  0.00    +0.000 C 
ATOM      4  C   UNL     1      -5.518  -1.634 131.049  0.00  0.00    +0.000 C 
ATOM      5  C   UNL     1      -6.345  -1.895 132.083  0.00  0.00    +0.000 C 
ATOM      6  C   UNL     1      -6.125  -1.718 133.539  0.00  0.00    +0.000 C 
ATOM      7  C   UNL     1      -6.504  -3.518 131.138  0.00  0.00    +0.000 C 
ATOM      8  C   UNL     1      -6.426  -3.247 129.440  0.00  0.00    +0.000 C 
ATOM      9  C   UNL     1      -7.260  -1.999 128.739  0.00  0.00    +0.000 C 
ATOM     10  C   UNL     1      -6.883  -0.470 129.416  0.00  0.00    +0.000 C 
ATOM     11  C   UNL     1      -7.811   0.586 128.875  0.00  0.00    +0.000 C 
ATOM     12  C   UNL     1      -7.855   0.578 127.361  0.00  0.00    +0.000 C 
ATOM     13  C   UNL     1      -8.864   1.634 126.960  0.00  0.00    +0.000 C 
ATOM     14  C   UNL     1      -8.139  -0.754 126.697  0.00  0.00    +0.000 C 
ATOM     15  C   UNL     1      -8.983  -0.933 125.659  0.00  0.00    +0.000 C 
ATOM     16  C   UNL     1      -8.947  -2.297 125.082  0.00  0.00    +0.000 C 
ATOM     17  O   UNL     1      -8.442  -2.648 124.027  0.00  0.00    +0.000 OA
ATOM     18  C   UNL     1      -9.502  -3.303 126.051  0.00  0.00    +0.000 C 
ATOM     19  C   UNL     1      -8.333  -3.259 126.748  0.00  0.00    +0.000 C 
ATOM     20  C   UNL     1      -7.378  -1.992 127.183  0.00  0.00    +0.000 C 
ATOM     21  C   UNL     1      -5.934  -1.807 126.692  0.00  0.00    +0.000 C 
ENDROOT
BRANCH   4  22
ATOM     22  O   UNL     1      -4.783  -0.368 131.384  0.00  0.00    +0.000 OA
ATOM     23  H   UNL     1      -5.358   0.367 131.638  0.00  0.00    +0.000 HD
ENDBRANCH   4  22
BRANCH   4  24
ATOM     24  C   UNL     1      -4.099  -2.648 131.666  0.00  0.00    +0.000 C 
ATOM     25  O   UNL     1      -2.908  -2.372 131.435  0.00  0.00    +0.000 OA
BRANCH  24  26
ATOM     26  C   UNL     1      -4.231  -4.060 132.429  0.00  0.00    +0.000 C 
BRANCH  26  27
ATOM     27  O   UNL     1      -2.937  -4.554 132.882  0.00  0.00    +0.000 OA
ATOM     28  H   UNL     1      -2.578  -3.921 133.536  0.00  0.00    +0.000 HD
ENDBRANCH  26  27
ENDBRANCH  24  26
ENDBRANCH   4  24
BRANCH   8  29
ATOM     29  O   UNL     1      -5.021  -3.126 129.131  0.00  0.00    +0.000 OA
ATOM     30  H   UNL     1      -4.716  -2.209 129.260  0.00  0.00    +0.000 HD
ENDBRANCH   8  29
TORSDOF 5
ENDMDL
