MODEL 1
REMARK VINA RESULT:      -7.7      0.000      0.000
REMARK  Name = Methscopolamine
REMARK  8 active torsions:
REMARK  status: ('A' for Active; 'I' for Inactive)
REMARK    1  A    between atoms: C_1  and  N_2
REMARK    2  A    between atoms: N_2  and  C_3
REMARK    3  A    between atoms: C_6  and  O_12
REMARK    4  A    between atoms: O_12  and  C_13
REMARK    5  A    between atoms: C_13  and  C_15
REMARK    6  A    between atoms: C_15  and  C_16
REMARK    7  A    between atoms: C_15  and  C_18
REMARK    8  A    between atoms: C_16  and  O_17
REMARK                            x       y       z     vdW  Elec       q    Type
REMARK                         _______ _______ _______ _____ _____    ______ ____
ROOT
ATOM      1  O   UNL     1      -8.189   1.446 123.173  0.00  0.00    +0.000 OA
ENDROOT
BRANCH   1   7
ATOM      2  C   UNL     1      -9.300  -2.841 123.193  0.00  0.00    +0.000 C 
ATOM      3  N   UNL     1      -8.296  -2.631 124.293  0.00  0.00    +0.000 N 
ATOM      4  C   UNL     1      -8.069  -4.017 124.959  0.00  0.00    +0.000 C 
ATOM      5  C   UNL     1      -8.681  -1.606 125.385  0.00  0.00    +0.000 C 
ATOM      6  C   UNL     1      -9.017  -0.247 124.736  0.00  0.00    +0.000 C 
ATOM      7  C   UNL     1      -7.831   0.306 123.967  0.00  0.00    +0.000 C 
ATOM      8  C   UNL     1      -7.123  -0.756 123.114  0.00  0.00    +0.000 C 
ATOM      9  C   UNL     1      -6.921  -2.071 123.880  0.00  0.00    +0.000 C 
ATOM     10  C   UNL     1      -6.232  -1.886 125.234  0.00  0.00    +0.000 C 
ATOM     11  O   UNL     1      -6.361  -0.686 125.961  0.00  0.00    +0.000 OA
ATOM     12  C   UNL     1      -7.415  -1.577 126.246  0.00  0.00    +0.000 C 
ENDBRANCH   1   7
BRANCH   1  13
ATOM     13  C   UNL     1      -7.769   2.733 123.416  0.00  0.00    +0.000 C 
ATOM     14  O   UNL     1      -8.517   3.478 124.017  0.00  0.00    +0.000 OA
BRANCH  13  15
ATOM     15  C   UNL     1      -6.359   3.155 122.957  0.00  0.00    +0.000 C 
BRANCH  15  16
ATOM     16  C   UNL     1      -6.256   3.751 121.553  0.00  0.00    +0.000 A 
ATOM     17  C   UNL     1      -5.123   4.442 121.095  0.00  0.00    +0.000 A 
ATOM     18  C   UNL     1      -5.179   5.221 119.943  0.00  0.00    +0.000 A 
ATOM     19  C   UNL     1      -6.271   5.104 119.096  0.00  0.00    +0.000 A 
ATOM     20  C   UNL     1      -7.358   4.320 119.469  0.00  0.00    +0.000 A 
ATOM     21  C   UNL     1      -7.381   3.718 120.720  0.00  0.00    +0.000 A 
ENDBRANCH  15  16
BRANCH  15  22
ATOM     22  C   UNL     1      -5.660   4.024 124.038  0.00  0.00    +0.000 C 
BRANCH  22  23
ATOM     23  O   UNL     1      -6.263   5.289 124.306  0.00  0.00    +0.000 OA
ATOM     24  H   UNL     1      -6.637   5.271 125.206  0.00  0.00    +0.000 HD
ENDBRANCH  22  23
ENDBRANCH  15  22
ENDBRANCH  13  15
ENDBRANCH   1  13
TORSDOF 6
ENDMDL
MODEL 2
REMARK VINA RESULT:      -7.5      1.250      2.105
REMARK  Name = Methscopolamine
REMARK  8 active torsions:
REMARK  status: ('A' for Active; 'I' for Inactive)
REMARK    1  A    between atoms: C_1  and  N_2
REMARK    2  A    between atoms: N_2  and  C_3
REMARK    3  A    between atoms: C_6  and  O_12
REMARK    4  A    between atoms: O_12  and  C_13
REMARK    5  A    between atoms: C_13  and  C_15
REMARK    6  A    between atoms: C_15  and  C_16
REMARK    7  A    between atoms: C_15  and  C_18
REMARK    8  A    between atoms: C_16  and  O_17
REMARK                            x       y       z     vdW  Elec       q    Type
REMARK                         _______ _______ _______ _____ _____    ______ ____
ROOT
ATOM      1  O   UNL     1      -8.643   1.881 123.387  0.00  0.00    +0.000 OA
ENDROOT
BRANCH   1   7
ATOM      2  C   UNL     1      -5.507   0.086 125.947  0.00  0.00    +0.000 C 
ATOM      3  N   UNL     1      -6.582  -0.949 125.760  0.00  0.00    +0.000 N 
ATOM      4  C   UNL     1      -6.135  -2.204 126.560  0.00  0.00    +0.000 C 
ATOM      5  C   UNL     1      -6.887  -1.364 124.302  0.00  0.00    +0.000 C 
ATOM      6  C   UNL     1      -7.229  -0.116 123.460  0.00  0.00    +0.000 C 
ATOM      7  C   UNL     1      -8.446   0.605 124.011  0.00  0.00    +0.000 C 
ATOM      8  C   UNL     1      -8.422   0.739 125.540  0.00  0.00    +0.000 C 
ATOM      9  C   UNL     1      -8.000  -0.568 126.227  0.00  0.00    +0.000 C 
ATOM     10  C   UNL     1      -8.820  -1.781 125.782  0.00  0.00    +0.000 C 
ATOM     11  O   UNL     1      -9.396  -1.842 124.498  0.00  0.00    +0.000 OA
ATOM     12  C   UNL     1      -8.070  -2.318 124.491  0.00  0.00    +0.000 C 
ENDBRANCH   1   7
BRANCH   1  13
ATOM     13  C   UNL     1      -7.981   3.035 123.737  0.00  0.00    +0.000 C 
ATOM     14  O   UNL     1      -8.540   3.815 124.481  0.00  0.00    +0.000 OA
BRANCH  13  15
ATOM     15  C   UNL     1      -6.552   3.262 123.207  0.00  0.00    +0.000 C 
BRANCH  15  16
ATOM     16  C   UNL     1      -6.434   3.738 121.759  0.00  0.00    +0.000 A 
ATOM     17  C   UNL     1      -5.275   4.336 121.239  0.00  0.00    +0.000 A 
ATOM     18  C   UNL     1      -5.307   5.021 120.028  0.00  0.00    +0.000 A 
ATOM     19  C   UNL     1      -6.412   4.889 119.201  0.00  0.00    +0.000 A 
ATOM     20  C   UNL     1      -7.530   4.189 119.643  0.00  0.00    +0.000 A 
ATOM     21  C   UNL     1      -7.569   3.691 120.938  0.00  0.00    +0.000 A 
ENDBRANCH  15  16
BRANCH  15  22
ATOM     22  C   UNL     1      -5.723   4.125 124.198  0.00  0.00    +0.000 C 
BRANCH  22  23
ATOM     23  O   UNL     1      -6.265   5.407 124.512  0.00  0.00    +0.000 OA
ATOM     24  H   UNL     1      -5.735   5.803 125.227  0.00  0.00    +0.000 HD
ENDBRANCH  22  23
ENDBRANCH  15  22
ENDBRANCH  13  15
ENDBRANCH   1  13
TORSDOF 6
ENDMDL
MODEL 3
REMARK VINA RESULT:      -7.4      8.662     10.284
REMARK  Name = Methscopolamine
REMARK  8 active torsions:
REMARK  status: ('A' for Active; 'I' for Inactive)
REMARK    1  A    between atoms: C_1  and  N_2
REMARK    2  A    between atoms: N_2  and  C_3
REMARK    3  A    between atoms: C_6  and  O_12
REMARK    4  A    between atoms: O_12  and  C_13
REMARK    5  A    between atoms: C_13  and  C_15
REMARK    6  A    between atoms: C_15  and  C_16
REMARK    7  A    between atoms: C_15  and  C_18
REMARK    8  A    between atoms: C_16  and  O_17
REMARK                            x       y       z     vdW  Elec       q    Type
REMARK                         _______ _______ _______ _____ _____    ______ ____
ROOT
ATOM      1  O   UNL     1     -10.402   5.893 129.110  0.00  0.00    +0.000 OA
ENDROOT
BRANCH   1   7
ATOM      2  C   UNL     1      -9.294   4.319 133.098  0.00  0.00    +0.000 C 
ATOM      3  N   UNL     1      -8.034   4.819 132.446  0.00  0.00    +0.000 N 
ATOM      4  C   UNL     1      -6.878   4.556 133.450  0.00  0.00    +0.000 C 
ATOM      5  C   UNL     1      -8.019   6.312 132.042  0.00  0.00    +0.000 C 
ATOM      6  C   UNL     1      -9.223   6.623 131.128  0.00  0.00    +0.000 C 
ATOM      7  C   UNL     1      -9.184   5.789 129.860  0.00  0.00    +0.000 C 
ATOM      8  C   UNL     1      -8.823   4.320 130.120  0.00  0.00    +0.000 C 
ATOM      9  C   UNL     1      -7.649   4.178 131.099  0.00  0.00    +0.000 C 
ATOM     10  C   UNL     1      -6.420   4.996 130.695  0.00  0.00    +0.000 C 
ATOM     11  O   UNL     1      -6.546   6.185 129.950  0.00  0.00    +0.000 OA
ATOM     12  C   UNL     1      -6.667   6.428 131.332  0.00  0.00    +0.000 C 
ENDBRANCH   1   7
BRANCH   1  13
ATOM     13  C   UNL     1     -10.871   7.050 128.533  0.00  0.00    +0.000 C 
ATOM     14  O   UNL     1     -10.063   7.857 128.121  0.00  0.00    +0.000 OA
BRANCH  13  15
ATOM     15  C   UNL     1     -12.394   7.248 128.396  0.00  0.00    +0.000 C 
BRANCH  15  16
ATOM     16  C   UNL     1     -12.966   8.532 128.998  0.00  0.00    +0.000 A 
ATOM     17  C   UNL     1     -13.652   9.495 128.240  0.00  0.00    +0.000 A 
ATOM     18  C   UNL     1     -13.887  10.768 128.750  0.00  0.00    +0.000 A 
ATOM     19  C   UNL     1     -13.687  11.008 130.101  0.00  0.00    +0.000 A 
ATOM     20  C   UNL     1     -13.126  10.021 130.905  0.00  0.00    +0.000 A 
ATOM     21  C   UNL     1     -12.697   8.827 130.340  0.00  0.00    +0.000 A 
ENDBRANCH  15  16
BRANCH  15  22
ATOM     22  C   UNL     1     -12.856   7.006 126.932  0.00  0.00    +0.000 C 
BRANCH  22  23
ATOM     23  O   UNL     1     -11.817   6.759 125.985  0.00  0.00    +0.000 OA
ATOM     24  H   UNL     1     -11.729   7.541 125.410  0.00  0.00    +0.000 HD
ENDBRANCH  22  23
ENDBRANCH  15  22
ENDBRANCH  13  15
ENDBRANCH   1  13
TORSDOF 6
ENDMDL
MODEL 4
REMARK VINA RESULT:      -7.4      1.258      1.823
REMARK  Name = Methscopolamine
REMARK  8 active torsions:
REMARK  status: ('A' for Active; 'I' for Inactive)
REMARK    1  A    between atoms: C_1  and  N_2
REMARK    2  A    between atoms: N_2  and  C_3
REMARK    3  A    between atoms: C_6  and  O_12
REMARK    4  A    between atoms: O_12  and  C_13
REMARK    5  A    between atoms: C_13  and  C_15
REMARK    6  A    between atoms: C_15  and  C_16
REMARK    7  A    between atoms: C_15  and  C_18
REMARK    8  A    between atoms: C_16  and  O_17
REMARK                            x       y       z     vdW  Elec       q    Type
REMARK                         _______ _______ _______ _____ _____    ______ ____
ROOT
ATOM      1  O   UNL     1      -8.409   1.781 125.138  0.00  0.00    +0.000 OA
ENDROOT
BRANCH   1   7
ATOM      2  C   UNL     1      -9.211  -2.468 126.091  0.00  0.00    +0.000 C 
ATOM      3  N   UNL     1      -8.258  -2.440 124.929  0.00  0.00    +0.000 N 
ATOM      4  C   UNL     1      -7.972  -3.920 124.551  0.00  0.00    +0.000 C 
ATOM      5  C   UNL     1      -6.913  -1.713 125.164  0.00  0.00    +0.000 C 
ATOM      6  C   UNL     1      -7.172  -0.270 125.645  0.00  0.00    +0.000 C 
ATOM      7  C   UNL     1      -7.964   0.521 124.619  0.00  0.00    +0.000 C 
ATOM      8  C   UNL     1      -9.136  -0.273 124.025  0.00  0.00    +0.000 C 
ATOM      9  C   UNL     1      -8.733  -1.709 123.659  0.00  0.00    +0.000 C 
ATOM     10  C   UNL     1      -7.494  -1.782 122.764  0.00  0.00    +0.000 C 
ATOM     11  O   UNL     1      -6.499  -0.787 122.812  0.00  0.00    +0.000 OA
ATOM     12  C   UNL     1      -6.271  -1.789 123.775  0.00  0.00    +0.000 C 
ENDBRANCH   1   7
BRANCH   1  13
ATOM     13  C   UNL     1      -8.050   3.008 124.632  0.00  0.00    +0.000 C 
ATOM     14  O   UNL     1      -8.685   3.983 124.982  0.00  0.00    +0.000 OA
BRANCH  13  15
ATOM     15  C   UNL     1      -6.837   3.097 123.685  0.00  0.00    +0.000 C 
BRANCH  15  16
ATOM     16  C   UNL     1      -7.146   3.369 122.213  0.00  0.00    +0.000 A 
ATOM     17  C   UNL     1      -6.162   3.711 121.272  0.00  0.00    +0.000 A 
ATOM     18  C   UNL     1      -6.511   4.240 120.034  0.00  0.00    +0.000 A 
ATOM     19  C   UNL     1      -7.833   4.181 119.617  0.00  0.00    +0.000 A 
ATOM     20  C   UNL     1      -8.815   3.723 120.489  0.00  0.00    +0.000 A 
ATOM     21  C   UNL     1      -8.484   3.399 121.798  0.00  0.00    +0.000 A 
ENDBRANCH  15  16
BRANCH  15  22
ATOM     22  C   UNL     1      -5.750   4.046 124.262  0.00  0.00    +0.000 C 
BRANCH  22  23
ATOM     23  O   UNL     1      -5.911   4.418 125.630  0.00  0.00    +0.000 OA
ATOM     24  H   UNL     1      -5.939   3.608 126.172  0.00  0.00    +0.000 HD
ENDBRANCH  22  23
ENDBRANCH  15  22
ENDBRANCH  13  15
ENDBRANCH   1  13
TORSDOF 6
ENDMDL
MODEL 5
REMARK VINA RESULT:      -7.1      1.357      2.163
REMARK  Name = Methscopolamine
REMARK  8 active torsions:
REMARK  status: ('A' for Active; 'I' for Inactive)
REMARK    1  A    between atoms: C_1  and  N_2
REMARK    2  A    between atoms: N_2  and  C_3
REMARK    3  A    between atoms: C_6  and  O_12
REMARK    4  A    between atoms: O_12  and  C_13
REMARK    5  A    between atoms: C_13  and  C_15
REMARK    6  A    between atoms: C_15  and  C_16
REMARK    7  A    between atoms: C_15  and  C_18
REMARK    8  A    between atoms: C_16  and  O_17
REMARK                            x       y       z     vdW  Elec       q    Type
REMARK                         _______ _______ _______ _____ _____    ______ ____
ROOT
ATOM      1  O   UNL     1      -6.070   1.493 125.099  0.00  0.00    +0.000 OA
ENDROOT
BRANCH   1   7
ATOM      2  C   UNL     1      -5.543  -2.871 124.571  0.00  0.00    +0.000 C 
ATOM      3  N   UNL     1      -7.020  -2.602 124.640  0.00  0.00    +0.000 N 
ATOM      4  C   UNL     1      -7.731  -3.978 124.510  0.00  0.00    +0.000 C 
ATOM      5  C   UNL     1      -7.592  -1.638 123.574  0.00  0.00    +0.000 C 
ATOM      6  C   UNL     1      -6.827  -0.298 123.612  0.00  0.00    +0.000 C 
ATOM      7  C   UNL     1      -6.952   0.371 124.969  0.00  0.00    +0.000 C 
ATOM      8  C   UNL     1      -6.771  -0.608 126.138  0.00  0.00    +0.000 C 
ATOM      9  C   UNL     1      -7.542  -1.918 125.919  0.00  0.00    +0.000 C 
ATOM     10  C   UNL     1      -9.020  -1.705 125.588  0.00  0.00    +0.000 C 
ATOM     11  O   UNL     1      -9.462  -0.537 124.935  0.00  0.00    +0.000 OA
ATOM     12  C   UNL     1      -9.054  -1.521 124.012  0.00  0.00    +0.000 C 
ENDBRANCH   1   7
BRANCH   1  13
ATOM     13  C   UNL     1      -6.476   2.804 125.192  0.00  0.00    +0.000 C 
ATOM     14  O   UNL     1      -7.407   3.066 125.927  0.00  0.00    +0.000 OA
BRANCH  13  15
ATOM     15  C   UNL     1      -5.707   3.880 124.400  0.00  0.00    +0.000 C 
BRANCH  15  16
ATOM     16  C   UNL     1      -5.914   3.881 122.885  0.00  0.00    +0.000 A 
ATOM     17  C   UNL     1      -4.968   4.391 121.982  0.00  0.00    +0.000 A 
ATOM     18  C   UNL     1      -5.311   4.650 120.659  0.00  0.00    +0.000 A 
ATOM     19  C   UNL     1      -6.506   4.156 120.157  0.00  0.00    +0.000 A 
ATOM     20  C   UNL     1      -7.410   3.529 121.009  0.00  0.00    +0.000 A 
ATOM     21  C   UNL     1      -7.149   3.466 122.371  0.00  0.00    +0.000 A 
ENDBRANCH  15  16
BRANCH  15  22
ATOM     22  C   UNL     1      -5.899   5.283 125.039  0.00  0.00    +0.000 C 
BRANCH  22  23
ATOM     23  O   UNL     1      -7.234   5.785 125.050  0.00  0.00    +0.000 OA
ATOM     24  H   UNL     1      -7.486   6.021 124.139  0.00  0.00    +0.000 HD
ENDBRANCH  22  23
ENDBRANCH  15  22
ENDBRANCH  13  15
ENDBRANCH   1  13
TORSDOF 6
ENDMDL
MODEL 6
REMARK VINA RESULT:      -7.1      3.157      7.357
REMARK  Name = Methscopolamine
REMARK  8 active torsions:
REMARK  status: ('A' for Active; 'I' for Inactive)
REMARK    1  A    between atoms: C_1  and  N_2
REMARK    2  A    between atoms: N_2  and  C_3
REMARK    3  A    between atoms: C_6  and  O_12
REMARK    4  A    between atoms: O_12  and  C_13
REMARK    5  A    between atoms: C_13  and  C_15
REMARK    6  A    between atoms: C_15  and  C_16
REMARK    7  A    between atoms: C_15  and  C_18
REMARK    8  A    between atoms: C_16  and  O_17
REMARK                            x       y       z     vdW  Elec       q    Type
REMARK                         _______ _______ _______ _____ _____    ______ ____
ROOT
ATOM      1  O   UNL     1      -9.360   0.117 125.477  0.00  0.00    +0.000 OA
ENDROOT
BRANCH   1   7
ATOM      2  C   UNL     1      -5.249   1.364 126.551  0.00  0.00    +0.000 C 
ATOM      3  N   UNL     1      -6.002   2.600 126.145  0.00  0.00    +0.000 N 
ATOM      4  C   UNL     1      -5.007   3.788 126.264  0.00  0.00    +0.000 C 
ATOM      5  C   UNL     1      -7.274   2.927 126.962  0.00  0.00    +0.000 C 
ATOM      6  C   UNL     1      -8.234   1.718 126.948  0.00  0.00    +0.000 C 
ATOM      7  C   UNL     1      -8.658   1.366 125.534  0.00  0.00    +0.000 C 
ATOM      8  C   UNL     1      -7.491   1.385 124.536  0.00  0.00    +0.000 C 
ATOM      9  C   UNL     1      -6.593   2.617 124.721  0.00  0.00    +0.000 C 
ATOM     10  C   UNL     1      -7.364   3.938 124.710  0.00  0.00    +0.000 C 
ATOM     11  O   UNL     1      -8.706   4.005 125.132  0.00  0.00    +0.000 OA
ATOM     12  C   UNL     1      -7.818   4.149 126.216  0.00  0.00    +0.000 C 
ENDBRANCH   1   7
BRANCH   1  13
ATOM     13  C   UNL     1      -9.168  -0.848 124.517  0.00  0.00    +0.000 C 
ATOM     14  O   UNL     1      -9.642  -0.664 123.414  0.00  0.00    +0.000 OA
BRANCH  13  15
ATOM     15  C   UNL     1      -8.326  -2.091 124.869  0.00  0.00    +0.000 C 
BRANCH  15  16
ATOM     16  C   UNL     1      -8.258  -2.464 126.349  0.00  0.00    +0.000 A 
ATOM     17  C   UNL     1      -7.327  -1.907 127.240  0.00  0.00    +0.000 A 
ATOM     18  C   UNL     1      -7.097  -2.482 128.485  0.00  0.00    +0.000 A 
ATOM     19  C   UNL     1      -7.975  -3.445 128.962  0.00  0.00    +0.000 A 
ATOM     20  C   UNL     1      -8.991  -3.924 128.142  0.00  0.00    +0.000 A 
ATOM     21  C   UNL     1      -9.078  -3.496 126.824  0.00  0.00    +0.000 A 
ENDBRANCH  15  16
BRANCH  15  22
ATOM     22  C   UNL     1      -8.702  -3.292 123.957  0.00  0.00    +0.000 C 
BRANCH  22  23
ATOM     23  O   UNL     1     -10.066  -3.356 123.541  0.00  0.00    +0.000 OA
ATOM     24  H   UNL     1     -10.580  -3.811 124.232  0.00  0.00    +0.000 HD
ENDBRANCH  22  23
ENDBRANCH  15  22
ENDBRANCH  13  15
ENDBRANCH   1  13
TORSDOF 6
ENDMDL
MODEL 7
REMARK VINA RESULT:      -6.9      8.277      9.536
REMARK  Name = Methscopolamine
REMARK  8 active torsions:
REMARK  status: ('A' for Active; 'I' for Inactive)
REMARK    1  A    between atoms: C_1  and  N_2
REMARK    2  A    between atoms: N_2  and  C_3
REMARK    3  A    between atoms: C_6  and  O_12
REMARK    4  A    between atoms: O_12  and  C_13
REMARK    5  A    between atoms: C_13  and  C_15
REMARK    6  A    between atoms: C_15  and  C_16
REMARK    7  A    between atoms: C_15  and  C_18
REMARK    8  A    between atoms: C_16  and  O_17
REMARK                            x       y       z     vdW  Elec       q    Type
REMARK                         _______ _______ _______ _____ _____    ______ ____
ROOT
ATOM      1  O   UNL     1     -10.124   4.224 129.986  0.00  0.00    +0.000 OA
ENDROOT
BRANCH   1   7
ATOM      2  C   UNL     1      -8.551   3.826 134.106  0.00  0.00    +0.000 C 
ATOM      3  N   UNL     1      -7.718   2.942 133.219  0.00  0.00    +0.000 N 
ATOM      4  C   UNL     1      -6.668   2.255 134.135  0.00  0.00    +0.000 C 
ATOM      5  C   UNL     1      -6.986   3.640 132.049  0.00  0.00    +0.000 C 
ATOM      6  C   UNL     1      -7.999   4.420 131.184  0.00  0.00    +0.000 C 
ATOM      7  C   UNL     1      -9.052   3.497 130.599  0.00  0.00    +0.000 C 
ATOM      8  C   UNL     1      -9.589   2.480 131.616  0.00  0.00    +0.000 C 
ATOM      9  C   UNL     1      -8.464   1.840 132.442  0.00  0.00    +0.000 C 
ATOM     10  C   UNL     1      -7.347   1.241 131.585  0.00  0.00    +0.000 C 
ATOM     11  O   UNL     1      -7.046   1.760 130.310  0.00  0.00    +0.000 OA
ATOM     12  C   UNL     1      -6.352   2.449 131.324  0.00  0.00    +0.000 C 
ENDBRANCH   1   7
BRANCH   1  13
ATOM     13  C   UNL     1     -10.047   5.532 129.568  0.00  0.00    +0.000 C 
ATOM     14  O   UNL     1      -9.366   5.785 128.595  0.00  0.00    +0.000 OA
BRANCH  13  15
ATOM     15  C   UNL     1     -10.859   6.604 130.322  0.00  0.00    +0.000 C 
BRANCH  15  16
ATOM     16  C   UNL     1     -12.012   7.246 129.550  0.00  0.00    +0.000 A 
ATOM     17  C   UNL     1     -12.940   6.506 128.802  0.00  0.00    +0.000 A 
ATOM     18  C   UNL     1     -13.777   7.132 127.882  0.00  0.00    +0.000 A 
ATOM     19  C   UNL     1     -13.887   8.514 127.895  0.00  0.00    +0.000 A 
ATOM     20  C   UNL     1     -13.065   9.269 128.725  0.00  0.00    +0.000 A 
ATOM     21  C   UNL     1     -12.083   8.644 129.482  0.00  0.00    +0.000 A 
ENDBRANCH  15  16
BRANCH  15  22
ATOM     22  C   UNL     1     -11.280   6.094 131.728  0.00  0.00    +0.000 C 
BRANCH  22  23
ATOM     23  O   UNL     1     -10.474   6.539 132.819  0.00  0.00    +0.000 OA
ATOM     24  H   UNL     1     -10.251   7.477 132.679  0.00  0.00    +0.000 HD
ENDBRANCH  22  23
ENDBRANCH  15  22
ENDBRANCH  13  15
ENDBRANCH   1  13
TORSDOF 6
ENDMDL
MODEL 8
REMARK VINA RESULT:      -6.8      3.413      6.454
REMARK  Name = Methscopolamine
REMARK  8 active torsions:
REMARK  status: ('A' for Active; 'I' for Inactive)
REMARK    1  A    between atoms: C_1  and  N_2
REMARK    2  A    between atoms: N_2  and  C_3
REMARK    3  A    between atoms: C_6  and  O_12
REMARK    4  A    between atoms: O_12  and  C_13
REMARK    5  A    between atoms: C_13  and  C_15
REMARK    6  A    between atoms: C_15  and  C_16
REMARK    7  A    between atoms: C_15  and  C_18
REMARK    8  A    between atoms: C_16  and  O_17
REMARK                            x       y       z     vdW  Elec       q    Type
REMARK                         _______ _______ _______ _____ _____    ______ ____
ROOT
ATOM      1  O   UNL     1      -9.397   2.209 125.090  0.00  0.00    +0.000 OA
ENDROOT
BRANCH   1   7
ATOM      2  C   UNL     1      -7.301   4.132 128.484  0.00  0.00    +0.000 C 
ATOM      3  N   UNL     1      -6.326   4.050 127.342  0.00  0.00    +0.000 N 
ATOM      4  C   UNL     1      -4.993   4.665 127.849  0.00  0.00    +0.000 C 
ATOM      5  C   UNL     1      -6.743   4.762 126.033  0.00  0.00    +0.000 C 
ATOM      6  C   UNL     1      -8.120   4.242 125.567  0.00  0.00    +0.000 C 
ATOM      7  C   UNL     1      -8.086   2.749 125.301  0.00  0.00    +0.000 C 
ATOM      8  C   UNL     1      -7.338   1.964 126.389  0.00  0.00    +0.000 C 
ATOM      9  C   UNL     1      -6.021   2.644 126.789  0.00  0.00    +0.000 C 
ATOM     10  C   UNL     1      -5.113   2.958 125.598  0.00  0.00    +0.000 C 
ATOM     11  O   UNL     1      -5.646   3.207 124.319  0.00  0.00    +0.000 OA
ATOM     12  C   UNL     1      -5.596   4.383 125.093  0.00  0.00    +0.000 C 
ENDBRANCH   1   7
BRANCH   1  13
ATOM     13  C   UNL     1      -9.664   0.899 124.768  0.00  0.00    +0.000 C 
ATOM     14  O   UNL     1     -10.389   0.262 125.505  0.00  0.00    +0.000 OA
BRANCH  13  15
ATOM     15  C   UNL     1      -9.070   0.316 123.471  0.00  0.00    +0.000 C 
BRANCH  15  16
ATOM     16  C   UNL     1      -8.244  -0.961 123.619  0.00  0.00    +0.000 A 
ATOM     17  C   UNL     1      -8.813  -2.244 123.646  0.00  0.00    +0.000 A 
ATOM     18  C   UNL     1      -8.078  -3.343 124.080  0.00  0.00    +0.000 A 
ATOM     19  C   UNL     1      -6.704  -3.224 124.232  0.00  0.00    +0.000 A 
ATOM     20  C   UNL     1      -6.094  -1.983 124.083  0.00  0.00    +0.000 A 
ATOM     21  C   UNL     1      -6.868  -0.852 123.860  0.00  0.00    +0.000 A 
ENDBRANCH  15  16
BRANCH  15  22
ATOM     22  C   UNL     1     -10.154   0.212 122.362  0.00  0.00    +0.000 C 
BRANCH  22  23
ATOM     23  O   UNL     1     -11.476   0.588 122.746  0.00  0.00    +0.000 OA
ATOM     24  H   UNL     1     -11.514   0.642 123.718  0.00  0.00    +0.000 HD
ENDBRANCH  22  23
ENDBRANCH  15  22
ENDBRANCH  13  15
ENDBRANCH   1  13
TORSDOF 6
ENDMDL
MODEL 9
REMARK VINA RESULT:      -6.7      8.539     10.265
REMARK  Name = Methscopolamine
REMARK  8 active torsions:
REMARK  status: ('A' for Active; 'I' for Inactive)
REMARK    1  A    between atoms: C_1  and  N_2
REMARK    2  A    between atoms: N_2  and  C_3
REMARK    3  A    between atoms: C_6  and  O_12
REMARK    4  A    between atoms: O_12  and  C_13
REMARK    5  A    between atoms: C_13  and  C_15
REMARK    6  A    between atoms: C_15  and  C_16
REMARK    7  A    between atoms: C_15  and  C_18
REMARK    8  A    between atoms: C_16  and  O_17
REMARK                            x       y       z     vdW  Elec       q    Type
REMARK                         _______ _______ _______ _____ _____    ______ ____
ROOT
ATOM      1  O   UNL     1      -7.690   5.642 129.601  0.00  0.00    +0.000 OA
ENDROOT
BRANCH   1   7
ATOM      2  C   UNL     1      -3.533   7.164 129.489  0.00  0.00    +0.000 C 
ATOM      3  N   UNL     1      -3.669   6.319 130.725  0.00  0.00    +0.000 N 
ATOM      4  C   UNL     1      -2.292   6.354 131.443  0.00  0.00    +0.000 C 
ATOM      5  C   UNL     1      -4.085   4.845 130.506  0.00  0.00    +0.000 C 
ATOM      6  C   UNL     1      -5.399   4.784 129.699  0.00  0.00    +0.000 C 
ATOM      7  C   UNL     1      -6.528   5.489 130.427  0.00  0.00    +0.000 C 
ATOM      8  C   UNL     1      -6.103   6.836 131.031  0.00  0.00    +0.000 C 
ATOM      9  C   UNL     1      -4.746   6.746 131.742  0.00  0.00    +0.000 C 
ATOM     10  C   UNL     1      -4.675   5.620 132.776  0.00  0.00    +0.000 C 
ATOM     11  O   UNL     1      -5.449   4.452 132.637  0.00  0.00    +0.000 OA
ATOM     12  C   UNL     1      -4.227   4.344 131.946  0.00  0.00    +0.000 C 
ENDBRANCH   1   7
BRANCH   1  13
ATOM     13  C   UNL     1      -8.979   5.390 130.006  0.00  0.00    +0.000 C 
ATOM     14  O   UNL     1      -9.474   4.319 129.719  0.00  0.00    +0.000 OA
BRANCH  13  15
ATOM     15  C   UNL     1      -9.717   6.455 130.841  0.00  0.00    +0.000 C 
BRANCH  15  16
ATOM     16  C   UNL     1     -10.722   7.329 130.089  0.00  0.00    +0.000 A 
ATOM     17  C   UNL     1     -12.061   7.471 130.483  0.00  0.00    +0.000 A 
ATOM     18  C   UNL     1     -13.005   8.019 129.620  0.00  0.00    +0.000 A 
ATOM     19  C   UNL     1     -12.579   8.672 128.473  0.00  0.00    +0.000 A 
ATOM     20  C   UNL     1     -11.233   8.656 128.125  0.00  0.00    +0.000 A 
ATOM     21  C   UNL     1     -10.329   7.923 128.883  0.00  0.00    +0.000 A 
ENDBRANCH  15  16
BRANCH  15  22
ATOM     22  C   UNL     1     -10.306   5.834 132.138  0.00  0.00    +0.000 C 
BRANCH  22  23
ATOM     23  O   UNL     1      -9.773   6.331 133.365  0.00  0.00    +0.000 OA
ATOM     24  H   UNL     1      -9.437   7.233 133.215  0.00  0.00    +0.000 HD
ENDBRANCH  22  23
ENDBRANCH  15  22
ENDBRANCH  13  15
ENDBRANCH   1  13
TORSDOF 6
ENDMDL
