MODEL 1
REMARK VINA RESULT:      -6.2      0.000      0.000
REMARK  Name = Methyldopa
REMARK  8 active torsions:
REMARK  status: ('A' for Active; 'I' for Inactive)
REMARK    1  A    between atoms: C_1  and  C_2
REMARK    2  A    between atoms: C_2  and  N_3
REMARK    3  A    between atoms: C_2  and  C_4
REMARK    4  A    between atoms: C_2  and  C_13
REMARK    5  A    between atoms: C_4  and  C_5
REMARK    6  A    between atoms: C_8  and  O_9
REMARK    7  A    between atoms: C_10  and  O_11
REMARK    8  A    between atoms: C_13  and  O_14
REMARK                            x       y       z     vdW  Elec       q    Type
REMARK                         _______ _______ _______ _____ _____    ______ ____
ROOT
ATOM      1  C   UNL     1      -6.329   2.981 123.896  0.00  0.00    +0.000 C 
ENDROOT
BRANCH   1   2
ATOM      2  C   UNL     1      -6.153   3.715 122.569  0.00  0.00    +0.000 A 
ATOM      3  C   UNL     1      -6.959   3.485 121.438  0.00  0.00    +0.000 A 
ATOM      4  C   UNL     1      -6.650   3.988 120.180  0.00  0.00    +0.000 A 
ATOM      5  C   UNL     1      -5.600   4.873 120.069  0.00  0.00    +0.000 A 
ATOM      6  C   UNL     1      -4.860   5.222 121.199  0.00  0.00    +0.000 A 
ATOM      7  C   UNL     1      -5.107   4.633 122.436  0.00  0.00    +0.000 A 
BRANCH   5   8
ATOM      8  O   UNL     1      -5.287   5.443 118.868  0.00  0.00    +0.000 OA
ATOM      9  H   UNL     1      -5.376   4.753 118.186  0.00  0.00    +0.000 HD
ENDBRANCH   5   8
BRANCH   6  10
ATOM     10  O   UNL     1      -3.871   6.158 121.108  0.00  0.00    +0.000 OA
ATOM     11  H   UNL     1      -3.084   5.720 121.487  0.00  0.00    +0.000 HD
ENDBRANCH   6  10
ENDBRANCH   1   2
BRANCH   1  13
ATOM     12  C   UNL     1      -7.644   2.515 126.044  0.00  0.00    +0.000 C 
ATOM     13  C   UNL     1      -7.501   3.437 124.809  0.00  0.00    +0.000 C 
BRANCH  13  14
ATOM     14  N   UNL     1      -8.741   3.495 123.997  0.00  0.00    +0.000 NA
ATOM     15  H   UNL     1      -8.768   4.302 123.375  0.00  0.00    +0.000 HD
ATOM     16  H   UNL     1      -9.597   3.320 124.508  0.00  0.00    +0.000 HD
ENDBRANCH  13  14
BRANCH  13  17
ATOM     17  C   UNL     1      -7.177   4.838 125.391  0.00  0.00    +0.000 C 
ATOM     18  O   UNL     1      -6.076   5.162 125.826  0.00  0.00    +0.000 OA
BRANCH  17  19
ATOM     19  O   UNL     1      -8.226   5.694 125.434  0.00  0.00    +0.000 OA
ATOM     20  H   UNL     1      -8.057   6.509 124.927  0.00  0.00    +0.000 HD
ENDBRANCH  17  19
ENDBRANCH  13  17
ENDBRANCH   1  13
TORSDOF 7
ENDMDL
MODEL 2
REMARK VINA RESULT:      -6.1      1.682      2.026
REMARK  Name = Methyldopa
REMARK  8 active torsions:
REMARK  status: ('A' for Active; 'I' for Inactive)
REMARK    1  A    between atoms: C_1  and  C_2
REMARK    2  A    between atoms: C_2  and  N_3
REMARK    3  A    between atoms: C_2  and  C_4
REMARK    4  A    between atoms: C_2  and  C_13
REMARK    5  A    between atoms: C_4  and  C_5
REMARK    6  A    between atoms: C_8  and  O_9
REMARK    7  A    between atoms: C_10  and  O_11
REMARK    8  A    between atoms: C_13  and  O_14
REMARK                            x       y       z     vdW  Elec       q    Type
REMARK                         _______ _______ _______ _____ _____    ______ ____
ROOT
ATOM      1  C   UNL     1      -6.583   2.701 123.378  0.00  0.00    +0.000 C 
ENDROOT
BRANCH   1   2
ATOM      2  C   UNL     1      -6.322   3.597 122.170  0.00  0.00    +0.000 A 
ATOM      3  C   UNL     1      -7.090   3.558 120.991  0.00  0.00    +0.000 A 
ATOM      4  C   UNL     1      -6.708   4.210 119.824  0.00  0.00    +0.000 A 
ATOM      5  C   UNL     1      -5.618   5.051 119.871  0.00  0.00    +0.000 A 
ATOM      6  C   UNL     1      -4.912   5.211 121.063  0.00  0.00    +0.000 A 
ATOM      7  C   UNL     1      -5.234   4.474 122.199  0.00  0.00    +0.000 A 
BRANCH   5   8
ATOM      8  O   UNL     1      -5.233   5.761 118.770  0.00  0.00    +0.000 OA
ATOM      9  H   UNL     1      -4.273   5.639 118.664  0.00  0.00    +0.000 HD
ENDBRANCH   5   8
BRANCH   6  10
ATOM     10  O   UNL     1      -3.882   6.103 121.134  0.00  0.00    +0.000 OA
ATOM     11  H   UNL     1      -4.318   6.976 121.192  0.00  0.00    +0.000 HD
ENDBRANCH   6  10
ENDBRANCH   1   2
BRANCH   1  13
ATOM     12  C   UNL     1      -9.108   2.294 123.238  0.00  0.00    +0.000 C 
ATOM     13  C   UNL     1      -7.952   2.859 124.097  0.00  0.00    +0.000 C 
BRANCH  13  14
ATOM     14  N   UNL     1      -8.145   4.291 124.438  0.00  0.00    +0.000 NA
ATOM     15  H   UNL     1      -7.285   4.741 124.748  0.00  0.00    +0.000 HD
ATOM     16  H   UNL     1      -8.960   4.489 125.005  0.00  0.00    +0.000 HD
ENDBRANCH  13  14
BRANCH  13  17
ATOM     17  C   UNL     1      -7.952   1.997 125.386  0.00  0.00    +0.000 C 
ATOM     18  O   UNL     1      -8.673   2.213 126.356  0.00  0.00    +0.000 OA
BRANCH  17  19
ATOM     19  O   UNL     1      -7.047   0.988 125.398  0.00  0.00    +0.000 OA
ATOM     20  H   UNL     1      -6.906   0.632 126.293  0.00  0.00    +0.000 HD
ENDBRANCH  17  19
ENDBRANCH  13  17
ENDBRANCH   1  13
TORSDOF 7
ENDMDL
MODEL 3
REMARK VINA RESULT:      -6.0      7.728      9.585
REMARK  Name = Methyldopa
REMARK  8 active torsions:
REMARK  status: ('A' for Active; 'I' for Inactive)
REMARK    1  A    between atoms: C_1  and  C_2
REMARK    2  A    between atoms: C_2  and  N_3
REMARK    3  A    between atoms: C_2  and  C_4
REMARK    4  A    between atoms: C_2  and  C_13
REMARK    5  A    between atoms: C_4  and  C_5
REMARK    6  A    between atoms: C_8  and  O_9
REMARK    7  A    between atoms: C_10  and  O_11
REMARK    8  A    between atoms: C_13  and  O_14
REMARK                            x       y       z     vdW  Elec       q    Type
REMARK                         _______ _______ _______ _____ _____    ______ ____
ROOT
ATOM      1  C   UNL     1     -11.803   8.045 129.601  0.00  0.00    +0.000 C 
ENDROOT
BRANCH   1   2
ATOM      2  C   UNL     1     -10.782   7.280 130.439  0.00  0.00    +0.000 A 
ATOM      3  C   UNL     1     -11.118   6.515 131.571  0.00  0.00    +0.000 A 
ATOM      4  C   UNL     1     -10.165   6.013 132.450  0.00  0.00    +0.000 A 
ATOM      5  C   UNL     1      -8.835   6.139 132.114  0.00  0.00    +0.000 A 
ATOM      6  C   UNL     1      -8.473   6.780 130.929  0.00  0.00    +0.000 A 
ATOM      7  C   UNL     1      -9.426   7.374 130.107  0.00  0.00    +0.000 A 
BRANCH   5   8
ATOM      8  O   UNL     1      -7.858   5.614 132.911  0.00  0.00    +0.000 OA
ATOM      9  H   UNL     1      -7.171   5.246 132.326  0.00  0.00    +0.000 HD
ENDBRANCH   5   8
BRANCH   6  10
ATOM     10  O   UNL     1      -7.162   6.835 130.553  0.00  0.00    +0.000 OA
ATOM     11  H   UNL     1      -6.931   7.783 130.609  0.00  0.00    +0.000 HD
ENDBRANCH   6  10
ENDBRANCH   1   2
BRANCH   1  13
ATOM     12  C   UNL     1     -13.787   7.923 127.986  0.00  0.00    +0.000 C 
ATOM     13  C   UNL     1     -12.429   7.300 128.390  0.00  0.00    +0.000 C 
BRANCH  13  14
ATOM     14  N   UNL     1     -12.543   5.859 128.727  0.00  0.00    +0.000 NA
ATOM     15  H   UNL     1     -13.065   5.331 128.029  0.00  0.00    +0.000 HD
ATOM     16  H   UNL     1     -12.796   5.663 129.688  0.00  0.00    +0.000 HD
ENDBRANCH  13  14
BRANCH  13  17
ATOM     17  C   UNL     1     -11.517   7.488 127.150  0.00  0.00    +0.000 C 
ATOM     18  O   UNL     1     -10.748   8.433 127.001  0.00  0.00    +0.000 OA
BRANCH  17  19
ATOM     19  O   UNL     1     -11.658   6.543 126.189  0.00  0.00    +0.000 OA
ATOM     20  H   UNL     1     -11.771   6.933 125.304  0.00  0.00    +0.000 HD
ENDBRANCH  17  19
ENDBRANCH  13  17
ENDBRANCH   1  13
TORSDOF 7
ENDMDL
MODEL 4
REMARK VINA RESULT:      -5.9      8.156      9.593
REMARK  Name = Methyldopa
REMARK  8 active torsions:
REMARK  status: ('A' for Active; 'I' for Inactive)
REMARK    1  A    between atoms: C_1  and  C_2
REMARK    2  A    between atoms: C_2  and  N_3
REMARK    3  A    between atoms: C_2  and  C_4
REMARK    4  A    between atoms: C_2  and  C_13
REMARK    5  A    between atoms: C_4  and  C_5
REMARK    6  A    between atoms: C_8  and  O_9
REMARK    7  A    between atoms: C_10  and  O_11
REMARK    8  A    between atoms: C_13  and  O_14
REMARK                            x       y       z     vdW  Elec       q    Type
REMARK                         _______ _______ _______ _____ _____    ______ ____
ROOT
ATOM      1  C   UNL     1     -11.208   5.007 130.538  0.00  0.00    +0.000 C 
ENDROOT
BRANCH   1   2
ATOM      2  C   UNL     1     -11.593   6.437 130.169  0.00  0.00    +0.000 A 
ATOM      3  C   UNL     1     -12.474   7.228 130.931  0.00  0.00    +0.000 A 
ATOM      4  C   UNL     1     -12.990   8.435 130.472  0.00  0.00    +0.000 A 
ATOM      5  C   UNL     1     -12.499   8.949 129.291  0.00  0.00    +0.000 A 
ATOM      6  C   UNL     1     -11.528   8.248 128.576  0.00  0.00    +0.000 A 
ATOM      7  C   UNL     1     -11.093   6.991 128.986  0.00  0.00    +0.000 A 
BRANCH   5   8
ATOM      8  O   UNL     1     -12.928  10.157 128.822  0.00  0.00    +0.000 OA
ATOM      9  H   UNL     1     -13.477   9.987 128.036  0.00  0.00    +0.000 HD
ENDBRANCH   5   8
BRANCH   6  10
ATOM     10  O   UNL     1     -10.982   8.791 127.450  0.00  0.00    +0.000 OA
ATOM     11  H   UNL     1     -10.053   8.973 127.692  0.00  0.00    +0.000 HD
ENDBRANCH   6  10
ENDBRANCH   1   2
BRANCH   1  13
ATOM     12  C   UNL     1      -8.709   4.600 130.146  0.00  0.00    +0.000 C 
ATOM     13  C   UNL     1      -9.821   4.795 131.206  0.00  0.00    +0.000 C 
BRANCH  13  14
ATOM     14  N   UNL     1      -9.917   3.650 132.145  0.00  0.00    +0.000 NA
ATOM     15  H   UNL     1      -9.236   3.703 132.902  0.00  0.00    +0.000 HD
ATOM     16  H   UNL     1      -9.998   2.742 131.707  0.00  0.00    +0.000 HD
ENDBRANCH  13  14
BRANCH  13  17
ATOM     17  C   UNL     1      -9.422   6.084 131.972  0.00  0.00    +0.000 C 
ATOM     18  O   UNL     1      -8.619   6.911 131.551  0.00  0.00    +0.000 OA
BRANCH  17  19
ATOM     19  O   UNL     1      -9.997   6.223 133.191  0.00  0.00    +0.000 OA
ATOM     20  H   UNL     1     -10.344   5.379 133.532  0.00  0.00    +0.000 HD
ENDBRANCH  17  19
ENDBRANCH  13  17
ENDBRANCH   1  13
TORSDOF 7
ENDMDL
MODEL 5
REMARK VINA RESULT:      -5.9      8.481      9.785
REMARK  Name = Methyldopa
REMARK  8 active torsions:
REMARK  status: ('A' for Active; 'I' for Inactive)
REMARK    1  A    between atoms: C_1  and  C_2
REMARK    2  A    between atoms: C_2  and  N_3
REMARK    3  A    between atoms: C_2  and  C_4
REMARK    4  A    between atoms: C_2  and  C_13
REMARK    5  A    between atoms: C_4  and  C_5
REMARK    6  A    between atoms: C_8  and  O_9
REMARK    7  A    between atoms: C_10  and  O_11
REMARK    8  A    between atoms: C_13  and  O_14
REMARK                            x       y       z     vdW  Elec       q    Type
REMARK                         _______ _______ _______ _____ _____    ______ ____
ROOT
ATOM      1  C   UNL     1      -9.760   5.684 132.288  0.00  0.00    +0.000 C 
ENDROOT
BRANCH   1   2
ATOM      2  C   UNL     1     -10.588   6.560 131.352  0.00  0.00    +0.000 A 
ATOM      3  C   UNL     1     -11.969   6.783 131.512  0.00  0.00    +0.000 A 
ATOM      4  C   UNL     1     -12.750   7.391 130.536  0.00  0.00    +0.000 A 
ATOM      5  C   UNL     1     -12.120   7.934 129.437  0.00  0.00    +0.000 A 
ATOM      6  C   UNL     1     -10.734   7.842 129.313  0.00  0.00    +0.000 A 
ATOM      7  C   UNL     1      -9.969   7.139 130.240  0.00  0.00    +0.000 A 
BRANCH   5   8
ATOM      8  O   UNL     1     -12.831   8.593 128.476  0.00  0.00    +0.000 OA
ATOM      9  H   UNL     1     -13.000   9.495 128.805  0.00  0.00    +0.000 HD
ENDBRANCH   5   8
BRANCH   6  10
ATOM     10  O   UNL     1     -10.098   8.447 128.268  0.00  0.00    +0.000 OA
ATOM     11  H   UNL     1      -9.898   9.347 128.593  0.00  0.00    +0.000 HD
ENDBRANCH   6  10
ENDBRANCH   1   2
BRANCH   1  13
ATOM     12  C   UNL     1      -8.181   4.068 131.082  0.00  0.00    +0.000 C 
ATOM     13  C   UNL     1      -9.514   4.213 131.853  0.00  0.00    +0.000 C 
BRANCH  13  14
ATOM     14  N   UNL     1     -10.682   3.752 131.060  0.00  0.00    +0.000 NA
ATOM     15  H   UNL     1     -11.571   4.039 131.466  0.00  0.00    +0.000 HD
ATOM     16  H   UNL     1     -10.641   2.786 130.759  0.00  0.00    +0.000 HD
ENDBRANCH  13  14
BRANCH  13  17
ATOM     17  C   UNL     1      -9.344   3.330 133.117  0.00  0.00    +0.000 C 
ATOM     18  O   UNL     1      -8.928   2.176 133.096  0.00  0.00    +0.000 OA
BRANCH  17  19
ATOM     19  O   UNL     1      -9.740   3.911 134.275  0.00  0.00    +0.000 OA
ATOM     20  H   UNL     1     -10.218   4.746 134.123  0.00  0.00    +0.000 HD
ENDBRANCH  17  19
ENDBRANCH  13  17
ENDBRANCH   1  13
TORSDOF 7
ENDMDL
MODEL 6
REMARK VINA RESULT:      -5.8      9.444     10.593
REMARK  Name = Methyldopa
REMARK  8 active torsions:
REMARK  status: ('A' for Active; 'I' for Inactive)
REMARK    1  A    between atoms: C_1  and  C_2
REMARK    2  A    between atoms: C_2  and  N_3
REMARK    3  A    between atoms: C_2  and  C_4
REMARK    4  A    between atoms: C_2  and  C_13
REMARK    5  A    between atoms: C_4  and  C_5
REMARK    6  A    between atoms: C_8  and  O_9
REMARK    7  A    between atoms: C_10  and  O_11
REMARK    8  A    between atoms: C_13  and  O_14
REMARK                            x       y       z     vdW  Elec       q    Type
REMARK                         _______ _______ _______ _____ _____    ______ ____
ROOT
ATOM      1  C   UNL     1     -12.924   7.336 130.407  0.00  0.00    +0.000 C 
ENDROOT
BRANCH   1   2
ATOM      2  C   UNL     1     -11.775   6.418 130.818  0.00  0.00    +0.000 A 
ATOM      3  C   UNL     1     -11.418   5.253 130.114  0.00  0.00    +0.000 A 
ATOM      4  C   UNL     1     -10.527   4.313 130.618  0.00  0.00    +0.000 A 
ATOM      5  C   UNL     1      -9.850   4.612 131.781  0.00  0.00    +0.000 A 
ATOM      6  C   UNL     1     -10.088   5.821 132.435  0.00  0.00    +0.000 A 
ATOM      7  C   UNL     1     -11.059   6.710 131.983  0.00  0.00    +0.000 A 
BRANCH   5   8
ATOM      8  O   UNL     1      -8.921   3.751 132.291  0.00  0.00    +0.000 OA
ATOM      9  H   UNL     1      -9.318   2.862 132.297  0.00  0.00    +0.000 HD
ENDBRANCH   5   8
BRANCH   6  10
ATOM     10  O   UNL     1      -9.362   6.155 133.541  0.00  0.00    +0.000 OA
ATOM     11  H   UNL     1      -9.977   6.017 134.288  0.00  0.00    +0.000 HD
ENDBRANCH   6  10
ENDBRANCH   1   2
BRANCH   1  13
ATOM     12  C   UNL     1     -13.542   7.892 127.984  0.00  0.00    +0.000 C 
ATOM     13  C   UNL     1     -12.677   8.289 129.204  0.00  0.00    +0.000 C 
BRANCH  13  14
ATOM     14  N   UNL     1     -11.225   8.294 128.894  0.00  0.00    +0.000 NA
ATOM     15  H   UNL     1     -11.025   8.627 127.951  0.00  0.00    +0.000 HD
ATOM     16  H   UNL     1     -10.726   7.456 129.166  0.00  0.00    +0.000 HD
ENDBRANCH  13  14
BRANCH  13  17
ATOM     17  C   UNL     1     -13.148   9.717 129.582  0.00  0.00    +0.000 C 
ATOM     18  O   UNL     1     -13.181  10.147 130.731  0.00  0.00    +0.000 OA
BRANCH  17  19
ATOM     19  O   UNL     1     -13.579  10.470 128.541  0.00  0.00    +0.000 OA
ATOM     20  H   UNL     1     -12.855  10.703 127.932  0.00  0.00    +0.000 HD
ENDBRANCH  17  19
ENDBRANCH  13  17
ENDBRANCH   1  13
TORSDOF 7
ENDMDL
MODEL 7
REMARK VINA RESULT:      -5.8      7.524      9.494
REMARK  Name = Methyldopa
REMARK  8 active torsions:
REMARK  status: ('A' for Active; 'I' for Inactive)
REMARK    1  A    between atoms: C_1  and  C_2
REMARK    2  A    between atoms: C_2  and  N_3
REMARK    3  A    between atoms: C_2  and  C_4
REMARK    4  A    between atoms: C_2  and  C_13
REMARK    5  A    between atoms: C_4  and  C_5
REMARK    6  A    between atoms: C_8  and  O_9
REMARK    7  A    between atoms: C_10  and  O_11
REMARK    8  A    between atoms: C_13  and  O_14
REMARK                            x       y       z     vdW  Elec       q    Type
REMARK                         _______ _______ _______ _____ _____    ______ ____
ROOT
ATOM      1  C   UNL     1     -11.098   7.890 129.457  0.00  0.00    +0.000 C 
ENDROOT
BRANCH   1   2
ATOM      2  C   UNL     1     -10.328   6.731 130.084  0.00  0.00    +0.000 A 
ATOM      3  C   UNL     1      -9.450   5.899 129.364  0.00  0.00    +0.000 A 
ATOM      4  C   UNL     1      -8.934   4.719 129.887  0.00  0.00    +0.000 A 
ATOM      5  C   UNL     1      -9.168   4.434 131.214  0.00  0.00    +0.000 A 
ATOM      6  C   UNL     1      -9.929   5.308 131.991  0.00  0.00    +0.000 A 
ATOM      7  C   UNL     1     -10.532   6.433 131.435  0.00  0.00    +0.000 A 
BRANCH   5   8
ATOM      8  O   UNL     1      -8.637   3.319 131.796  0.00  0.00    +0.000 OA
ATOM      9  H   UNL     1      -8.034   2.911 131.149  0.00  0.00    +0.000 HD
ENDBRANCH   5   8
BRANCH   6  10
ATOM     10  O   UNL     1     -10.096   5.071 133.324  0.00  0.00    +0.000 OA
ATOM     11  H   UNL     1     -10.968   5.460 133.534  0.00  0.00    +0.000 HD
ENDBRANCH   6  10
ENDBRANCH   1   2
BRANCH   1  13
ATOM     12  C   UNL     1     -13.299   8.635 128.379  0.00  0.00    +0.000 C 
ATOM     13  C   UNL     1     -12.214   7.533 128.437  0.00  0.00    +0.000 C 
BRANCH  13  14
ATOM     14  N   UNL     1     -12.773   6.204 128.791  0.00  0.00    +0.000 NA
ATOM     15  H   UNL     1     -12.869   5.589 127.984  0.00  0.00    +0.000 HD
ATOM     16  H   UNL     1     -13.575   6.227 129.408  0.00  0.00    +0.000 HD
ENDBRANCH  13  14
BRANCH  13  17
ATOM     17  C   UNL     1     -11.606   7.494 127.010  0.00  0.00    +0.000 C 
ATOM     18  O   UNL     1     -10.742   8.270 126.612  0.00  0.00    +0.000 OA
BRANCH  17  19
ATOM     19  O   UNL     1     -12.134   6.554 126.190  0.00  0.00    +0.000 OA
ATOM     20  H   UNL     1     -12.700   6.945 125.500  0.00  0.00    +0.000 HD
ENDBRANCH  17  19
ENDBRANCH  13  17
ENDBRANCH   1  13
TORSDOF 7
ENDMDL
MODEL 8
REMARK VINA RESULT:      -5.7      7.421      9.700
REMARK  Name = Methyldopa
REMARK  8 active torsions:
REMARK  status: ('A' for Active; 'I' for Inactive)
REMARK    1  A    between atoms: C_1  and  C_2
REMARK    2  A    between atoms: C_2  and  N_3
REMARK    3  A    between atoms: C_2  and  C_4
REMARK    4  A    between atoms: C_2  and  C_13
REMARK    5  A    between atoms: C_4  and  C_5
REMARK    6  A    between atoms: C_8  and  O_9
REMARK    7  A    between atoms: C_10  and  O_11
REMARK    8  A    between atoms: C_13  and  O_14
REMARK                            x       y       z     vdW  Elec       q    Type
REMARK                         _______ _______ _______ _____ _____    ______ ____
ROOT
ATOM      1  C   UNL     1      -9.921   6.936 128.863  0.00  0.00    +0.000 C 
ENDROOT
BRANCH   1   2
ATOM      2  C   UNL     1      -9.722   6.033 130.077  0.00  0.00    +0.000 A 
ATOM      3  C   UNL     1      -9.609   4.632 129.997  0.00  0.00    +0.000 A 
ATOM      4  C   UNL     1      -9.656   3.808 131.116  0.00  0.00    +0.000 A 
ATOM      5  C   UNL     1      -9.656   4.397 132.361  0.00  0.00    +0.000 A 
ATOM      6  C   UNL     1      -9.637   5.787 132.476  0.00  0.00    +0.000 A 
ATOM      7  C   UNL     1      -9.698   6.607 131.352  0.00  0.00    +0.000 A 
BRANCH   5   8
ATOM      8  O   UNL     1      -9.642   3.637 133.496  0.00  0.00    +0.000 OA
ATOM      9  H   UNL     1      -9.320   4.201 134.221  0.00  0.00    +0.000 HD
ENDBRANCH   5   8
BRANCH   6  10
ATOM     10  O   UNL     1      -9.556   6.372 133.706  0.00  0.00    +0.000 OA
ATOM     11  H   UNL     1     -10.415   6.176 134.127  0.00  0.00    +0.000 HD
ENDBRANCH   6  10
ENDBRANCH   1   2
BRANCH   1  13
ATOM     12  C   UNL     1     -11.895   8.565 128.962  0.00  0.00    +0.000 C 
ATOM     13  C   UNL     1     -11.383   7.212 128.414  0.00  0.00    +0.000 C 
BRANCH  13  14
ATOM     14  N   UNL     1     -12.232   6.070 128.838  0.00  0.00    +0.000 NA
ATOM     15  H   UNL     1     -12.597   5.537 128.050  0.00  0.00    +0.000 HD
ATOM     16  H   UNL     1     -12.909   6.285 129.560  0.00  0.00    +0.000 HD
ENDBRANCH  13  14
BRANCH  13  17
ATOM     17  C   UNL     1     -11.422   7.363 126.871  0.00  0.00    +0.000 C 
ATOM     18  O   UNL     1     -10.787   8.210 126.249  0.00  0.00    +0.000 OA
BRANCH  17  19
ATOM     19  O   UNL     1     -12.260   6.509 126.235  0.00  0.00    +0.000 OA
ATOM     20  H   UNL     1     -13.103   6.399 126.712  0.00  0.00    +0.000 HD
ENDBRANCH  17  19
ENDBRANCH  13  17
ENDBRANCH   1  13
TORSDOF 7
ENDMDL
MODEL 9
REMARK VINA RESULT:      -5.6      8.454     10.037
REMARK  Name = Methyldopa
REMARK  8 active torsions:
REMARK  status: ('A' for Active; 'I' for Inactive)
REMARK    1  A    between atoms: C_1  and  C_2
REMARK    2  A    between atoms: C_2  and  N_3
REMARK    3  A    between atoms: C_2  and  C_4
REMARK    4  A    between atoms: C_2  and  C_13
REMARK    5  A    between atoms: C_4  and  C_5
REMARK    6  A    between atoms: C_8  and  O_9
REMARK    7  A    between atoms: C_10  and  O_11
REMARK    8  A    between atoms: C_13  and  O_14
REMARK                            x       y       z     vdW  Elec       q    Type
REMARK                         _______ _______ _______ _____ _____    ______ ____
ROOT
ATOM      1  C   UNL     1     -12.545   7.525 130.306  0.00  0.00    +0.000 C 
ENDROOT
BRANCH   1   2
ATOM      2  C   UNL     1     -11.619   6.451 130.872  0.00  0.00    +0.000 A 
ATOM      3  C   UNL     1     -10.939   6.575 132.098  0.00  0.00    +0.000 A 
ATOM      4  C   UNL     1      -9.933   5.700 132.491  0.00  0.00    +0.000 A 
ATOM      5  C   UNL     1      -9.702   4.581 131.722  0.00  0.00    +0.000 A 
ATOM      6  C   UNL     1     -10.452   4.362 130.566  0.00  0.00    +0.000 A 
ATOM      7  C   UNL     1     -11.384   5.296 130.120  0.00  0.00    +0.000 A 
BRANCH   5   8
ATOM      8  O   UNL     1      -8.767   3.657 132.092  0.00  0.00    +0.000 OA
ATOM      9  H   UNL     1      -8.817   3.562 133.060  0.00  0.00    +0.000 HD
ENDBRANCH   5   8
BRANCH   6  10
ATOM     10  O   UNL     1     -10.282   3.216 129.846  0.00  0.00    +0.000 OA
ATOM     11  H   UNL     1     -11.123   3.106 129.359  0.00  0.00    +0.000 HD
ENDBRANCH   6  10
ENDBRANCH   1   2
BRANCH   1  13
ATOM     12  C   UNL     1     -10.592   8.159 128.775  0.00  0.00    +0.000 C 
ATOM     13  C   UNL     1     -12.128   8.188 128.964  0.00  0.00    +0.000 C 
BRANCH  13  14
ATOM     14  N   UNL     1     -12.680   9.565 128.923  0.00  0.00    +0.000 NA
ATOM     15  H   UNL     1     -13.664   9.587 128.658  0.00  0.00    +0.000 HD
ATOM     16  H   UNL     1     -12.096  10.247 128.455  0.00  0.00    +0.000 HD
ENDBRANCH  13  14
BRANCH  13  17
ATOM     17  C   UNL     1     -12.692   7.350 127.786  0.00  0.00    +0.000 C 
ATOM     18  O   UNL     1     -13.887   7.134 127.609  0.00  0.00    +0.000 OA
BRANCH  17  19
ATOM     19  O   UNL     1     -11.755   6.815 126.967  0.00  0.00    +0.000 OA
ATOM     20  H   UNL     1     -10.949   7.359 126.926  0.00  0.00    +0.000 HD
ENDBRANCH  17  19
ENDBRANCH  13  17
ENDBRANCH   1  13
TORSDOF 7
ENDMDL
