MODEL 1
REMARK VINA RESULT:      -5.3      0.000      0.000
REMARK  Name = Methoxamine
REMARK  9 active torsions:
REMARK  status: ('A' for Active; 'I' for Inactive)
REMARK    1  A    between atoms: C_1  and  O_2
REMARK    2  A    between atoms: O_2  and  C_3
REMARK    3  A    between atoms: C_5  and  C_6
REMARK    4  A    between atoms: C_6  and  O_7
REMARK    5  A    between atoms: C_6  and  C_8
REMARK    6  A    between atoms: C_8  and  C_9
REMARK    7  A    between atoms: C_8  and  N_10
REMARK    8  A    between atoms: C_11  and  O_12
REMARK    9  A    between atoms: O_12  and  C_13
REMARK                            x       y       z     vdW  Elec       q    Type
REMARK                         _______ _______ _______ _____ _____    ______ ____
ROOT
ATOM      1  C   UNL     1      -5.216  -2.782 123.567  0.00  0.00    +0.000 A 
ATOM      2  C   UNL     1      -5.718  -2.811 124.873  0.00  0.00    +0.000 A 
ATOM      3  C   UNL     1      -6.913  -2.131 125.186  0.00  0.00    +0.000 A 
ATOM      4  C   UNL     1      -7.487  -1.296 124.205  0.00  0.00    +0.000 A 
ATOM      5  C   UNL     1      -7.061  -1.385 122.884  0.00  0.00    +0.000 A 
ATOM      6  C   UNL     1      -5.943  -2.143 122.571  0.00  0.00    +0.000 A 
ENDROOT
BRANCH   1   8
ATOM      7  C   UNL     1      -4.202  -4.887 123.523  0.00  0.00    +0.000 C 
ATOM      8  O   UNL     1      -4.065  -3.479 123.318  0.00  0.00    +0.000 OA
ENDBRANCH   1   8
BRANCH   4   9
ATOM      9  O   UNL     1      -8.440  -0.403 124.599  0.00  0.00    +0.000 OA
ATOM     10  C   UNL     1      -9.254   0.232 123.624  0.00  0.00    +0.000 C 
ENDBRANCH   4   9
BRANCH   3  11
ATOM     11  C   UNL     1      -7.594  -2.450 126.521  0.00  0.00    +0.000 C 
BRANCH  11  12
ATOM     12  O   UNL     1      -7.966  -1.215 127.137  0.00  0.00    +0.000 OA
ATOM     13  H   UNL     1      -8.814  -1.378 127.581  0.00  0.00    +0.000 HD
ENDBRANCH  11  12
BRANCH  11  14
ATOM     14  C   UNL     1      -8.798  -3.456 126.454  0.00  0.00    +0.000 C 
ATOM     15  C   UNL     1      -9.200  -3.971 127.855  0.00  0.00    +0.000 C 
BRANCH  14  16
ATOM     16  N   UNL     1     -10.018  -2.927 125.819  0.00  0.00    +0.000 NA
ATOM     17  H   UNL     1      -9.887  -1.940 125.609  0.00  0.00    +0.000 HD
ATOM     18  H   UNL     1     -10.777  -2.978 126.501  0.00  0.00    +0.000 HD
ENDBRANCH  14  16
ENDBRANCH  11  14
ENDBRANCH   3  11
TORSDOF 6
ENDMDL
MODEL 2
REMARK VINA RESULT:      -5.1      3.956      6.297
REMARK  Name = Methoxamine
REMARK  9 active torsions:
REMARK  status: ('A' for Active; 'I' for Inactive)
REMARK    1  A    between atoms: C_1  and  O_2
REMARK    2  A    between atoms: O_2  and  C_3
REMARK    3  A    between atoms: C_5  and  C_6
REMARK    4  A    between atoms: C_6  and  O_7
REMARK    5  A    between atoms: C_6  and  C_8
REMARK    6  A    between atoms: C_8  and  C_9
REMARK    7  A    between atoms: C_8  and  N_10
REMARK    8  A    between atoms: C_11  and  O_12
REMARK    9  A    between atoms: O_12  and  C_13
REMARK                            x       y       z     vdW  Elec       q    Type
REMARK                         _______ _______ _______ _____ _____    ______ ____
ROOT
ATOM      1  C   UNL     1      -9.066  -0.075 124.453  0.00  0.00    +0.000 A 
ATOM      2  C   UNL     1      -8.785   0.694 123.318  0.00  0.00    +0.000 A 
ATOM      3  C   UNL     1      -8.437   2.053 123.452  0.00  0.00    +0.000 A 
ATOM      4  C   UNL     1      -8.542   2.650 124.726  0.00  0.00    +0.000 A 
ATOM      5  C   UNL     1      -8.685   1.851 125.856  0.00  0.00    +0.000 A 
ATOM      6  C   UNL     1      -8.924   0.493 125.713  0.00  0.00    +0.000 A 
ENDROOT
BRANCH   1   8
ATOM      7  C   UNL     1      -8.412  -2.288 124.822  0.00  0.00    +0.000 C 
ATOM      8  O   UNL     1      -9.375  -1.394 124.262  0.00  0.00    +0.000 OA
ENDBRANCH   1   8
BRANCH   4   9
ATOM      9  O   UNL     1      -8.521   4.011 124.801  0.00  0.00    +0.000 OA
ATOM     10  C   UNL     1      -8.016   4.643 125.968  0.00  0.00    +0.000 C 
ENDBRANCH   4   9
BRANCH   3  11
ATOM     11  C   UNL     1      -7.828   2.763 122.239  0.00  0.00    +0.000 C 
BRANCH  11  12
ATOM     12  O   UNL     1      -8.632   3.907 121.943  0.00  0.00    +0.000 OA
ATOM     13  H   UNL     1      -8.071   4.508 121.427  0.00  0.00    +0.000 HD
ENDBRANCH  11  12
BRANCH  11  14
ATOM     14  C   UNL     1      -6.305   3.134 122.353  0.00  0.00    +0.000 C 
ATOM     15  C   UNL     1      -5.608   3.143 120.974  0.00  0.00    +0.000 C 
BRANCH  14  16
ATOM     16  N   UNL     1      -6.026   4.433 122.989  0.00  0.00    +0.000 NA
ATOM     17  H   UNL     1      -6.066   5.168 122.287  0.00  0.00    +0.000 HD
ATOM     18  H   UNL     1      -5.065   4.416 123.334  0.00  0.00    +0.000 HD
ENDBRANCH  14  16
ENDBRANCH  11  14
ENDBRANCH   3  11
TORSDOF 6
ENDMDL
MODEL 3
REMARK VINA RESULT:      -5.0      9.539     11.368
REMARK  Name = Methoxamine
REMARK  9 active torsions:
REMARK  status: ('A' for Active; 'I' for Inactive)
REMARK    1  A    between atoms: C_1  and  O_2
REMARK    2  A    between atoms: O_2  and  C_3
REMARK    3  A    between atoms: C_5  and  C_6
REMARK    4  A    between atoms: C_6  and  O_7
REMARK    5  A    between atoms: C_6  and  C_8
REMARK    6  A    between atoms: C_8  and  C_9
REMARK    7  A    between atoms: C_8  and  N_10
REMARK    8  A    between atoms: C_11  and  O_12
REMARK    9  A    between atoms: O_12  and  C_13
REMARK                            x       y       z     vdW  Elec       q    Type
REMARK                         _______ _______ _______ _____ _____    ______ ____
ROOT
ATOM      1  C   UNL     1     -10.588   6.981 127.450  0.00  0.00    +0.000 A 
ATOM      2  C   UNL     1     -10.308   6.753 128.802  0.00  0.00    +0.000 A 
ATOM      3  C   UNL     1     -11.159   7.274 129.798  0.00  0.00    +0.000 A 
ATOM      4  C   UNL     1     -12.188   8.156 129.408  0.00  0.00    +0.000 A 
ATOM      5  C   UNL     1     -12.539   8.261 128.065  0.00  0.00    +0.000 A 
ATOM      6  C   UNL     1     -11.750   7.656 127.099  0.00  0.00    +0.000 A 
ENDROOT
BRANCH   1   8
ATOM      7  C   UNL     1      -8.895   5.414 127.072  0.00  0.00    +0.000 C 
ATOM      8  O   UNL     1      -9.739   6.431 126.528  0.00  0.00    +0.000 OA
ENDBRANCH   1   8
BRANCH   4   9
ATOM      9  O   UNL     1     -12.796   8.901 130.374  0.00  0.00    +0.000 OA
ATOM     10  C   UNL     1     -13.202  10.231 130.085  0.00  0.00    +0.000 C 
ENDBRANCH   4   9
BRANCH   3  11
ATOM     11  C   UNL     1     -11.007   6.739 131.225  0.00  0.00    +0.000 C 
BRANCH  11  12
ATOM     12  O   UNL     1     -12.293   6.306 131.677  0.00  0.00    +0.000 OA
ATOM     13  H   UNL     1     -12.935   6.935 131.311  0.00  0.00    +0.000 HD
ENDBRANCH  11  12
BRANCH  11  14
ATOM     14  C   UNL     1      -9.913   5.631 131.432  0.00  0.00    +0.000 C 
ATOM     15  C   UNL     1      -9.084   5.869 132.714  0.00  0.00    +0.000 C 
BRANCH  14  16
ATOM     16  N   UNL     1     -10.427   4.252 131.496  0.00  0.00    +0.000 NA
ATOM     17  H   UNL     1     -11.435   4.274 131.632  0.00  0.00    +0.000 HD
ATOM     18  H   UNL     1     -10.033   3.807 132.327  0.00  0.00    +0.000 HD
ENDBRANCH  14  16
ENDBRANCH  11  14
ENDBRANCH   3  11
TORSDOF 6
ENDMDL
MODEL 4
REMARK VINA RESULT:      -4.9      4.766      6.567
REMARK  Name = Methoxamine
REMARK  9 active torsions:
REMARK  status: ('A' for Active; 'I' for Inactive)
REMARK    1  A    between atoms: C_1  and  O_2
REMARK    2  A    between atoms: O_2  and  C_3
REMARK    3  A    between atoms: C_5  and  C_6
REMARK    4  A    between atoms: C_6  and  O_7
REMARK    5  A    between atoms: C_6  and  C_8
REMARK    6  A    between atoms: C_8  and  C_9
REMARK    7  A    between atoms: C_8  and  N_10
REMARK    8  A    between atoms: C_11  and  O_12
REMARK    9  A    between atoms: O_12  and  C_13
REMARK                            x       y       z     vdW  Elec       q    Type
REMARK                         _______ _______ _______ _____ _____    ______ ____
ROOT
ATOM      1  C   UNL     1      -6.858   3.816 120.987  0.00  0.00    +0.000 A 
ATOM      2  C   UNL     1      -7.735   3.138 121.841  0.00  0.00    +0.000 A 
ATOM      3  C   UNL     1      -7.416   2.983 123.205  0.00  0.00    +0.000 A 
ATOM      4  C   UNL     1      -6.134   3.377 123.644  0.00  0.00    +0.000 A 
ATOM      5  C   UNL     1      -5.335   4.169 122.825  0.00  0.00    +0.000 A 
ATOM      6  C   UNL     1      -5.712   4.401 121.512  0.00  0.00    +0.000 A 
ENDROOT
BRANCH   1   8
ATOM      7  C   UNL     1      -6.534   5.001 118.998  0.00  0.00    +0.000 C 
ATOM      8  O   UNL     1      -7.232   3.955 119.678  0.00  0.00    +0.000 OA
ENDBRANCH   1   8
BRANCH   4   9
ATOM      9  O   UNL     1      -5.711   2.941 124.864  0.00  0.00    +0.000 OA
ATOM     10  C   UNL     1      -5.449   3.883 125.894  0.00  0.00    +0.000 C 
ENDBRANCH   4   9
BRANCH   3  11
ATOM     11  C   UNL     1      -8.527   2.532 124.157  0.00  0.00    +0.000 C 
BRANCH  11  12
ATOM     12  O   UNL     1      -9.054   3.691 124.808  0.00  0.00    +0.000 OA
ATOM     13  H   UNL     1      -9.998   3.723 124.584  0.00  0.00    +0.000 HD
ENDBRANCH  11  12
BRANCH  11  14
ATOM     14  C   UNL     1      -9.663   1.653 123.520  0.00  0.00    +0.000 C 
ATOM     15  C   UNL     1      -9.197   0.203 123.264  0.00  0.00    +0.000 C 
BRANCH  14  16
ATOM     16  N   UNL     1     -10.907   1.577 124.307  0.00  0.00    +0.000 NA
ATOM     17  H   UNL     1     -11.261   0.624 124.286  0.00  0.00    +0.000 HD
ATOM     18  H   UNL     1     -11.609   2.156 123.844  0.00  0.00    +0.000 HD
ENDBRANCH  14  16
ENDBRANCH  11  14
ENDBRANCH   3  11
TORSDOF 6
ENDMDL
MODEL 5
REMARK VINA RESULT:      -4.8      9.053     11.335
REMARK  Name = Methoxamine
REMARK  9 active torsions:
REMARK  status: ('A' for Active; 'I' for Inactive)
REMARK    1  A    between atoms: C_1  and  O_2
REMARK    2  A    between atoms: O_2  and  C_3
REMARK    3  A    between atoms: C_5  and  C_6
REMARK    4  A    between atoms: C_6  and  O_7
REMARK    5  A    between atoms: C_6  and  C_8
REMARK    6  A    between atoms: C_8  and  C_9
REMARK    7  A    between atoms: C_8  and  N_10
REMARK    8  A    between atoms: C_11  and  O_12
REMARK    9  A    between atoms: O_12  and  C_13
REMARK                            x       y       z     vdW  Elec       q    Type
REMARK                         _______ _______ _______ _____ _____    ______ ____
ROOT
ATOM      1  C   UNL     1     -12.610   6.982 129.637  0.00  0.00    +0.000 A 
ATOM      2  C   UNL     1     -11.404   6.484 129.130  0.00  0.00    +0.000 A 
ATOM      3  C   UNL     1     -10.342   6.176 130.004  0.00  0.00    +0.000 A 
ATOM      4  C   UNL     1     -10.466   6.535 131.363  0.00  0.00    +0.000 A 
ATOM      5  C   UNL     1     -11.709   6.896 131.874  0.00  0.00    +0.000 A 
ATOM      6  C   UNL     1     -12.776   7.095 131.012  0.00  0.00    +0.000 A 
ENDROOT
BRANCH   1   8
ATOM      7  C   UNL     1     -13.189   7.161 127.380  0.00  0.00    +0.000 C 
ATOM      8  O   UNL     1     -13.612   7.241 128.742  0.00  0.00    +0.000 OA
ENDBRANCH   1   8
BRANCH   4   9
ATOM      9  O   UNL     1      -9.340   6.535 132.132  0.00  0.00    +0.000 OA
ATOM     10  C   UNL     1      -9.204   5.585 133.178  0.00  0.00    +0.000 C 
ENDBRANCH   4   9
BRANCH   3  11
ATOM     11  C   UNL     1      -9.180   5.342 129.458  0.00  0.00    +0.000 C 
BRANCH  11  12
ATOM     12  O   UNL     1      -7.958   5.989 129.823  0.00  0.00    +0.000 OA
ATOM     13  H   UNL     1      -7.522   6.234 128.991  0.00  0.00    +0.000 HD
ENDBRANCH  11  12
BRANCH  11  14
ATOM     14  C   UNL     1      -9.177   3.822 129.857  0.00  0.00    +0.000 C 
ATOM     15  C   UNL     1     -10.526   3.382 130.468  0.00  0.00    +0.000 C 
BRANCH  14  16
ATOM     16  N   UNL     1      -8.874   2.890 128.756  0.00  0.00    +0.000 NA
ATOM     17  H   UNL     1      -7.956   3.106 128.375  0.00  0.00    +0.000 HD
ATOM     18  H   UNL     1      -9.545   3.059 128.006  0.00  0.00    +0.000 HD
ENDBRANCH  14  16
ENDBRANCH  11  14
ENDBRANCH   3  11
TORSDOF 6
ENDMDL
MODEL 6
REMARK VINA RESULT:      -4.7      4.221      5.927
REMARK  Name = Methoxamine
REMARK  9 active torsions:
REMARK  status: ('A' for Active; 'I' for Inactive)
REMARK    1  A    between atoms: C_1  and  O_2
REMARK    2  A    between atoms: O_2  and  C_3
REMARK    3  A    between atoms: C_5  and  C_6
REMARK    4  A    between atoms: C_6  and  O_7
REMARK    5  A    between atoms: C_6  and  C_8
REMARK    6  A    between atoms: C_8  and  C_9
REMARK    7  A    between atoms: C_8  and  N_10
REMARK    8  A    between atoms: C_11  and  O_12
REMARK    9  A    between atoms: O_12  and  C_13
REMARK                            x       y       z     vdW  Elec       q    Type
REMARK                         _______ _______ _______ _____ _____    ______ ____
ROOT
ATOM      1  C   UNL     1      -6.782  -0.667 124.263  0.00  0.00    +0.000 A 
ATOM      2  C   UNL     1      -7.289   0.390 123.500  0.00  0.00    +0.000 A 
ATOM      3  C   UNL     1      -7.026   1.723 123.876  0.00  0.00    +0.000 A 
ATOM      4  C   UNL     1      -6.391   1.959 125.113  0.00  0.00    +0.000 A 
ATOM      5  C   UNL     1      -5.775   0.910 125.787  0.00  0.00    +0.000 A 
ATOM      6  C   UNL     1      -5.956  -0.392 125.346  0.00  0.00    +0.000 A 
ENDROOT
BRANCH   1   8
ATOM      7  C   UNL     1      -7.930  -1.985 122.712  0.00  0.00    +0.000 C 
ATOM      8  O   UNL     1      -7.050  -1.939 123.837  0.00  0.00    +0.000 OA
ENDBRANCH   1   8
BRANCH   4   9
ATOM      9  O   UNL     1      -6.425   3.224 125.621  0.00  0.00    +0.000 OA
ATOM     10  C   UNL     1      -5.323   3.709 126.373  0.00  0.00    +0.000 C 
ENDBRANCH   4   9
BRANCH   3  11
ATOM     11  C   UNL     1      -7.314   2.828 122.855  0.00  0.00    +0.000 C 
BRANCH  11  12
ATOM     12  O   UNL     1      -8.181   3.786 123.468  0.00  0.00    +0.000 OA
ATOM     13  H   UNL     1      -7.633   4.563 123.662  0.00  0.00    +0.000 HD
ENDBRANCH  11  12
BRANCH  11  14
ATOM     14  C   UNL     1      -6.056   3.511 122.207  0.00  0.00    +0.000 C 
ATOM     15  C   UNL     1      -6.306   3.905 120.735  0.00  0.00    +0.000 C 
BRANCH  14  16
ATOM     16  N   UNL     1      -5.573   4.716 122.904  0.00  0.00    +0.000 NA
ATOM     17  H   UNL     1      -5.896   4.699 123.869  0.00  0.00    +0.000 HD
ATOM     18  H   UNL     1      -6.010   5.529 122.468  0.00  0.00    +0.000 HD
ENDBRANCH  14  16
ENDBRANCH  11  14
ENDBRANCH   3  11
TORSDOF 6
ENDMDL
MODEL 7
REMARK VINA RESULT:      -4.7      3.015      4.571
REMARK  Name = Methoxamine
REMARK  9 active torsions:
REMARK  status: ('A' for Active; 'I' for Inactive)
REMARK    1  A    between atoms: C_1  and  O_2
REMARK    2  A    between atoms: O_2  and  C_3
REMARK    3  A    between atoms: C_5  and  C_6
REMARK    4  A    between atoms: C_6  and  O_7
REMARK    5  A    between atoms: C_6  and  C_8
REMARK    6  A    between atoms: C_8  and  C_9
REMARK    7  A    between atoms: C_8  and  N_10
REMARK    8  A    between atoms: C_11  and  O_12
REMARK    9  A    between atoms: O_12  and  C_13
REMARK                            x       y       z     vdW  Elec       q    Type
REMARK                         _______ _______ _______ _____ _____    ______ ____
ROOT
ATOM      1  C   UNL     1      -7.525  -2.535 127.684  0.00  0.00    +0.000 A 
ATOM      2  C   UNL     1      -7.261  -1.468 126.819  0.00  0.00    +0.000 A 
ATOM      3  C   UNL     1      -8.084  -1.246 125.696  0.00  0.00    +0.000 A 
ATOM      4  C   UNL     1      -9.064  -2.212 125.381  0.00  0.00    +0.000 A 
ATOM      5  C   UNL     1      -9.405  -3.183 126.317  0.00  0.00    +0.000 A 
ATOM      6  C   UNL     1      -8.649  -3.324 127.470  0.00  0.00    +0.000 A 
ENDROOT
BRANCH   1   8
ATOM      7  C   UNL     1      -7.395  -3.121 129.943  0.00  0.00    +0.000 C 
ATOM      8  O   UNL     1      -6.705  -2.686 128.769  0.00  0.00    +0.000 OA
ENDBRANCH   1   8
BRANCH   4   9
ATOM      9  O   UNL     1      -9.633  -2.169 124.143  0.00  0.00    +0.000 OA
ATOM     10  C   UNL     1      -9.552  -3.304 123.294  0.00  0.00    +0.000 C 
ENDBRANCH   4   9
BRANCH   3  11
ATOM     11  C   UNL     1      -7.965   0.097 124.970  0.00  0.00    +0.000 C 
BRANCH  11  12
ATOM     12  O   UNL     1      -7.752  -0.166 123.581  0.00  0.00    +0.000 OA
ATOM     13  H   UNL     1      -7.088  -0.873 123.537  0.00  0.00    +0.000 HD
ENDBRANCH  11  12
BRANCH  11  14
ATOM     14  C   UNL     1      -9.145   1.109 125.199  0.00  0.00    +0.000 C 
ATOM     15  C   UNL     1      -8.715   2.568 124.929  0.00  0.00    +0.000 C 
BRANCH  14  16
ATOM     16  N   UNL     1     -10.350   0.854 124.390  0.00  0.00    +0.000 NA
ATOM     17  H   UNL     1     -10.951   1.675 124.414  0.00  0.00    +0.000 HD
ATOM     18  H   UNL     1     -10.875   0.100 124.835  0.00  0.00    +0.000 HD
ENDBRANCH  14  16
ENDBRANCH  11  14
ENDBRANCH   3  11
TORSDOF 6
ENDMDL
MODEL 8
REMARK VINA RESULT:      -4.6      9.647     11.720
REMARK  Name = Methoxamine
REMARK  9 active torsions:
REMARK  status: ('A' for Active; 'I' for Inactive)
REMARK    1  A    between atoms: C_1  and  O_2
REMARK    2  A    between atoms: O_2  and  C_3
REMARK    3  A    between atoms: C_5  and  C_6
REMARK    4  A    between atoms: C_6  and  O_7
REMARK    5  A    between atoms: C_6  and  C_8
REMARK    6  A    between atoms: C_8  and  C_9
REMARK    7  A    between atoms: C_8  and  N_10
REMARK    8  A    between atoms: C_11  and  O_12
REMARK    9  A    between atoms: O_12  and  C_13
REMARK                            x       y       z     vdW  Elec       q    Type
REMARK                         _______ _______ _______ _____ _____    ______ ____
ROOT
ATOM      1  C   UNL     1     -11.788   7.555 130.299  0.00  0.00    +0.000 A 
ATOM      2  C   UNL     1     -11.216   6.800 131.329  0.00  0.00    +0.000 A 
ATOM      3  C   UNL     1      -9.914   6.278 131.184  0.00  0.00    +0.000 A 
ATOM      4  C   UNL     1      -9.280   6.393 129.928  0.00  0.00    +0.000 A 
ATOM      5  C   UNL     1      -9.797   7.258 128.968  0.00  0.00    +0.000 A 
ATOM      6  C   UNL     1     -11.034   7.850 129.169  0.00  0.00    +0.000 A 
ENDROOT
BRANCH   1   8
ATOM      7  C   UNL     1     -13.153   9.451 130.218  0.00  0.00    +0.000 C 
ATOM      8  O   UNL     1     -13.045   8.055 130.506  0.00  0.00    +0.000 OA
ENDBRANCH   1   8
BRANCH   4   9
ATOM      9  O   UNL     1      -8.180   5.624 129.691  0.00  0.00    +0.000 OA
ATOM     10  C   UNL     1      -8.299   4.454 128.896  0.00  0.00    +0.000 C 
ENDBRANCH   4   9
BRANCH   3  11
ATOM     11  C   UNL     1      -9.209   5.746 132.435  0.00  0.00    +0.000 C 
BRANCH  11  12
ATOM     12  O   UNL     1      -9.694   6.476 133.564  0.00  0.00    +0.000 OA
ATOM     13  H   UNL     1      -9.410   7.396 133.436  0.00  0.00    +0.000 HD
ENDBRANCH  11  12
BRANCH  11  14
ATOM     14  C   UNL     1      -9.292   4.194 132.663  0.00  0.00    +0.000 C 
ATOM     15  C   UNL     1      -7.906   3.519 132.559  0.00  0.00    +0.000 C 
BRANCH  14  16
ATOM     16  N   UNL     1      -9.879   3.785 133.951  0.00  0.00    +0.000 NA
ATOM     17  H   UNL     1      -9.132   3.579 134.611  0.00  0.00    +0.000 HD
ATOM     18  H   UNL     1     -10.383   2.909 133.804  0.00  0.00    +0.000 HD
ENDBRANCH  14  16
ENDBRANCH  11  14
ENDBRANCH   3  11
TORSDOF 6
ENDMDL
MODEL 9
REMARK VINA RESULT:      -4.6      2.404      4.650
REMARK  Name = Methoxamine
REMARK  9 active torsions:
REMARK  status: ('A' for Active; 'I' for Inactive)
REMARK    1  A    between atoms: C_1  and  O_2
REMARK    2  A    between atoms: O_2  and  C_3
REMARK    3  A    between atoms: C_5  and  C_6
REMARK    4  A    between atoms: C_6  and  O_7
REMARK    5  A    between atoms: C_6  and  C_8
REMARK    6  A    between atoms: C_8  and  C_9
REMARK    7  A    between atoms: C_8  and  N_10
REMARK    8  A    between atoms: C_11  and  O_12
REMARK    9  A    between atoms: O_12  and  C_13
REMARK                            x       y       z     vdW  Elec       q    Type
REMARK                         _______ _______ _______ _____ _____    ______ ____
ROOT
ATOM      1  C   UNL     1      -8.596   2.208 124.663  0.00  0.00    +0.000 A 
ATOM      2  C   UNL     1      -9.165   1.066 125.236  0.00  0.00    +0.000 A 
ATOM      3  C   UNL     1      -8.714  -0.215 124.857  0.00  0.00    +0.000 A 
ATOM      4  C   UNL     1      -7.807  -0.316 123.781  0.00  0.00    +0.000 A 
ATOM      5  C   UNL     1      -7.151   0.820 123.318  0.00  0.00    +0.000 A 
ATOM      6  C   UNL     1      -7.534   2.071 123.778  0.00  0.00    +0.000 A 
ENDROOT
BRANCH   1   8
ATOM      7  C   UNL     1      -8.019   4.304 125.522  0.00  0.00    +0.000 C 
ATOM      8  O   UNL     1      -9.058   3.424 125.087  0.00  0.00    +0.000 OA
ENDBRANCH   1   8
BRANCH   4   9
ATOM      9  O   UNL     1      -7.622  -1.540 123.210  0.00  0.00    +0.000 OA
ATOM     10  C   UNL     1      -6.400  -1.828 122.546  0.00  0.00    +0.000 C 
ENDBRANCH   4   9
BRANCH   3  11
ATOM     11  C   UNL     1      -9.121  -1.408 125.727  0.00  0.00    +0.000 C 
BRANCH  11  12
ATOM     12  O   UNL     1      -9.596  -2.445 124.865  0.00  0.00    +0.000 OA
ATOM     13  H   UNL     1      -9.755  -3.218 125.432  0.00  0.00    +0.000 HD
ENDBRANCH  11  12
BRANCH  11  14
ATOM     14  C   UNL     1      -8.030  -1.934 126.727  0.00  0.00    +0.000 C 
ATOM     15  C   UNL     1      -8.548  -3.112 127.582  0.00  0.00    +0.000 C 
BRANCH  14  16
ATOM     16  N   UNL     1      -6.770  -2.373 126.101  0.00  0.00    +0.000 NA
ATOM     17  H   UNL     1      -6.618  -3.358 126.305  0.00  0.00    +0.000 HD
ATOM     18  H   UNL     1      -6.004  -1.865 126.544  0.00  0.00    +0.000 HD
ENDBRANCH  14  16
ENDBRANCH  11  14
ENDBRANCH   3  11
TORSDOF 6
ENDMDL
