MODEL 1
REMARK VINA RESULT:      -7.1      0.000      0.000
REMARK  Name = Methantheline
REMARK  10 active torsions:
REMARK  status: ('A' for Active; 'I' for Inactive)
REMARK    1  A    between atoms: C_1  and  C_2
REMARK    2  A    between atoms: C_2  and  N_3
REMARK    3  A    between atoms: N_3  and  C_4
REMARK    4  A    between atoms: N_3  and  C_5
REMARK    5  A    between atoms: N_3  and  C_7
REMARK    6  A    between atoms: C_5  and  C_6
REMARK    7  A    between atoms: C_7  and  C_8
REMARK    8  A    between atoms: C_8  and  O_9
REMARK    9  A    between atoms: O_9  and  C_10
REMARK   10  A    between atoms: C_10  and  C_12
REMARK                            x       y       z     vdW  Elec       q    Type
REMARK                         _______ _______ _______ _____ _____    ______ ____
ROOT
ATOM      1  C   UNL     1      -8.793   2.655 123.757  0.00  0.00    +0.000 C 
ATOM      2  C   UNL     1      -8.072   3.171 122.528  0.00  0.00    +0.000 A 
ATOM      3  C   UNL     1      -8.761   3.433 121.330  0.00  0.00    +0.000 A 
ATOM      4  C   UNL     1      -8.080   3.885 120.198  0.00  0.00    +0.000 A 
ATOM      5  C   UNL     1      -6.708   4.107 120.254  0.00  0.00    +0.000 A 
ATOM      6  C   UNL     1      -6.019   3.876 121.441  0.00  0.00    +0.000 A 
ATOM      7  C   UNL     1      -6.696   3.408 122.569  0.00  0.00    +0.000 A 
ATOM      8  O   UNL     1      -5.917   3.207 123.676  0.00  0.00    +0.000 OA
ATOM      9  C   UNL     1      -6.495   2.700 124.809  0.00  0.00    +0.000 A 
ATOM     10  C   UNL     1      -5.624   2.455 125.872  0.00  0.00    +0.000 A 
ATOM     11  C   UNL     1      -6.108   1.936 127.070  0.00  0.00    +0.000 A 
ATOM     12  C   UNL     1      -7.467   1.667 127.207  0.00  0.00    +0.000 A 
ATOM     13  C   UNL     1      -8.340   1.918 126.148  0.00  0.00    +0.000 A 
ATOM     14  C   UNL     1      -7.859   2.426 124.928  0.00  0.00    +0.000 A 
ENDROOT
BRANCH   1  15
ATOM     15  C   UNL     1      -9.565   1.371 123.431  0.00  0.00    +0.000 C 
ATOM     16  O   UNL     1     -10.758   1.181 123.616  0.00  0.00    +0.000 OA
BRANCH  15  17
ATOM     17  O   UNL     1      -8.735   0.408 122.889  0.00  0.00    +0.000 OA
BRANCH  17  18
ATOM     18  C   UNL     1      -9.049  -0.889 123.406  0.00  0.00    +0.000 C 
BRANCH  18  19
ATOM     19  C   UNL     1      -8.078  -1.967 122.892  0.00  0.00    +0.000 C 
BRANCH  19  20
ATOM     20  N   UNL     1      -7.038  -2.451 123.992  0.00  0.00    +0.000 N 
ATOM     21  C   UNL     1      -7.468  -3.848 124.446  0.00  0.00    +0.000 C 
BRANCH  20  23
ATOM     22  C   UNL     1      -4.797  -3.719 123.680  0.00  0.00    +0.000 C 
ATOM     23  C   UNL     1      -5.651  -2.520 123.290  0.00  0.00    +0.000 C 
ENDBRANCH  20  23
BRANCH  20  24
ATOM     24  C   UNL     1      -7.059  -1.423 125.146  0.00  0.00    +0.000 C 
ATOM     25  C   UNL     1      -7.268  -1.996 126.534  0.00  0.00    +0.000 C 
ENDBRANCH  20  24
ENDBRANCH  19  20
ENDBRANCH  18  19
ENDBRANCH  17  18
ENDBRANCH  15  17
ENDBRANCH   1  15
TORSDOF 7
ENDMDL
MODEL 2
REMARK VINA RESULT:      -7.0      2.493      6.193
REMARK  Name = Methantheline
REMARK  10 active torsions:
REMARK  status: ('A' for Active; 'I' for Inactive)
REMARK    1  A    between atoms: C_1  and  C_2
REMARK    2  A    between atoms: C_2  and  N_3
REMARK    3  A    between atoms: N_3  and  C_4
REMARK    4  A    between atoms: N_3  and  C_5
REMARK    5  A    between atoms: N_3  and  C_7
REMARK    6  A    between atoms: C_5  and  C_6
REMARK    7  A    between atoms: C_7  and  C_8
REMARK    8  A    between atoms: C_8  and  O_9
REMARK    9  A    between atoms: O_9  and  C_10
REMARK   10  A    between atoms: C_10  and  C_12
REMARK                            x       y       z     vdW  Elec       q    Type
REMARK                         _______ _______ _______ _____ _____    ______ ____
ROOT
ATOM      1  C   UNL     1      -6.346  -2.088 126.088  0.00  0.00    +0.000 C 
ATOM      2  C   UNL     1      -7.363  -2.399 125.010  0.00  0.00    +0.000 A 
ATOM      3  C   UNL     1      -7.116  -2.096 123.659  0.00  0.00    +0.000 A 
ATOM      4  C   UNL     1      -8.073  -2.366 122.679  0.00  0.00    +0.000 A 
ATOM      5  C   UNL     1      -9.278  -2.965 123.029  0.00  0.00    +0.000 A 
ATOM      6  C   UNL     1      -9.525  -3.292 124.359  0.00  0.00    +0.000 A 
ATOM      7  C   UNL     1      -8.576  -3.008 125.342  0.00  0.00    +0.000 A 
ATOM      8  O   UNL     1      -8.930  -3.365 126.616  0.00  0.00    +0.000 OA
ATOM      9  C   UNL     1      -8.076  -3.073 127.646  0.00  0.00    +0.000 A 
ATOM     10  C   UNL     1      -8.537  -3.402 128.922  0.00  0.00    +0.000 A 
ATOM     11  C   UNL     1      -7.748  -3.145 130.040  0.00  0.00    +0.000 A 
ATOM     12  C   UNL     1      -6.494  -2.564 129.882  0.00  0.00    +0.000 A 
ATOM     13  C   UNL     1      -6.028  -2.241 128.607  0.00  0.00    +0.000 A 
ATOM     14  C   UNL     1      -6.823  -2.481 127.472  0.00  0.00    +0.000 A 
ENDROOT
BRANCH   1  15
ATOM     15  C   UNL     1      -5.962  -0.604 126.057  0.00  0.00    +0.000 C 
ATOM     16  O   UNL     1      -4.834  -0.154 125.926  0.00  0.00    +0.000 OA
BRANCH  15  17
ATOM     17  O   UNL     1      -7.072   0.206 126.207  0.00  0.00    +0.000 OA
BRANCH  17  18
ATOM     18  C   UNL     1      -6.867   1.476 125.580  0.00  0.00    +0.000 C 
BRANCH  18  19
ATOM     19  C   UNL     1      -7.314   1.472 124.106  0.00  0.00    +0.000 C 
BRANCH  19  20
ATOM     20  N   UNL     1      -8.544   2.435 123.820  0.00  0.00    +0.000 N 
ATOM     21  C   UNL     1      -8.512   3.546 124.872  0.00  0.00    +0.000 C 
BRANCH  20  23
ATOM     22  C   UNL     1      -6.855   3.227 122.017  0.00  0.00    +0.000 C 
ATOM     23  C   UNL     1      -8.317   3.035 122.402  0.00  0.00    +0.000 C 
ENDBRANCH  20  23
BRANCH  20  24
ATOM     24  C   UNL     1      -9.834   1.587 123.896  0.00  0.00    +0.000 C 
ATOM     25  C   UNL     1     -10.148   0.755 122.668  0.00  0.00    +0.000 C 
ENDBRANCH  20  24
ENDBRANCH  19  20
ENDBRANCH  18  19
ENDBRANCH  17  18
ENDBRANCH  15  17
ENDBRANCH   1  15
TORSDOF 7
ENDMDL
MODEL 3
REMARK VINA RESULT:      -6.8      3.366      5.812
REMARK  Name = Methantheline
REMARK  10 active torsions:
REMARK  status: ('A' for Active; 'I' for Inactive)
REMARK    1  A    between atoms: C_1  and  C_2
REMARK    2  A    between atoms: C_2  and  N_3
REMARK    3  A    between atoms: N_3  and  C_4
REMARK    4  A    between atoms: N_3  and  C_5
REMARK    5  A    between atoms: N_3  and  C_7
REMARK    6  A    between atoms: C_5  and  C_6
REMARK    7  A    between atoms: C_7  and  C_8
REMARK    8  A    between atoms: C_8  and  O_9
REMARK    9  A    between atoms: O_9  and  C_10
REMARK   10  A    between atoms: C_10  and  C_12
REMARK                            x       y       z     vdW  Elec       q    Type
REMARK                         _______ _______ _______ _____ _____    ______ ____
ROOT
ATOM      1  C   UNL     1      -6.162   3.308 123.668  0.00  0.00    +0.000 C 
ATOM      2  C   UNL     1      -6.143   3.806 122.237  0.00  0.00    +0.000 A 
ATOM      3  C   UNL     1      -5.039   4.508 121.720  0.00  0.00    +0.000 A 
ATOM      4  C   UNL     1      -5.045   4.982 120.407  0.00  0.00    +0.000 A 
ATOM      5  C   UNL     1      -6.141   4.741 119.585  0.00  0.00    +0.000 A 
ATOM      6  C   UNL     1      -7.229   4.026 120.077  0.00  0.00    +0.000 A 
ATOM      7  C   UNL     1      -7.231   3.565 121.395  0.00  0.00    +0.000 A 
ATOM      8  O   UNL     1      -8.357   2.884 121.773  0.00  0.00    +0.000 OA
ATOM      9  C   UNL     1      -8.460   2.444 123.066  0.00  0.00    +0.000 A 
ATOM     10  C   UNL     1      -9.666   1.822 123.395  0.00  0.00    +0.000 A 
ATOM     11  C   UNL     1      -9.877   1.339 124.684  0.00  0.00    +0.000 A 
ATOM     12  C   UNL     1      -8.878   1.474 125.644  0.00  0.00    +0.000 A 
ATOM     13  C   UNL     1      -7.669   2.089 125.314  0.00  0.00    +0.000 A 
ATOM     14  C   UNL     1      -7.452   2.595 124.020  0.00  0.00    +0.000 A 
ENDROOT
BRANCH   1  15
ATOM     15  C   UNL     1      -5.906   4.461 124.645  0.00  0.00    +0.000 C 
ATOM     16  O   UNL     1      -6.569   5.482 124.745  0.00  0.00    +0.000 OA
BRANCH  15  17
ATOM     17  O   UNL     1      -4.795   4.217 125.431  0.00  0.00    +0.000 OA
BRANCH  17  18
ATOM     18  C   UNL     1      -4.810   5.034 126.606  0.00  0.00    +0.000 C 
BRANCH  18  19
ATOM     19  C   UNL     1      -4.717   4.196 127.894  0.00  0.00    +0.000 C 
BRANCH  19  20
ATOM     20  N   UNL     1      -3.245   4.119 128.488  0.00  0.00    +0.000 N 
ATOM     21  C   UNL     1      -2.525   5.413 128.101  0.00  0.00    +0.000 C 
BRANCH  20  23
ATOM     22  C   UNL     1      -4.775   3.607 130.519  0.00  0.00    +0.000 C 
ATOM     23  C   UNL     1      -3.395   4.033 130.034  0.00  0.00    +0.000 C 
ENDBRANCH  20  23
BRANCH  20  24
ATOM     24  C   UNL     1      -2.563   2.864 127.896  0.00  0.00    +0.000 C 
ATOM     25  C   UNL     1      -1.670   3.106 126.695  0.00  0.00    +0.000 C 
ENDBRANCH  20  24
ENDBRANCH  19  20
ENDBRANCH  18  19
ENDBRANCH  17  18
ENDBRANCH  15  17
ENDBRANCH   1  15
TORSDOF 7
ENDMDL
MODEL 4
REMARK VINA RESULT:      -6.7      7.541      9.145
REMARK  Name = Methantheline
REMARK  10 active torsions:
REMARK  status: ('A' for Active; 'I' for Inactive)
REMARK    1  A    between atoms: C_1  and  C_2
REMARK    2  A    between atoms: C_2  and  N_3
REMARK    3  A    between atoms: N_3  and  C_4
REMARK    4  A    between atoms: N_3  and  C_5
REMARK    5  A    between atoms: N_3  and  C_7
REMARK    6  A    between atoms: C_5  and  C_6
REMARK    7  A    between atoms: C_7  and  C_8
REMARK    8  A    between atoms: C_8  and  O_9
REMARK    9  A    between atoms: O_9  and  C_10
REMARK   10  A    between atoms: C_10  and  C_12
REMARK                            x       y       z     vdW  Elec       q    Type
REMARK                         _______ _______ _______ _____ _____    ______ ____
ROOT
ATOM      1  C   UNL     1      -9.065   5.858 132.706  0.00  0.00    +0.000 C 
ATOM      2  C   UNL     1      -9.997   6.420 131.652  0.00  0.00    +0.000 A 
ATOM      3  C   UNL     1     -11.392   6.277 131.755  0.00  0.00    +0.000 A 
ATOM      4  C   UNL     1     -12.237   6.778 130.764  0.00  0.00    +0.000 A 
ATOM      5  C   UNL     1     -11.705   7.452 129.670  0.00  0.00    +0.000 A 
ATOM      6  C   UNL     1     -10.327   7.622 129.568  0.00  0.00    +0.000 A 
ATOM      7  C   UNL     1      -9.480   7.106 130.551  0.00  0.00    +0.000 A 
ATOM      8  O   UNL     1      -8.144   7.324 130.342  0.00  0.00    +0.000 OA
ATOM      9  C   UNL     1      -7.243   6.806 131.233  0.00  0.00    +0.000 A 
ATOM     10  C   UNL     1      -5.898   7.008 130.915  0.00  0.00    +0.000 A 
ATOM     11  C   UNL     1      -4.899   6.518 131.752  0.00  0.00    +0.000 A 
ATOM     12  C   UNL     1      -5.244   5.831 132.912  0.00  0.00    +0.000 A 
ATOM     13  C   UNL     1      -6.587   5.635 133.235  0.00  0.00    +0.000 A 
ATOM     14  C   UNL     1      -7.605   6.110 132.388  0.00  0.00    +0.000 A 
ENDROOT
BRANCH   1  15
ATOM     15  C   UNL     1      -9.317   4.359 132.906  0.00  0.00    +0.000 C 
ATOM     16  O   UNL     1      -9.442   3.786 133.978  0.00  0.00    +0.000 OA
BRANCH  15  17
ATOM     17  O   UNL     1      -9.382   3.694 131.696  0.00  0.00    +0.000 OA
BRANCH  17  18
ATOM     18  C   UNL     1      -9.224   2.283 131.879  0.00  0.00    +0.000 C 
BRANCH  18  19
ATOM     19  C   UNL     1      -8.160   1.694 130.935  0.00  0.00    +0.000 C 
BRANCH  19  20
ATOM     20  N   UNL     1      -6.806   1.312 131.675  0.00  0.00    +0.000 N 
ATOM     21  C   UNL     1      -6.329  -0.023 131.099  0.00  0.00    +0.000 C 
BRANCH  20  23
ATOM     22  C   UNL     1      -6.186   3.336 130.176  0.00  0.00    +0.000 C 
ATOM     23  C   UNL     1      -5.785   2.436 131.338  0.00  0.00    +0.000 C 
ENDBRANCH  20  23
BRANCH  20  24
ATOM     24  C   UNL     1      -7.105   1.228 133.189  0.00  0.00    +0.000 C 
ATOM     25  C   UNL     1      -6.218   2.073 134.082  0.00  0.00    +0.000 C 
ENDBRANCH  20  24
ENDBRANCH  19  20
ENDBRANCH  18  19
ENDBRANCH  17  18
ENDBRANCH  15  17
ENDBRANCH   1  15
TORSDOF 7
ENDMDL
MODEL 5
REMARK VINA RESULT:      -6.7      1.483      4.268
REMARK  Name = Methantheline
REMARK  10 active torsions:
REMARK  status: ('A' for Active; 'I' for Inactive)
REMARK    1  A    between atoms: C_1  and  C_2
REMARK    2  A    between atoms: C_2  and  N_3
REMARK    3  A    between atoms: N_3  and  C_4
REMARK    4  A    between atoms: N_3  and  C_5
REMARK    5  A    between atoms: N_3  and  C_7
REMARK    6  A    between atoms: C_5  and  C_6
REMARK    7  A    between atoms: C_7  and  C_8
REMARK    8  A    between atoms: C_8  and  O_9
REMARK    9  A    between atoms: O_9  and  C_10
REMARK   10  A    between atoms: C_10  and  C_12
REMARK                            x       y       z     vdW  Elec       q    Type
REMARK                         _______ _______ _______ _____ _____    ______ ____
ROOT
ATOM      1  C   UNL     1      -7.048   2.701 124.324  0.00  0.00    +0.000 C 
ATOM      2  C   UNL     1      -6.124   3.012 125.484  0.00  0.00    +0.000 A 
ATOM      3  C   UNL     1      -6.394   2.545 126.783  0.00  0.00    +0.000 A 
ATOM      4  C   UNL     1      -5.547   2.860 127.846  0.00  0.00    +0.000 A 
ATOM      5  C   UNL     1      -4.405   3.622 127.624  0.00  0.00    +0.000 A 
ATOM      6  C   UNL     1      -4.113   4.070 126.339  0.00  0.00    +0.000 A 
ATOM      7  C   UNL     1      -4.968   3.769 125.278  0.00  0.00    +0.000 A 
ATOM      8  O   UNL     1      -4.586   4.269 124.061  0.00  0.00    +0.000 OA
ATOM      9  C   UNL     1      -5.398   4.063 122.978  0.00  0.00    +0.000 A 
ATOM     10  C   UNL     1      -4.979   4.663 121.789  0.00  0.00    +0.000 A 
ATOM     11  C   UNL     1      -5.733   4.519 120.627  0.00  0.00    +0.000 A 
ATOM     12  C   UNL     1      -6.905   3.769 120.653  0.00  0.00    +0.000 A 
ATOM     13  C   UNL     1      -7.322   3.163 121.838  0.00  0.00    +0.000 A 
ATOM     14  C   UNL     1      -6.577   3.315 123.021  0.00  0.00    +0.000 A 
ENDROOT
BRANCH   1  15
ATOM     15  C   UNL     1      -8.480   3.150 124.639  0.00  0.00    +0.000 C 
ATOM     16  O   UNL     1      -8.805   4.197 125.178  0.00  0.00    +0.000 OA
BRANCH  15  17
ATOM     17  O   UNL     1      -9.404   2.203 124.238  0.00  0.00    +0.000 OA
BRANCH  17  18
ATOM     18  C   UNL     1      -9.060   0.908 124.739  0.00  0.00    +0.000 C 
BRANCH  18  19
ATOM     19  C   UNL     1      -9.008  -0.150 123.622  0.00  0.00    +0.000 C 
BRANCH  19  20
ATOM     20  N   UNL     1      -7.869  -1.237 123.839  0.00  0.00    +0.000 N 
ATOM     21  C   UNL     1      -6.737  -0.917 122.861  0.00  0.00    +0.000 C 
BRANCH  20  23
ATOM     22  C   UNL     1      -5.869  -0.882 125.452  0.00  0.00    +0.000 C 
ATOM     23  C   UNL     1      -7.373  -1.073 125.304  0.00  0.00    +0.000 C 
ENDBRANCH  20  23
BRANCH  20  24
ATOM     24  C   UNL     1      -8.492  -2.629 123.586  0.00  0.00    +0.000 C 
ATOM     25  C   UNL     1      -8.489  -3.576 124.769  0.00  0.00    +0.000 C 
ENDBRANCH  20  24
ENDBRANCH  19  20
ENDBRANCH  18  19
ENDBRANCH  17  18
ENDBRANCH  15  17
ENDBRANCH   1  15
TORSDOF 7
ENDMDL
MODEL 6
REMARK VINA RESULT:      -6.5      2.984      6.062
REMARK  Name = Methantheline
REMARK  10 active torsions:
REMARK  status: ('A' for Active; 'I' for Inactive)
REMARK    1  A    between atoms: C_1  and  C_2
REMARK    2  A    between atoms: C_2  and  N_3
REMARK    3  A    between atoms: N_3  and  C_4
REMARK    4  A    between atoms: N_3  and  C_5
REMARK    5  A    between atoms: N_3  and  C_7
REMARK    6  A    between atoms: C_5  and  C_6
REMARK    7  A    between atoms: C_7  and  C_8
REMARK    8  A    between atoms: C_8  and  O_9
REMARK    9  A    between atoms: O_9  and  C_10
REMARK   10  A    between atoms: C_10  and  C_12
REMARK                            x       y       z     vdW  Elec       q    Type
REMARK                         _______ _______ _______ _____ _____    ______ ____
ROOT
ATOM      1  C   UNL     1      -7.593   0.464 126.190  0.00  0.00    +0.000 C 
ATOM      2  C   UNL     1      -8.209   1.018 124.922  0.00  0.00    +0.000 A 
ATOM      3  C   UNL     1      -7.909   2.314 124.466  0.00  0.00    +0.000 A 
ATOM      4  C   UNL     1      -8.503   2.820 123.309  0.00  0.00    +0.000 A 
ATOM      5  C   UNL     1      -9.384   2.031 122.577  0.00  0.00    +0.000 A 
ATOM      6  C   UNL     1      -9.671   0.738 123.004  0.00  0.00    +0.000 A 
ATOM      7  C   UNL     1      -9.090   0.237 124.170  0.00  0.00    +0.000 A 
ATOM      8  O   UNL     1      -9.451  -1.043 124.498  0.00  0.00    +0.000 OA
ATOM      9  C   UNL     1      -8.966  -1.590 125.656  0.00  0.00    +0.000 A 
ATOM     10  C   UNL     1      -9.436  -2.870 125.960  0.00  0.00    +0.000 A 
ATOM     11  C   UNL     1      -9.008  -3.517 127.116  0.00  0.00    +0.000 A 
ATOM     12  C   UNL     1      -8.104  -2.887 127.966  0.00  0.00    +0.000 A 
ATOM     13  C   UNL     1      -7.629  -1.612 127.661  0.00  0.00    +0.000 A 
ATOM     14  C   UNL     1      -8.067  -0.941 126.505  0.00  0.00    +0.000 A 
ENDROOT
BRANCH   1  15
ATOM     15  C   UNL     1      -7.866   1.396 127.376  0.00  0.00    +0.000 C 
ATOM     16  O   UNL     1      -8.965   1.746 127.780  0.00  0.00    +0.000 OA
BRANCH  15  17
ATOM     17  O   UNL     1      -6.690   1.824 127.962  0.00  0.00    +0.000 OA
BRANCH  17  18
ATOM     18  C   UNL     1      -6.484   3.222 127.737  0.00  0.00    +0.000 C 
BRANCH  18  19
ATOM     19  C   UNL     1      -5.189   3.730 128.397  0.00  0.00    +0.000 C 
BRANCH  19  20
ATOM     20  N   UNL     1      -4.037   4.054 127.352  0.00  0.00    +0.000 N 
ATOM     21  C   UNL     1      -4.651   3.979 125.953  0.00  0.00    +0.000 C 
BRANCH  20  23
ATOM     22  C   UNL     1      -2.738   5.658 128.923  0.00  0.00    +0.000 C 
ATOM     23  C   UNL     1      -3.563   5.505 127.651  0.00  0.00    +0.000 C 
ENDBRANCH  20  23
BRANCH  20  24
ATOM     24  C   UNL     1      -2.909   3.017 127.558  0.00  0.00    +0.000 C 
ATOM     25  C   UNL     1      -1.802   3.035 126.522  0.00  0.00    +0.000 C 
ENDBRANCH  20  24
ENDBRANCH  19  20
ENDBRANCH  18  19
ENDBRANCH  17  18
ENDBRANCH  15  17
ENDBRANCH   1  15
TORSDOF 7
ENDMDL
MODEL 7
REMARK VINA RESULT:      -6.5      3.872      7.582
REMARK  Name = Methantheline
REMARK  10 active torsions:
REMARK  status: ('A' for Active; 'I' for Inactive)
REMARK    1  A    between atoms: C_1  and  C_2
REMARK    2  A    between atoms: C_2  and  N_3
REMARK    3  A    between atoms: N_3  and  C_4
REMARK    4  A    between atoms: N_3  and  C_5
REMARK    5  A    between atoms: N_3  and  C_7
REMARK    6  A    between atoms: C_5  and  C_6
REMARK    7  A    between atoms: C_7  and  C_8
REMARK    8  A    between atoms: C_8  and  O_9
REMARK    9  A    between atoms: O_9  and  C_10
REMARK   10  A    between atoms: C_10  and  C_12
REMARK                            x       y       z     vdW  Elec       q    Type
REMARK                         _______ _______ _______ _____ _____    ______ ____
ROOT
ATOM      1  C   UNL     1      -7.741  -0.761 126.308  0.00  0.00    +0.000 C 
ATOM      2  C   UNL     1      -7.784  -1.544 127.604  0.00  0.00    +0.000 A 
ATOM      3  C   UNL     1      -7.260  -1.016 128.798  0.00  0.00    +0.000 A 
ATOM      4  C   UNL     1      -7.285  -1.758 129.979  0.00  0.00    +0.000 A 
ATOM      5  C   UNL     1      -7.855  -3.026 129.993  0.00  0.00    +0.000 A 
ATOM      6  C   UNL     1      -8.399  -3.551 128.824  0.00  0.00    +0.000 A 
ATOM      7  C   UNL     1      -8.360  -2.816 127.638  0.00  0.00    +0.000 A 
ATOM      8  O   UNL     1      -8.916  -3.434 126.550  0.00  0.00    +0.000 OA
ATOM      9  C   UNL     1      -8.872  -2.802 125.336  0.00  0.00    +0.000 A 
ATOM     10  C   UNL     1      -9.393  -3.526 124.262  0.00  0.00    +0.000 A 
ATOM     11  C   UNL     1      -9.395  -2.976 122.982  0.00  0.00    +0.000 A 
ATOM     12  C   UNL     1      -8.880  -1.700 122.778  0.00  0.00    +0.000 A 
ATOM     13  C   UNL     1      -8.365  -0.973 123.851  0.00  0.00    +0.000 A 
ATOM     14  C   UNL     1      -8.343  -1.524 125.145  0.00  0.00    +0.000 A 
ENDROOT
BRANCH   1  15
ATOM     15  C   UNL     1      -6.304  -0.337 125.980  0.00  0.00    +0.000 C 
ATOM     16  O   UNL     1      -5.361  -1.085 125.774  0.00  0.00    +0.000 OA
BRANCH  15  17
ATOM     17  O   UNL     1      -6.181   1.040 125.948  0.00  0.00    +0.000 OA
BRANCH  17  18
ATOM     18  C   UNL     1      -5.057   1.472 126.721  0.00  0.00    +0.000 C 
BRANCH  18  19
ATOM     19  C   UNL     1      -4.696   2.943 126.444  0.00  0.00    +0.000 C 
BRANCH  19  20
ATOM     20  N   UNL     1      -3.892   3.626 127.633  0.00  0.00    +0.000 N 
ATOM     21  C   UNL     1      -4.731   4.803 128.137  0.00  0.00    +0.000 C 
BRANCH  20  23
ATOM     22  C   UNL     1      -4.166   3.017 130.139  0.00  0.00    +0.000 C 
ATOM     23  C   UNL     1      -3.752   2.552 128.749  0.00  0.00    +0.000 C 
ENDBRANCH  20  23
BRANCH  20  24
ATOM     24  C   UNL     1      -2.521   4.074 127.077  0.00  0.00    +0.000 C 
ATOM     25  C   UNL     1      -1.594   2.959 126.635  0.00  0.00    +0.000 C 
ENDBRANCH  20  24
ENDBRANCH  19  20
ENDBRANCH  18  19
ENDBRANCH  17  18
ENDBRANCH  15  17
ENDBRANCH   1  15
TORSDOF 7
ENDMDL
MODEL 8
REMARK VINA RESULT:      -6.4      5.730      7.685
REMARK  Name = Methantheline
REMARK  10 active torsions:
REMARK  status: ('A' for Active; 'I' for Inactive)
REMARK    1  A    between atoms: C_1  and  C_2
REMARK    2  A    between atoms: C_2  and  N_3
REMARK    3  A    between atoms: N_3  and  C_4
REMARK    4  A    between atoms: N_3  and  C_5
REMARK    5  A    between atoms: N_3  and  C_7
REMARK    6  A    between atoms: C_5  and  C_6
REMARK    7  A    between atoms: C_7  and  C_8
REMARK    8  A    between atoms: C_8  and  O_9
REMARK    9  A    between atoms: O_9  and  C_10
REMARK   10  A    between atoms: C_10  and  C_12
REMARK                            x       y       z     vdW  Elec       q    Type
REMARK                         _______ _______ _______ _____ _____    ______ ____
ROOT
ATOM      1  C   UNL     1     -10.295   5.368 130.951  0.00  0.00    +0.000 C 
ATOM      2  C   UNL     1     -10.854   6.343 129.934  0.00  0.00    +0.000 A 
ATOM      3  C   UNL     1     -12.158   6.206 129.427  0.00  0.00    +0.000 A 
ATOM      4  C   UNL     1     -12.652   7.097 128.473  0.00  0.00    +0.000 A 
ATOM      5  C   UNL     1     -11.860   8.151 128.030  0.00  0.00    +0.000 A 
ATOM      6  C   UNL     1     -10.576   8.313 128.542  0.00  0.00    +0.000 A 
ATOM      7  C   UNL     1     -10.076   7.412 129.485  0.00  0.00    +0.000 A 
ATOM      8  O   UNL     1      -8.798   7.663 129.910  0.00  0.00    +0.000 OA
ATOM      9  C   UNL     1      -8.215   6.797 130.796  0.00  0.00    +0.000 A 
ATOM     10  C   UNL     1      -6.888   7.078 131.127  0.00  0.00    +0.000 A 
ATOM     11  C   UNL     1      -6.199   6.258 132.017  0.00  0.00    +0.000 A 
ATOM     12  C   UNL     1      -6.839   5.159 132.581  0.00  0.00    +0.000 A 
ATOM     13  C   UNL     1      -8.167   4.881 132.257  0.00  0.00    +0.000 A 
ATOM     14  C   UNL     1      -8.868   5.692 131.346  0.00  0.00    +0.000 A 
ENDROOT
BRANCH   1  15
ATOM     15  C   UNL     1     -10.390   3.930 130.430  0.00  0.00    +0.000 C 
ATOM     16  O   UNL     1     -11.027   3.020 130.938  0.00  0.00    +0.000 OA
BRANCH  15  17
ATOM     17  O   UNL     1      -9.643   3.760 129.279  0.00  0.00    +0.000 OA
BRANCH  17  18
ATOM     18  C   UNL     1      -8.802   2.606 129.380  0.00  0.00    +0.000 C 
BRANCH  18  19
ATOM     19  C   UNL     1      -8.185   2.220 128.023  0.00  0.00    +0.000 C 
BRANCH  19  20
ATOM     20  N   UNL     1      -6.680   2.703 127.858  0.00  0.00    +0.000 N 
ATOM     21  C   UNL     1      -5.804   1.452 127.766  0.00  0.00    +0.000 C 
BRANCH  20  23
ATOM     22  C   UNL     1      -5.640   2.945 125.494  0.00  0.00    +0.000 C 
ATOM     23  C   UNL     1      -6.615   3.501 126.524  0.00  0.00    +0.000 C 
ENDBRANCH  20  23
BRANCH  20  24
ATOM     24  C   UNL     1      -6.330   3.581 129.082  0.00  0.00    +0.000 C 
ATOM     25  C   UNL     1      -5.201   4.572 128.878  0.00  0.00    +0.000 C 
ENDBRANCH  20  24
ENDBRANCH  19  20
ENDBRANCH  18  19
ENDBRANCH  17  18
ENDBRANCH  15  17
ENDBRANCH   1  15
TORSDOF 7
ENDMDL
MODEL 9
REMARK VINA RESULT:      -6.3      3.740      6.534
REMARK  Name = Methantheline
REMARK  10 active torsions:
REMARK  status: ('A' for Active; 'I' for Inactive)
REMARK    1  A    between atoms: C_1  and  C_2
REMARK    2  A    between atoms: C_2  and  N_3
REMARK    3  A    between atoms: N_3  and  C_4
REMARK    4  A    between atoms: N_3  and  C_5
REMARK    5  A    between atoms: N_3  and  C_7
REMARK    6  A    between atoms: C_5  and  C_6
REMARK    7  A    between atoms: C_7  and  C_8
REMARK    8  A    between atoms: C_8  and  O_9
REMARK    9  A    between atoms: O_9  and  C_10
REMARK   10  A    between atoms: C_10  and  C_12
REMARK                            x       y       z     vdW  Elec       q    Type
REMARK                         _______ _______ _______ _____ _____    ______ ____
ROOT
ATOM      1  C   UNL     1      -7.682   0.405 126.566  0.00  0.00    +0.000 C 
ATOM      2  C   UNL     1      -8.247   0.949 125.270  0.00  0.00    +0.000 A 
ATOM      3  C   UNL     1      -7.986   2.266 124.851  0.00  0.00    +0.000 A 
ATOM      4  C   UNL     1      -8.533   2.761 123.667  0.00  0.00    +0.000 A 
ATOM      5  C   UNL     1      -9.328   1.942 122.871  0.00  0.00    +0.000 A 
ATOM      6  C   UNL     1      -9.574   0.629 123.262  0.00  0.00    +0.000 A 
ATOM      7  C   UNL     1      -9.040   0.138 124.455  0.00  0.00    +0.000 A 
ATOM      8  O   UNL     1      -9.356  -1.163 124.743  0.00  0.00    +0.000 OA
ATOM      9  C   UNL     1      -8.915  -1.705 125.921  0.00  0.00    +0.000 A 
ATOM     10  C   UNL     1      -9.338  -3.011 126.177  0.00  0.00    +0.000 A 
ATOM     11  C   UNL     1      -8.948  -3.656 127.348  0.00  0.00    +0.000 A 
ATOM     12  C   UNL     1      -8.131  -2.996 128.261  0.00  0.00    +0.000 A 
ATOM     13  C   UNL     1      -7.702  -1.694 128.003  0.00  0.00    +0.000 A 
ATOM     14  C   UNL     1      -8.103  -1.027 126.831  0.00  0.00    +0.000 A 
ENDROOT
BRANCH   1  15
ATOM     15  C   UNL     1      -8.073   1.303 127.746  0.00  0.00    +0.000 C 
ATOM     16  O   UNL     1      -9.185   1.759 127.966  0.00  0.00    +0.000 OA
BRANCH  15  17
ATOM     17  O   UNL     1      -6.990   1.559 128.565  0.00  0.00    +0.000 OA
BRANCH  17  18
ATOM     18  C   UNL     1      -7.296   2.585 129.514  0.00  0.00    +0.000 C 
BRANCH  18  19
ATOM     19  C   UNL     1      -7.210   2.076 130.964  0.00  0.00    +0.000 C 
BRANCH  19  20
ATOM     20  N   UNL     1      -8.568   2.249 131.772  0.00  0.00    +0.000 N 
ATOM     21  C   UNL     1      -9.373   3.355 131.086  0.00  0.00    +0.000 C 
BRANCH  20  23
ATOM     22  C   UNL     1      -8.432  -0.316 131.408  0.00  0.00    +0.000 C 
ATOM     23  C   UNL     1      -9.323   0.893 131.665  0.00  0.00    +0.000 C 
ENDBRANCH  20  23
BRANCH  20  24
ATOM     24  C   UNL     1      -8.205   2.602 133.233  0.00  0.00    +0.000 C 
ATOM     25  C   UNL     1      -9.010   3.725 133.857  0.00  0.00    +0.000 C 
ENDBRANCH  20  24
ENDBRANCH  19  20
ENDBRANCH  18  19
ENDBRANCH  17  18
ENDBRANCH  15  17
ENDBRANCH   1  15
TORSDOF 7
ENDMDL
