MODEL 1
REMARK VINA RESULT:      -6.9      0.000      0.000
REMARK  Name = Methohexital
REMARK  8 active torsions:
REMARK  status: ('A' for Active; 'I' for Inactive)
REMARK    1  A    between atoms: C_1  and  C_2
REMARK    2  A    between atoms: C_2  and  C_3
REMARK    3  A    between atoms: C_4  and  C_5
REMARK    4  A    between atoms: C_5  and  C_6
REMARK    5  A    between atoms: C_5  and  C_7
REMARK    6  A    between atoms: C_7  and  C_8
REMARK    7  A    between atoms: C_8  and  C_9
REMARK    8  A    between atoms: N_16  and  C_17
REMARK                            x       y       z     vdW  Elec       q    Type
REMARK                         _______ _______ _______ _____ _____    ______ ____
ROOT
ATOM      1  C   UNL     1      -7.847  -1.365 124.209  0.00  0.00    +0.000 C 
ATOM      2  C   UNL     1      -7.194  -0.932 125.519  0.00  0.00    +0.000 C 
ATOM      3  O   UNL     1      -6.343  -1.591 126.119  0.00  0.00    +0.000 OA
ATOM      4  N   UNL     1      -7.484   0.324 125.959  0.00  0.00    +0.000 N 
ATOM      5  C   UNL     1      -8.481   1.147 125.524  0.00  0.00    +0.000 C 
ATOM      6  O   UNL     1      -8.577   2.273 125.994  0.00  0.00    +0.000 OA
ATOM      7  N   UNL     1      -9.303   0.645 124.539  0.00  0.00    +0.000 N 
ATOM      8  C   UNL     1     -10.427   1.444 124.081  0.00  0.00    +0.000 C 
ATOM      9  C   UNL     1      -9.048  -0.504 123.815  0.00  0.00    +0.000 C 
ATOM     10  O   UNL     1      -9.711  -0.742 122.800  0.00  0.00    +0.000 OA
ATOM     11  H   UNL     1      -6.920   0.671 126.722  0.00  0.00    +0.000 HD
ENDROOT
BRANCH   1  12
ATOM     12  C   UNL     1      -8.219  -2.896 124.245  0.00  0.00    +0.000 C 
ATOM     13  C   UNL     1      -9.420  -3.302 123.378  0.00  0.00    +0.000 C 
BRANCH  12  15
ATOM     14  C   UNL     1      -8.839  -3.606 126.907  0.00  0.00    +0.000 C 
ATOM     15  C   UNL     1      -8.552  -3.278 125.678  0.00  0.00    +0.000 C 
BRANCH  14  17
ATOM     16  C   UNL     1      -8.254  -3.249 129.297  0.00  0.00    +0.000 C 
ATOM     17  C   UNL     1      -9.172  -3.987 128.340  0.00  0.00    +0.000 C 
ENDBRANCH  14  17
ENDBRANCH  12  15
ENDBRANCH   1  12
BRANCH   1  18
ATOM     18  C   UNL     1      -6.752  -1.130 123.129  0.00  0.00    +0.000 C 
BRANCH  18  19
ATOM     19  C   UNL     1      -6.020  -2.383 122.706  0.00  0.00    +0.000 C 
ATOM     20  C   UNL     1      -4.900  -2.839 123.266  0.00  0.00    +0.000 C 
ENDBRANCH  18  19
ENDBRANCH   1  18
TORSDOF 5
ENDMDL
MODEL 2
REMARK VINA RESULT:      -6.8      1.820      4.346
REMARK  Name = Methohexital
REMARK  8 active torsions:
REMARK  status: ('A' for Active; 'I' for Inactive)
REMARK    1  A    between atoms: C_1  and  C_2
REMARK    2  A    between atoms: C_2  and  C_3
REMARK    3  A    between atoms: C_4  and  C_5
REMARK    4  A    between atoms: C_5  and  C_6
REMARK    5  A    between atoms: C_5  and  C_7
REMARK    6  A    between atoms: C_7  and  C_8
REMARK    7  A    between atoms: C_8  and  C_9
REMARK    8  A    between atoms: N_16  and  C_17
REMARK                            x       y       z     vdW  Elec       q    Type
REMARK                         _______ _______ _______ _____ _____    ______ ____
ROOT
ATOM      1  C   UNL     1      -8.314  -0.992 125.271  0.00  0.00    +0.000 C 
ATOM      2  C   UNL     1      -7.095  -0.407 125.980  0.00  0.00    +0.000 C 
ATOM      3  O   UNL     1      -6.384   0.485 125.512  0.00  0.00    +0.000 OA
ATOM      4  N   UNL     1      -6.880  -0.815 127.262  0.00  0.00    +0.000 N 
ATOM      5  C   UNL     1      -7.458  -1.870 127.905  0.00  0.00    +0.000 C 
ATOM      6  O   UNL     1      -7.190  -2.074 129.082  0.00  0.00    +0.000 OA
ATOM      7  N   UNL     1      -8.346  -2.624 127.169  0.00  0.00    +0.000 N 
ATOM      8  C   UNL     1      -8.942  -3.803 127.773  0.00  0.00    +0.000 C 
ATOM      9  C   UNL     1      -8.858  -2.254 125.941  0.00  0.00    +0.000 C 
ATOM     10  O   UNL     1      -9.821  -2.872 125.473  0.00  0.00    +0.000 OA
ATOM     11  H   UNL     1      -6.186  -0.300 127.784  0.00  0.00    +0.000 HD
ENDROOT
BRANCH   1  12
ATOM     12  C   UNL     1      -8.016  -1.229 123.742  0.00  0.00    +0.000 C 
ATOM     13  C   UNL     1      -9.081  -2.033 122.981  0.00  0.00    +0.000 C 
BRANCH  12  15
ATOM     14  C   UNL     1      -5.585  -2.647 123.513  0.00  0.00    +0.000 C 
ATOM     15  C   UNL     1      -6.707  -1.993 123.619  0.00  0.00    +0.000 C 
BRANCH  14  17
ATOM     16  C   UNL     1      -4.518  -4.890 123.631  0.00  0.00    +0.000 C 
ATOM     17  C   UNL     1      -4.276  -3.411 123.390  0.00  0.00    +0.000 C 
ENDBRANCH  14  17
ENDBRANCH  12  15
ENDBRANCH   1  12
BRANCH   1  18
ATOM     18  C   UNL     1      -9.412   0.102 125.414  0.00  0.00    +0.000 C 
BRANCH  18  19
ATOM     19  C   UNL     1      -9.451   1.093 124.274  0.00  0.00    +0.000 C 
ATOM     20  C   UNL     1      -9.136   2.385 124.374  0.00  0.00    +0.000 C 
ENDBRANCH  18  19
ENDBRANCH   1  18
TORSDOF 5
ENDMDL
MODEL 3
REMARK VINA RESULT:      -6.8      8.626      9.954
REMARK  Name = Methohexital
REMARK  8 active torsions:
REMARK  status: ('A' for Active; 'I' for Inactive)
REMARK    1  A    between atoms: C_1  and  C_2
REMARK    2  A    between atoms: C_2  and  C_3
REMARK    3  A    between atoms: C_4  and  C_5
REMARK    4  A    between atoms: C_5  and  C_6
REMARK    5  A    between atoms: C_5  and  C_7
REMARK    6  A    between atoms: C_7  and  C_8
REMARK    7  A    between atoms: C_8  and  C_9
REMARK    8  A    between atoms: N_16  and  C_17
REMARK                            x       y       z     vdW  Elec       q    Type
REMARK                         _______ _______ _______ _____ _____    ______ ____
ROOT
ATOM      1  C   UNL     1     -10.282   6.191 130.242  0.00  0.00    +0.000 C 
ATOM      2  C   UNL     1     -11.538   6.675 130.961  0.00  0.00    +0.000 C 
ATOM      3  O   UNL     1     -11.845   6.354 132.111  0.00  0.00    +0.000 OA
ATOM      4  N   UNL     1     -12.278   7.625 130.323  0.00  0.00    +0.000 N 
ATOM      5  C   UNL     1     -12.188   8.010 129.018  0.00  0.00    +0.000 C 
ATOM      6  O   UNL     1     -12.899   8.920 128.611  0.00  0.00    +0.000 OA
ATOM      7  N   UNL     1     -11.256   7.350 128.248  0.00  0.00    +0.000 N 
ATOM      8  C   UNL     1     -11.159   7.663 126.832  0.00  0.00    +0.000 C 
ATOM      9  C   UNL     1     -10.272   6.520 128.748  0.00  0.00    +0.000 C 
ATOM     10  O   UNL     1      -9.343   6.167 128.013  0.00  0.00    +0.000 OA
ATOM     11  H   UNL     1     -13.002   8.068 130.871  0.00  0.00    +0.000 HD
ENDROOT
BRANCH   1  12
ATOM     12  C   UNL     1     -10.043   4.654 130.498  0.00  0.00    +0.000 C 
ATOM     13  C   UNL     1     -11.285   3.762 130.353  0.00  0.00    +0.000 C 
BRANCH  12  15
ATOM     14  C   UNL     1      -9.085   4.325 133.134  0.00  0.00    +0.000 C 
ATOM     15  C   UNL     1      -9.528   4.477 131.917  0.00  0.00    +0.000 C 
BRANCH  14  17
ATOM     16  C   UNL     1      -7.773   5.370 134.968  0.00  0.00    +0.000 C 
ATOM     17  C   UNL     1      -8.570   4.147 134.552  0.00  0.00    +0.000 C 
ENDBRANCH  14  17
ENDBRANCH  12  15
ENDBRANCH   1  12
BRANCH   1  18
ATOM     18  C   UNL     1      -9.122   7.003 130.888  0.00  0.00    +0.000 C 
BRANCH  18  19
ATOM     19  C   UNL     1      -7.743   6.471 130.574  0.00  0.00    +0.000 C 
ATOM     20  C   UNL     1      -6.626   6.824 131.210  0.00  0.00    +0.000 C 
ENDBRANCH  18  19
ENDBRANCH   1  18
TORSDOF 5
ENDMDL
MODEL 4
REMARK VINA RESULT:      -6.5      1.581      2.461
REMARK  Name = Methohexital
REMARK  8 active torsions:
REMARK  status: ('A' for Active; 'I' for Inactive)
REMARK    1  A    between atoms: C_1  and  C_2
REMARK    2  A    between atoms: C_2  and  C_3
REMARK    3  A    between atoms: C_4  and  C_5
REMARK    4  A    between atoms: C_5  and  C_6
REMARK    5  A    between atoms: C_5  and  C_7
REMARK    6  A    between atoms: C_7  and  C_8
REMARK    7  A    between atoms: C_8  and  C_9
REMARK    8  A    between atoms: N_16  and  C_17
REMARK                            x       y       z     vdW  Elec       q    Type
REMARK                         _______ _______ _______ _____ _____    ______ ____
ROOT
ATOM      1  C   UNL     1      -7.948  -1.520 124.319  0.00  0.00    +0.000 C 
ATOM      2  C   UNL     1      -6.430  -1.359 124.298  0.00  0.00    +0.000 C 
ATOM      3  O   UNL     1      -5.668  -2.070 123.640  0.00  0.00    +0.000 OA
ATOM      4  N   UNL     1      -5.923  -0.274 124.946  0.00  0.00    +0.000 N 
ATOM      5  C   UNL     1      -6.567   0.543 125.828  0.00  0.00    +0.000 C 
ATOM      6  O   UNL     1      -5.977   1.512 126.289  0.00  0.00    +0.000 OA
ATOM      7  N   UNL     1      -7.877   0.225 126.113  0.00  0.00    +0.000 N 
ATOM      8  C   UNL     1      -8.598   1.013 127.098  0.00  0.00    +0.000 C 
ATOM      9  C   UNL     1      -8.632  -0.692 125.408  0.00  0.00    +0.000 C 
ATOM     10  O   UNL     1      -9.854  -0.735 125.583  0.00  0.00    +0.000 OA
ATOM     11  H   UNL     1      -4.946  -0.074 124.784  0.00  0.00    +0.000 HD
ENDROOT
BRANCH   1  12
ATOM     12  C   UNL     1      -8.353  -3.040 124.406  0.00  0.00    +0.000 C 
ATOM     13  C   UNL     1      -9.626  -3.428 123.638  0.00  0.00    +0.000 C 
BRANCH  12  15
ATOM     14  C   UNL     1      -8.787  -3.696 127.119  0.00  0.00    +0.000 C 
ATOM     15  C   UNL     1      -8.587  -3.393 125.866  0.00  0.00    +0.000 C 
BRANCH  14  17
ATOM     16  C   UNL     1      -8.132  -3.195 129.464  0.00  0.00    +0.000 C 
ATOM     17  C   UNL     1      -9.021  -4.049 128.578  0.00  0.00    +0.000 C 
ENDBRANCH  14  17
ENDBRANCH  12  15
ENDBRANCH   1  12
BRANCH   1  18
ATOM     18  C   UNL     1      -8.422  -0.943 122.953  0.00  0.00    +0.000 C 
BRANCH  18  19
ATOM     19  C   UNL     1      -9.119   0.394 123.053  0.00  0.00    +0.000 C 
ATOM     20  C   UNL     1     -10.255   0.711 122.433  0.00  0.00    +0.000 C 
ENDBRANCH  18  19
ENDBRANCH   1  18
TORSDOF 5
ENDMDL
MODEL 5
REMARK VINA RESULT:      -6.5      2.298      4.815
REMARK  Name = Methohexital
REMARK  8 active torsions:
REMARK  status: ('A' for Active; 'I' for Inactive)
REMARK    1  A    between atoms: C_1  and  C_2
REMARK    2  A    between atoms: C_2  and  C_3
REMARK    3  A    between atoms: C_4  and  C_5
REMARK    4  A    between atoms: C_5  and  C_6
REMARK    5  A    between atoms: C_5  and  C_7
REMARK    6  A    between atoms: C_7  and  C_8
REMARK    7  A    between atoms: C_8  and  C_9
REMARK    8  A    between atoms: N_16  and  C_17
REMARK                            x       y       z     vdW  Elec       q    Type
REMARK                         _______ _______ _______ _____ _____    ______ ____
ROOT
ATOM      1  C   UNL     1      -6.476  -1.892 124.603  0.00  0.00    +0.000 C 
ATOM      2  C   UNL     1      -6.867  -2.012 123.133  0.00  0.00    +0.000 C 
ATOM      3  O   UNL     1      -6.156  -1.647 122.195  0.00  0.00    +0.000 OA
ATOM      4  N   UNL     1      -8.017  -2.691 122.861  0.00  0.00    +0.000 N 
ATOM      5  C   UNL     1      -8.996  -3.051 123.740  0.00  0.00    +0.000 C 
ATOM      6  O   UNL     1      -9.950  -3.706 123.339  0.00  0.00    +0.000 OA
ATOM      7  N   UNL     1      -8.814  -2.668 125.050  0.00  0.00    +0.000 N 
ATOM      8  C   UNL     1      -9.854  -2.958 126.023  0.00  0.00    +0.000 C 
ATOM      9  C   UNL     1      -7.632  -2.170 125.565  0.00  0.00    +0.000 C 
ATOM     10  O   UNL     1      -7.493  -2.081 126.789  0.00  0.00    +0.000 OA
ATOM     11  H   UNL     1      -8.180  -2.921 121.891  0.00  0.00    +0.000 HD
ENDROOT
BRANCH   1  12
ATOM     12  C   UNL     1      -5.803  -0.497 124.895  0.00  0.00    +0.000 C 
ATOM     13  C   UNL     1      -5.359  -0.272 126.348  0.00  0.00    +0.000 C 
BRANCH  12  15
ATOM     14  C   UNL     1      -7.658   1.539 124.269  0.00  0.00    +0.000 C 
ATOM     15  C   UNL     1      -6.802   0.599 124.558  0.00  0.00    +0.000 C 
BRANCH  14  17
ATOM     16  C   UNL     1      -8.578   2.964 122.452  0.00  0.00    +0.000 C 
ATOM     17  C   UNL     1      -8.656   2.634 123.931  0.00  0.00    +0.000 C 
ENDBRANCH  14  17
ENDBRANCH  12  15
ENDBRANCH   1  12
BRANCH   1  18
ATOM     18  C   UNL     1      -5.427  -3.020 124.823  0.00  0.00    +0.000 C 
BRANCH  18  19
ATOM     19  C   UNL     1      -4.808  -3.547 123.549  0.00  0.00    +0.000 C 
ATOM     20  C   UNL     1      -4.179  -4.717 123.433  0.00  0.00    +0.000 C 
ENDBRANCH  18  19
ENDBRANCH   1  18
TORSDOF 5
ENDMDL
MODEL 6
REMARK VINA RESULT:      -6.4      2.180      4.030
REMARK  Name = Methohexital
REMARK  8 active torsions:
REMARK  status: ('A' for Active; 'I' for Inactive)
REMARK    1  A    between atoms: C_1  and  C_2
REMARK    2  A    between atoms: C_2  and  C_3
REMARK    3  A    between atoms: C_4  and  C_5
REMARK    4  A    between atoms: C_5  and  C_6
REMARK    5  A    between atoms: C_5  and  C_7
REMARK    6  A    between atoms: C_7  and  C_8
REMARK    7  A    between atoms: C_8  and  C_9
REMARK    8  A    between atoms: N_16  and  C_17
REMARK                            x       y       z     vdW  Elec       q    Type
REMARK                         _______ _______ _______ _____ _____    ______ ____
ROOT
ATOM      1  C   UNL     1      -7.519   1.487 124.718  0.00  0.00    +0.000 C 
ATOM      2  C   UNL     1      -8.833   2.257 124.828  0.00  0.00    +0.000 C 
ATOM      3  O   UNL     1      -8.985   3.271 125.512  0.00  0.00    +0.000 OA
ATOM      4  N   UNL     1      -9.844   1.859 124.007  0.00  0.00    +0.000 N 
ATOM      5  C   UNL     1      -9.923   0.702 123.288  0.00  0.00    +0.000 C 
ATOM      6  O   UNL     1     -10.886   0.518 122.555  0.00  0.00    +0.000 OA
ATOM      7  N   UNL     1      -8.870  -0.175 123.421  0.00  0.00    +0.000 N 
ATOM      8  C   UNL     1      -8.926  -1.456 122.738  0.00  0.00    +0.000 C 
ATOM      9  C   UNL     1      -7.666   0.131 124.025  0.00  0.00    +0.000 C 
ATOM     10  O   UNL     1      -6.705  -0.633 123.886  0.00  0.00    +0.000 OA
ATOM     11  H   UNL     1     -10.644   2.474 123.954  0.00  0.00    +0.000 HD
ENDROOT
BRANCH   1  12
ATOM     12  C   UNL     1      -6.829   1.345 126.128  0.00  0.00    +0.000 C 
ATOM     13  C   UNL     1      -5.293   1.337 126.111  0.00  0.00    +0.000 C 
BRANCH  12  15
ATOM     14  C   UNL     1      -7.661  -1.091 127.290  0.00  0.00    +0.000 C 
ATOM     15  C   UNL     1      -7.277   0.033 126.754  0.00  0.00    +0.000 C 
BRANCH  14  17
ATOM     16  C   UNL     1      -8.819  -3.252 126.878  0.00  0.00    +0.000 C 
ATOM     17  C   UNL     1      -8.109  -2.402 127.915  0.00  0.00    +0.000 C 
ENDBRANCH  14  17
ENDBRANCH  12  15
ENDBRANCH   1  12
BRANCH   1  18
ATOM     18  C   UNL     1      -6.625   2.368 123.798  0.00  0.00    +0.000 C 
BRANCH  18  19
ATOM     19  C   UNL     1      -7.291   2.793 122.510  0.00  0.00    +0.000 C 
ATOM     20  C   UNL     1      -6.725   3.553 121.572  0.00  0.00    +0.000 C 
ENDBRANCH  18  19
ENDBRANCH   1  18
TORSDOF 5
ENDMDL
MODEL 7
REMARK VINA RESULT:      -6.3      3.109      5.481
REMARK  Name = Methohexital
REMARK  8 active torsions:
REMARK  status: ('A' for Active; 'I' for Inactive)
REMARK    1  A    between atoms: C_1  and  C_2
REMARK    2  A    between atoms: C_2  and  C_3
REMARK    3  A    between atoms: C_4  and  C_5
REMARK    4  A    between atoms: C_5  and  C_6
REMARK    5  A    between atoms: C_5  and  C_7
REMARK    6  A    between atoms: C_7  and  C_8
REMARK    7  A    between atoms: C_8  and  C_9
REMARK    8  A    between atoms: N_16  and  C_17
REMARK                            x       y       z     vdW  Elec       q    Type
REMARK                         _______ _______ _______ _____ _____    ______ ____
ROOT
ATOM      1  C   UNL     1      -7.562   1.585 124.713  0.00  0.00    +0.000 C 
ATOM      2  C   UNL     1      -8.823   2.443 124.645  0.00  0.00    +0.000 C 
ATOM      3  O   UNL     1      -8.947   3.536 125.202  0.00  0.00    +0.000 OA
ATOM      4  N   UNL     1      -9.806   2.018 123.803  0.00  0.00    +0.000 N 
ATOM      5  C   UNL     1      -9.920   0.794 123.211  0.00  0.00    +0.000 C 
ATOM      6  O   UNL     1     -10.845   0.588 122.436  0.00  0.00    +0.000 OA
ATOM      7  N   UNL     1      -8.941  -0.126 123.513  0.00  0.00    +0.000 N 
ATOM      8  C   UNL     1      -9.043  -1.471 122.972  0.00  0.00    +0.000 C 
ATOM      9  C   UNL     1      -7.759   0.171 124.164  0.00  0.00    +0.000 C 
ATOM     10  O   UNL     1      -6.847  -0.662 124.177  0.00  0.00    +0.000 OA
ATOM     11  H   UNL     1     -10.555   2.672 123.627  0.00  0.00    +0.000 HD
ENDROOT
BRANCH   1  12
ATOM     12  C   UNL     1      -6.974   1.561 126.175  0.00  0.00    +0.000 C 
ATOM     13  C   UNL     1      -7.900   2.121 127.266  0.00  0.00    +0.000 C 
BRANCH  12  15
ATOM     14  C   UNL     1      -4.613   3.110 126.215  0.00  0.00    +0.000 C 
ATOM     15  C   UNL     1      -5.703   2.395 126.196  0.00  0.00    +0.000 C 
BRANCH  14  17
ATOM     16  C   UNL     1      -2.167   3.081 126.659  0.00  0.00    +0.000 C 
ATOM     17  C   UNL     1      -3.342   3.944 126.237  0.00  0.00    +0.000 C 
ENDBRANCH  14  17
ENDBRANCH  12  15
ENDBRANCH   1  12
BRANCH   1  18
ATOM     18  C   UNL     1      -6.552   2.298 123.768  0.00  0.00    +0.000 C 
BRANCH  18  19
ATOM     19  C   UNL     1      -7.137   2.715 122.438  0.00  0.00    +0.000 C 
ATOM     20  C   UNL     1      -6.507   3.457 121.527  0.00  0.00    +0.000 C 
ENDBRANCH  18  19
ENDBRANCH   1  18
TORSDOF 5
ENDMDL
MODEL 8
REMARK VINA RESULT:      -6.2      2.165      4.292
REMARK  Name = Methohexital
REMARK  8 active torsions:
REMARK  status: ('A' for Active; 'I' for Inactive)
REMARK    1  A    between atoms: C_1  and  C_2
REMARK    2  A    between atoms: C_2  and  C_3
REMARK    3  A    between atoms: C_4  and  C_5
REMARK    4  A    between atoms: C_5  and  C_6
REMARK    5  A    between atoms: C_5  and  C_7
REMARK    6  A    between atoms: C_7  and  C_8
REMARK    7  A    between atoms: C_8  and  C_9
REMARK    8  A    between atoms: N_16  and  C_17
REMARK                            x       y       z     vdW  Elec       q    Type
REMARK                         _______ _______ _______ _____ _____    ______ ____
ROOT
ATOM      1  C   UNL     1      -7.042  -1.663 124.881  0.00  0.00    +0.000 C 
ATOM      2  C   UNL     1      -6.883  -1.285 123.410  0.00  0.00    +0.000 C 
ATOM      3  O   UNL     1      -5.976  -1.696 122.684  0.00  0.00    +0.000 OA
ATOM      4  N   UNL     1      -7.892  -0.558 122.854  0.00  0.00    +0.000 N 
ATOM      5  C   UNL     1      -8.898   0.098 123.502  0.00  0.00    +0.000 C 
ATOM      6  O   UNL     1      -9.760   0.669 122.847  0.00  0.00    +0.000 OA
ATOM      7  N   UNL     1      -8.883   0.035 124.878  0.00  0.00    +0.000 N 
ATOM      8  C   UNL     1      -9.885   0.770 125.630  0.00  0.00    +0.000 C 
ATOM      9  C   UNL     1      -8.084  -0.818 125.615  0.00  0.00    +0.000 C 
ATOM     10  O   UNL     1      -8.310  -0.972 126.820  0.00  0.00    +0.000 OA
ATOM     11  H   UNL     1      -7.871  -0.461 121.849  0.00  0.00    +0.000 HD
ENDROOT
BRANCH   1  12
ATOM     12  C   UNL     1      -5.652  -1.641 125.622  0.00  0.00    +0.000 C 
ATOM     13  C   UNL     1      -5.609  -2.391 126.961  0.00  0.00    +0.000 C 
BRANCH  12  15
ATOM     14  C   UNL     1      -4.962   1.046 126.151  0.00  0.00    +0.000 C 
ATOM     15  C   UNL     1      -5.280  -0.194 125.907  0.00  0.00    +0.000 C 
BRANCH  14  17
ATOM     16  C   UNL     1      -5.184   3.395 125.369  0.00  0.00    +0.000 C 
ATOM     17  C   UNL     1      -4.591   2.492 126.436  0.00  0.00    +0.000 C 
ENDBRANCH  14  17
ENDBRANCH  12  15
ENDBRANCH   1  12
BRANCH   1  18
ATOM     18  C   UNL     1      -7.585  -3.121 124.854  0.00  0.00    +0.000 C 
BRANCH  18  19
ATOM     19  C   UNL     1      -9.078  -3.224 124.646  0.00  0.00    +0.000 C 
ATOM     20  C   UNL     1      -9.669  -3.530 123.491  0.00  0.00    +0.000 C 
ENDBRANCH  18  19
ENDBRANCH   1  18
TORSDOF 5
ENDMDL
MODEL 9
REMARK VINA RESULT:      -6.1      1.994      3.370
REMARK  Name = Methohexital
REMARK  8 active torsions:
REMARK  status: ('A' for Active; 'I' for Inactive)
REMARK    1  A    between atoms: C_1  and  C_2
REMARK    2  A    between atoms: C_2  and  C_3
REMARK    3  A    between atoms: C_4  and  C_5
REMARK    4  A    between atoms: C_5  and  C_6
REMARK    5  A    between atoms: C_5  and  C_7
REMARK    6  A    between atoms: C_7  and  C_8
REMARK    7  A    between atoms: C_8  and  C_9
REMARK    8  A    between atoms: N_16  and  C_17
REMARK                            x       y       z     vdW  Elec       q    Type
REMARK                         _______ _______ _______ _____ _____    ______ ____
ROOT
ATOM      1  C   UNL     1      -7.876  -1.566 126.314  0.00  0.00    +0.000 C 
ATOM      2  C   UNL     1      -6.438  -1.763 125.842  0.00  0.00    +0.000 C 
ATOM      3  O   UNL     1      -5.562  -2.321 126.506  0.00  0.00    +0.000 OA
ATOM      4  N   UNL     1      -6.165  -1.415 124.554  0.00  0.00    +0.000 N 
ATOM      5  C   UNL     1      -6.941  -0.674 123.712  0.00  0.00    +0.000 C 
ATOM      6  O   UNL     1      -6.569  -0.491 122.560  0.00  0.00    +0.000 OA
ATOM      7  N   UNL     1      -8.129  -0.204 124.228  0.00  0.00    +0.000 N 
ATOM      8  C   UNL     1      -8.968   0.651 123.406  0.00  0.00    +0.000 C 
ATOM      9  C   UNL     1      -8.683  -0.620 125.423  0.00  0.00    +0.000 C 
ATOM     10  O   UNL     1      -9.855  -0.326 125.684  0.00  0.00    +0.000 OA
ATOM     11  H   UNL     1      -5.268  -1.708 124.193  0.00  0.00    +0.000 HD
ENDROOT
BRANCH   1  12
ATOM     12  C   UNL     1      -7.917  -1.115 127.823  0.00  0.00    +0.000 C 
ATOM     13  C   UNL     1      -7.116   0.153 128.153  0.00  0.00    +0.000 C 
BRANCH  12  15
ATOM     14  C   UNL     1      -6.865  -3.201 129.410  0.00  0.00    +0.000 C 
ATOM     15  C   UNL     1      -7.350  -2.238 128.677  0.00  0.00    +0.000 C 
BRANCH  14  17
ATOM     16  C   UNL     1      -4.792  -4.170 130.382  0.00  0.00    +0.000 C 
ATOM     17  C   UNL     1      -6.298  -4.323 130.264  0.00  0.00    +0.000 C 
ENDBRANCH  14  17
ENDBRANCH  12  15
ENDBRANCH   1  12
BRANCH   1  18
ATOM     18  C   UNL     1      -8.528  -2.973 126.183  0.00  0.00    +0.000 C 
BRANCH  18  19
ATOM     19  C   UNL     1      -8.442  -3.569 124.797  0.00  0.00    +0.000 C 
ATOM     20  C   UNL     1      -9.415  -3.528 123.887  0.00  0.00    +0.000 C 
ENDBRANCH  18  19
ENDBRANCH   1  18
TORSDOF 5
ENDMDL
