MODEL 1
REMARK VINA RESULT:      -8.1      0.000      0.000
REMARK  Name = Methylergometrine
REMARK  7 active torsions:
REMARK  status: ('A' for Active; 'I' for Inactive)
REMARK    1  A    between atoms: C_15  and  C_19
REMARK    2  A    between atoms: N_17  and  C_18
REMARK    3  A    between atoms: N_21  and  CA_22
REMARK    4  A    between atoms: CA_22  and  C_23
REMARK    5  A    between atoms: CA_22  and  C_25
REMARK    6  A    between atoms: C_23  and  C_24
REMARK    7  A    between atoms: C_25  and  O_26
REMARK                            x       y       z     vdW  Elec       q    Type
REMARK                         _______ _______ _______ _____ _____    ______ ____
ROOT
ATOM      1  C   UNL     1      -7.474   5.079 132.659  0.00  0.00    +0.000 C 
ATOM      2  C   UNL     1      -6.549   5.173 133.923  0.00  0.00    +0.000 C 
ATOM      3  C   UNL     1      -5.178   5.593 133.536  0.00  0.00    +0.000 A 
ATOM      4  C   UNL     1      -3.938   5.410 134.100  0.00  0.00    +0.000 A 
ATOM      5  N   UNL     1      -3.024   6.069 133.306  0.00  0.00    +0.000 N 
ATOM      6  C   UNL     1      -3.657   6.666 132.235  0.00  0.00    +0.000 A 
ATOM      7  C   UNL     1      -3.190   7.444 131.172  0.00  0.00    +0.000 A 
ATOM      8  C   UNL     1      -4.140   7.880 130.236  0.00  0.00    +0.000 A 
ATOM      9  C   UNL     1      -5.494   7.545 130.349  0.00  0.00    +0.000 A 
ATOM     10  C   UNL     1      -5.944   6.773 131.425  0.00  0.00    +0.000 A 
ATOM     11  C   UNL     1      -4.998   6.352 132.362  0.00  0.00    +0.000 A 
ATOM     12  C   UNL     1      -7.313   6.295 131.696  0.00  0.00    +0.000 C 
ATOM     13  C   UNL     1      -8.365   6.885 131.104  0.00  0.00    +0.000 C 
ATOM     14  C   UNL     1      -9.745   6.303 131.204  0.00  0.00    +0.000 C 
ATOM     15  C   UNL     1      -9.737   4.894 131.840  0.00  0.00    +0.000 C 
ATOM     16  N   UNL     1      -8.903   4.887 133.061  0.00  0.00    +0.000 NA
ATOM     17  C   UNL     1      -9.101   3.644 133.805  0.00  0.00    +0.000 C 
ATOM     18  H   UNL     1      -2.031   6.116 133.483  0.00  0.00    +0.000 HD
ENDROOT
BRANCH  14  19
ATOM     19  C   UNL     1     -10.214   6.223 129.759  0.00  0.00    +0.000 C 
ATOM     20  O   UNL     1      -9.776   5.378 128.976  0.00  0.00    +0.000 OA
ATOM     21  N   UNL     1     -11.114   7.205 129.380  0.00  0.00    +0.000 N 
ATOM     22  H   UNL     1     -11.230   8.006 129.990  0.00  0.00    +0.000 HD
BRANCH  21  23
ATOM     23  CA  UNL     1     -11.810   7.188 128.087  0.00  0.00    +0.000 C 
BRANCH  23  24
ATOM     24  C   UNL     1     -13.103   8.038 128.127  0.00  0.00    +0.000 C 
ATOM     25  C   UNL     1     -12.993   9.313 128.947  0.00  0.00    +0.000 C 
ENDBRANCH  23  24
BRANCH  23  26
ATOM     26  C   UNL     1     -10.902   7.720 126.952  0.00  0.00    +0.000 C 
BRANCH  26  27
ATOM     27  O   UNL     1     -10.249   6.672 126.238  0.00  0.00    +0.000 OA
ATOM     28  H   UNL     1     -10.763   5.856 126.364  0.00  0.00    +0.000 HD
ENDBRANCH  26  27
ENDBRANCH  23  26
ENDBRANCH  21  23
ENDBRANCH  14  19
TORSDOF 5
ENDMDL
MODEL 2
REMARK VINA RESULT:      -7.6      7.809      9.247
REMARK  Name = Methylergometrine
REMARK  7 active torsions:
REMARK  status: ('A' for Active; 'I' for Inactive)
REMARK    1  A    between atoms: C_15  and  C_19
REMARK    2  A    between atoms: N_17  and  C_18
REMARK    3  A    between atoms: N_21  and  CA_22
REMARK    4  A    between atoms: CA_22  and  C_23
REMARK    5  A    between atoms: CA_22  and  C_25
REMARK    6  A    between atoms: C_23  and  C_24
REMARK    7  A    between atoms: C_25  and  O_26
REMARK                            x       y       z     vdW  Elec       q    Type
REMARK                         _______ _______ _______ _____ _____    ______ ____
ROOT
ATOM      1  C   UNL     1      -8.602  -1.481 125.503  0.00  0.00    +0.000 C 
ATOM      2  C   UNL     1      -8.885  -2.778 126.340  0.00  0.00    +0.000 C 
ATOM      3  C   UNL     1      -8.212  -2.704 127.663  0.00  0.00    +0.000 A 
ATOM      4  C   UNL     1      -7.758  -3.652 128.547  0.00  0.00    +0.000 A 
ATOM      5  N   UNL     1      -7.248  -2.983 129.640  0.00  0.00    +0.000 N 
ATOM      6  C   UNL     1      -7.359  -1.619 129.467  0.00  0.00    +0.000 A 
ATOM      7  C   UNL     1      -7.010  -0.531 130.270  0.00  0.00    +0.000 A 
ATOM      8  C   UNL     1      -7.262   0.750 129.753  0.00  0.00    +0.000 A 
ATOM      9  C   UNL     1      -7.827   0.935 128.486  0.00  0.00    +0.000 A 
ATOM     10  C   UNL     1      -8.178  -0.167 127.700  0.00  0.00    +0.000 A 
ATOM     11  C   UNL     1      -7.938  -1.440 128.223  0.00  0.00    +0.000 A 
ATOM     12  C   UNL     1      -8.749  -0.173 126.340  0.00  0.00    +0.000 C 
ATOM     13  C   UNL     1      -9.346   0.926 125.852  0.00  0.00    +0.000 C 
ATOM     14  C   UNL     1      -9.761   1.017 124.412  0.00  0.00    +0.000 C 
ATOM     15  C   UNL     1      -9.218  -0.165 123.576  0.00  0.00    +0.000 C 
ATOM     16  N   UNL     1      -9.460  -1.443 124.278  0.00  0.00    +0.000 NA
ATOM     17  C   UNL     1      -9.192  -2.572 123.386  0.00  0.00    +0.000 C 
ATOM     18  H   UNL     1      -6.854  -3.427 130.457  0.00  0.00    +0.000 HD
ENDROOT
BRANCH  14  19
ATOM     19  C   UNL     1      -9.144   2.324 123.935  0.00  0.00    +0.000 C 
ATOM     20  O   UNL     1      -8.963   3.276 124.696  0.00  0.00    +0.000 OA
ATOM     21  N   UNL     1      -8.866   2.379 122.580  0.00  0.00    +0.000 N 
ATOM     22  H   UNL     1      -9.271   1.669 121.980  0.00  0.00    +0.000 HD
BRANCH  21  23
ATOM     23  CA  UNL     1      -8.111   3.480 121.968  0.00  0.00    +0.000 C 
BRANCH  23  24
ATOM     24  C   UNL     1      -6.607   3.139 121.844  0.00  0.00    +0.000 C 
ATOM     25  C   UNL     1      -5.686   4.062 122.624  0.00  0.00    +0.000 C 
ENDBRANCH  23  24
BRANCH  23  26
ATOM     26  C   UNL     1      -8.660   3.825 120.562  0.00  0.00    +0.000 C 
BRANCH  26  27
ATOM     27  O   UNL     1      -7.629   4.189 119.647  0.00  0.00    +0.000 OA
ATOM     28  H   UNL     1      -6.864   3.611 119.810  0.00  0.00    +0.000 HD
ENDBRANCH  26  27
ENDBRANCH  23  26
ENDBRANCH  21  23
ENDBRANCH  14  19
TORSDOF 5
ENDMDL
MODEL 3
REMARK VINA RESULT:      -7.3      8.233      9.626
REMARK  Name = Methylergometrine
REMARK  7 active torsions:
REMARK  status: ('A' for Active; 'I' for Inactive)
REMARK    1  A    between atoms: C_15  and  C_19
REMARK    2  A    between atoms: N_17  and  C_18
REMARK    3  A    between atoms: N_21  and  CA_22
REMARK    4  A    between atoms: CA_22  and  C_23
REMARK    5  A    between atoms: CA_22  and  C_25
REMARK    6  A    between atoms: C_23  and  C_24
REMARK    7  A    between atoms: C_25  and  O_26
REMARK                            x       y       z     vdW  Elec       q    Type
REMARK                         _______ _______ _______ _____ _____    ______ ____
ROOT
ATOM      1  C   UNL     1      -7.185   0.264 127.518  0.00  0.00    +0.000 C 
ATOM      2  C   UNL     1      -7.110  -1.048 128.377  0.00  0.00    +0.000 C 
ATOM      3  C   UNL     1      -7.878  -2.141 127.726  0.00  0.00    +0.000 A 
ATOM      4  C   UNL     1      -8.500  -3.271 128.200  0.00  0.00    +0.000 A 
ATOM      5  N   UNL     1      -9.023  -3.938 127.113  0.00  0.00    +0.000 N 
ATOM      6  C   UNL     1      -8.755  -3.249 125.948  0.00  0.00    +0.000 A 
ATOM      7  C   UNL     1      -9.051  -3.505 124.607  0.00  0.00    +0.000 A 
ATOM      8  C   UNL     1      -8.623  -2.553 123.667  0.00  0.00    +0.000 A 
ATOM      9  C   UNL     1      -7.941  -1.394 124.051  0.00  0.00    +0.000 A 
ATOM     10  C   UNL     1      -7.645  -1.160 125.398  0.00  0.00    +0.000 A 
ATOM     11  C   UNL     1      -8.060  -2.115 126.329  0.00  0.00    +0.000 A 
ATOM     12  C   UNL     1      -6.969   0.007 125.995  0.00  0.00    +0.000 C 
ATOM     13  C   UNL     1      -6.221   0.820 125.230  0.00  0.00    +0.000 C 
ATOM     14  C   UNL     1      -5.683   2.117 125.761  0.00  0.00    +0.000 C 
ATOM     15  C   UNL     1      -6.278   2.469 127.144  0.00  0.00    +0.000 C 
ATOM     16  N   UNL     1      -6.231   1.293 128.038  0.00  0.00    +0.000 NA
ATOM     17  C   UNL     1      -6.543   1.685 129.412  0.00  0.00    +0.000 C 
ATOM     18  H   UNL     1      -9.527  -4.812 127.158  0.00  0.00    +0.000 HD
ENDROOT
BRANCH  14  19
ATOM     19  C   UNL     1      -6.117   3.145 124.727  0.00  0.00    +0.000 C 
ATOM     20  O   UNL     1      -5.991   4.356 124.917  0.00  0.00    +0.000 OA
ATOM     21  N   UNL     1      -6.718   2.619 123.596  0.00  0.00    +0.000 N 
ATOM     22  H   UNL     1      -7.017   1.650 123.621  0.00  0.00    +0.000 HD
BRANCH  21  23
ATOM     23  CA  UNL     1      -7.041   3.432 122.416  0.00  0.00    +0.000 C 
BRANCH  23  24
ATOM     24  C   UNL     1      -6.012   3.220 121.280  0.00  0.00    +0.000 C 
ATOM     25  C   UNL     1      -4.894   4.249 121.244  0.00  0.00    +0.000 C 
ENDBRANCH  23  24
BRANCH  23  26
ATOM     26  C   UNL     1      -8.453   3.101 121.875  0.00  0.00    +0.000 C 
BRANCH  26  27
ATOM     27  O   UNL     1      -8.956   4.114 121.006  0.00  0.00    +0.000 OA
ATOM     28  H   UNL     1      -9.634   3.712 120.435  0.00  0.00    +0.000 HD
ENDBRANCH  26  27
ENDBRANCH  23  26
ENDBRANCH  21  23
ENDBRANCH  14  19
TORSDOF 5
ENDMDL
MODEL 4
REMARK VINA RESULT:      -7.3      3.310      6.603
REMARK  Name = Methylergometrine
REMARK  7 active torsions:
REMARK  status: ('A' for Active; 'I' for Inactive)
REMARK    1  A    between atoms: C_15  and  C_19
REMARK    2  A    between atoms: N_17  and  C_18
REMARK    3  A    between atoms: N_21  and  CA_22
REMARK    4  A    between atoms: CA_22  and  C_23
REMARK    5  A    between atoms: CA_22  and  C_25
REMARK    6  A    between atoms: C_23  and  C_24
REMARK    7  A    between atoms: C_25  and  O_26
REMARK                            x       y       z     vdW  Elec       q    Type
REMARK                         _______ _______ _______ _____ _____    ______ ____
ROOT
ATOM      1  C   UNL     1      -9.387   5.751 131.250  0.00  0.00    +0.000 C 
ATOM      2  C   UNL     1     -10.797   5.808 131.938  0.00  0.00    +0.000 C 
ATOM      3  C   UNL     1     -11.649   6.844 131.297  0.00  0.00    +0.000 A 
ATOM      4  C   UNL     1     -12.711   7.597 131.733  0.00  0.00    +0.000 A 
ATOM      5  N   UNL     1     -13.129   8.373 130.673  0.00  0.00    +0.000 N 
ATOM      6  C   UNL     1     -12.343   8.137 129.564  0.00  0.00    +0.000 A 
ATOM      7  C   UNL     1     -12.361   8.649 128.264  0.00  0.00    +0.000 A 
ATOM      8  C   UNL     1     -11.377   8.180 127.380  0.00  0.00    +0.000 A 
ATOM      9  C   UNL     1     -10.411   7.250 127.779  0.00  0.00    +0.000 A 
ATOM     10  C   UNL     1     -10.414   6.741 129.082  0.00  0.00    +0.000 A 
ATOM     11  C   UNL     1     -11.403   7.201 129.955  0.00  0.00    +0.000 A 
ATOM     12  C   UNL     1      -9.468   5.789 129.693  0.00  0.00    +0.000 C 
ATOM     13  C   UNL     1      -8.697   5.010 128.916  0.00  0.00    +0.000 C 
ATOM     14  C   UNL     1      -7.592   4.176 129.497  0.00  0.00    +0.000 C 
ATOM     15  C   UNL     1      -7.335   4.508 130.985  0.00  0.00    +0.000 C 
ATOM     16  N   UNL     1      -8.613   4.563 131.727  0.00  0.00    +0.000 NA
ATOM     17  C   UNL     1      -8.363   4.614 133.167  0.00  0.00    +0.000 C 
ATOM     18  H   UNL     1     -13.903   9.020 130.700  0.00  0.00    +0.000 HD
ENDROOT
BRANCH  14  19
ATOM     19  C   UNL     1      -6.376   4.544 128.660  0.00  0.00    +0.000 C 
ATOM     20  O   UNL     1      -5.444   5.207 129.120  0.00  0.00    +0.000 OA
ATOM     21  N   UNL     1      -6.430   4.136 127.339  0.00  0.00    +0.000 N 
ATOM     22  H   UNL     1      -7.323   3.828 126.971  0.00  0.00    +0.000 HD
BRANCH  21  23
ATOM     23  CA  UNL     1      -5.283   4.242 126.427  0.00  0.00    +0.000 C 
BRANCH  23  24
ATOM     24  C   UNL     1      -4.482   2.920 126.364  0.00  0.00    +0.000 C 
ATOM     25  C   UNL     1      -3.165   2.946 127.121  0.00  0.00    +0.000 C 
ENDBRANCH  23  24
BRANCH  23  26
ATOM     26  C   UNL     1      -5.737   4.617 124.995  0.00  0.00    +0.000 C 
BRANCH  26  27
ATOM     27  O   UNL     1      -6.440   5.856 124.951  0.00  0.00    +0.000 OA
ATOM     28  H   UNL     1      -6.016   6.420 124.281  0.00  0.00    +0.000 HD
ENDBRANCH  26  27
ENDBRANCH  23  26
ENDBRANCH  21  23
ENDBRANCH  14  19
TORSDOF 5
ENDMDL
MODEL 5
REMARK VINA RESULT:      -7.2      8.763     11.400
REMARK  Name = Methylergometrine
REMARK  7 active torsions:
REMARK  status: ('A' for Active; 'I' for Inactive)
REMARK    1  A    between atoms: C_15  and  C_19
REMARK    2  A    between atoms: N_17  and  C_18
REMARK    3  A    between atoms: N_21  and  CA_22
REMARK    4  A    between atoms: CA_22  and  C_23
REMARK    5  A    between atoms: CA_22  and  C_25
REMARK    6  A    between atoms: C_23  and  C_24
REMARK    7  A    between atoms: C_25  and  O_26
REMARK                            x       y       z     vdW  Elec       q    Type
REMARK                         _______ _______ _______ _____ _____    ______ ____
ROOT
ATOM      1  C   UNL     1      -7.880  -0.030 127.408  0.00  0.00    +0.000 C 
ATOM      2  C   UNL     1      -8.884   0.807 126.539  0.00  0.00    +0.000 C 
ATOM      3  C   UNL     1      -9.024   0.211 125.185  0.00  0.00    +0.000 A 
ATOM      4  C   UNL     1      -9.370   0.722 123.958  0.00  0.00    +0.000 A 
ATOM      5  N   UNL     1      -9.370  -0.325 123.061  0.00  0.00    +0.000 N 
ATOM      6  C   UNL     1      -9.021  -1.501 123.692  0.00  0.00    +0.000 A 
ATOM      7  C   UNL     1      -8.890  -2.816 123.240  0.00  0.00    +0.000 A 
ATOM      8  C   UNL     1      -8.494  -3.778 124.182  0.00  0.00    +0.000 A 
ATOM      9  C   UNL     1      -8.228  -3.440 125.513  0.00  0.00    +0.000 A 
ATOM     10  C   UNL     1      -8.373  -2.120 125.951  0.00  0.00    +0.000 A 
ATOM     11  C   UNL     1      -8.781  -1.167 125.013  0.00  0.00    +0.000 A 
ATOM     12  C   UNL     1      -8.112  -1.568 127.293  0.00  0.00    +0.000 C 
ATOM     13  C   UNL     1      -8.056  -2.383 128.360  0.00  0.00    +0.000 C 
ATOM     14  C   UNL     1      -7.601  -1.885 129.701  0.00  0.00    +0.000 C 
ATOM     15  C   UNL     1      -7.018  -0.455 129.622  0.00  0.00    +0.000 C 
ATOM     16  N   UNL     1      -7.911   0.421 128.835  0.00  0.00    +0.000 NA
ATOM     17  C   UNL     1      -7.507   1.819 128.977  0.00  0.00    +0.000 C 
ATOM     18  H   UNL     1      -9.599  -0.247 122.081  0.00  0.00    +0.000 HD
ENDROOT
BRANCH  14  19
ATOM     19  C   UNL     1      -6.517  -2.872 130.110  0.00  0.00    +0.000 C 
ATOM     20  O   UNL     1      -6.651  -4.087 129.959  0.00  0.00    +0.000 OA
ATOM     21  N   UNL     1      -5.409  -2.306 130.717  0.00  0.00    +0.000 N 
ATOM     22  H   UNL     1      -5.478  -1.345 131.036  0.00  0.00    +0.000 HD
BRANCH  21  23
ATOM     23  CA  UNL     1      -4.192  -3.069 131.019  0.00  0.00    +0.000 C 
BRANCH  23  24
ATOM     24  C   UNL     1      -3.089  -2.823 129.961  0.00  0.00    +0.000 C 
ATOM     25  C   UNL     1      -2.982  -3.907 128.901  0.00  0.00    +0.000 C 
ENDBRANCH  23  24
BRANCH  23  26
ATOM     26  C   UNL     1      -3.630  -2.703 132.415  0.00  0.00    +0.000 C 
BRANCH  26  27
ATOM     27  O   UNL     1      -2.473  -1.874 132.338  0.00  0.00    +0.000 OA
ATOM     28  H   UNL     1      -2.622  -1.096 132.902  0.00  0.00    +0.000 HD
ENDBRANCH  26  27
ENDBRANCH  23  26
ENDBRANCH  21  23
ENDBRANCH  14  19
TORSDOF 5
ENDMDL
MODEL 6
REMARK VINA RESULT:      -7.1      8.578     10.792
REMARK  Name = Methylergometrine
REMARK  7 active torsions:
REMARK  status: ('A' for Active; 'I' for Inactive)
REMARK    1  A    between atoms: C_15  and  C_19
REMARK    2  A    between atoms: N_17  and  C_18
REMARK    3  A    between atoms: N_21  and  CA_22
REMARK    4  A    between atoms: CA_22  and  C_23
REMARK    5  A    between atoms: CA_22  and  C_25
REMARK    6  A    between atoms: C_23  and  C_24
REMARK    7  A    between atoms: C_25  and  O_26
REMARK                            x       y       z     vdW  Elec       q    Type
REMARK                         _______ _______ _______ _____ _____    ______ ____
ROOT
ATOM      1  C   UNL     1      -7.625  -0.302 124.944  0.00  0.00    +0.000 C 
ATOM      2  C   UNL     1      -8.024   0.178 123.504  0.00  0.00    +0.000 C 
ATOM      3  C   UNL     1      -7.801   1.640 123.361  0.00  0.00    +0.000 A 
ATOM      4  C   UNL     1      -8.356   2.607 122.559  0.00  0.00    +0.000 A 
ATOM      5  N   UNL     1      -7.717   3.795 122.845  0.00  0.00    +0.000 N 
ATOM      6  C   UNL     1      -6.766   3.608 123.827  0.00  0.00    +0.000 A 
ATOM      7  C   UNL     1      -5.862   4.473 124.447  0.00  0.00    +0.000 A 
ATOM      8  C   UNL     1      -5.033   3.926 125.439  0.00  0.00    +0.000 A 
ATOM      9  C   UNL     1      -5.112   2.577 125.803  0.00  0.00    +0.000 A 
ATOM     10  C   UNL     1      -6.017   1.724 125.165  0.00  0.00    +0.000 A 
ATOM     11  C   UNL     1      -6.831   2.269 124.168  0.00  0.00    +0.000 A 
ATOM     12  C   UNL     1      -6.268   0.295 125.430  0.00  0.00    +0.000 C 
ATOM     13  C   UNL     1      -5.356  -0.440 126.088  0.00  0.00    +0.000 C 
ATOM     14  C   UNL     1      -5.661  -1.838 126.544  0.00  0.00    +0.000 C 
ATOM     15  C   UNL     1      -7.156  -2.193 126.368  0.00  0.00    +0.000 C 
ATOM     16  N   UNL     1      -7.622  -1.796 125.023  0.00  0.00    +0.000 NA
ATOM     17  C   UNL     1      -8.945  -2.361 124.756  0.00  0.00    +0.000 C 
ATOM     18  H   UNL     1      -7.911   4.679 122.397  0.00  0.00    +0.000 HD
ENDROOT
BRANCH  14  19
ATOM     19  C   UNL     1      -5.295  -1.830 128.021  0.00  0.00    +0.000 C 
ATOM     20  O   UNL     1      -5.132  -0.781 128.647  0.00  0.00    +0.000 OA
ATOM     21  N   UNL     1      -5.097  -3.080 128.582  0.00  0.00    +0.000 N 
ATOM     22  H   UNL     1      -4.997  -3.873 127.957  0.00  0.00    +0.000 HD
BRANCH  21  23
ATOM     23  CA  UNL     1      -4.913  -3.284 130.024  0.00  0.00    +0.000 C 
BRANCH  23  24
ATOM     24  C   UNL     1      -5.644  -4.556 130.517  0.00  0.00    +0.000 C 
ATOM     25  C   UNL     1      -5.271  -4.989 131.925  0.00  0.00    +0.000 C 
ENDBRANCH  23  24
BRANCH  23  26
ATOM     26  C   UNL     1      -3.413  -3.400 130.389  0.00  0.00    +0.000 C 
BRANCH  26  27
ATOM     27  O   UNL     1      -2.640  -2.318 129.874  0.00  0.00    +0.000 OA
ATOM     28  H   UNL     1      -2.229  -2.610 129.042  0.00  0.00    +0.000 HD
ENDBRANCH  26  27
ENDBRANCH  23  26
ENDBRANCH  21  23
ENDBRANCH  14  19
TORSDOF 5
ENDMDL
MODEL 7
REMARK VINA RESULT:      -7.1      7.525      9.984
REMARK  Name = Methylergometrine
REMARK  7 active torsions:
REMARK  status: ('A' for Active; 'I' for Inactive)
REMARK    1  A    between atoms: C_15  and  C_19
REMARK    2  A    between atoms: N_17  and  C_18
REMARK    3  A    between atoms: N_21  and  CA_22
REMARK    4  A    between atoms: CA_22  and  C_23
REMARK    5  A    between atoms: CA_22  and  C_25
REMARK    6  A    between atoms: C_23  and  C_24
REMARK    7  A    between atoms: C_25  and  O_26
REMARK                            x       y       z     vdW  Elec       q    Type
REMARK                         _______ _______ _______ _____ _____    ______ ____
ROOT
ATOM      1  C   UNL     1      -8.130   1.287 124.115  0.00  0.00    +0.000 C 
ATOM      2  C   UNL     1      -9.085   0.353 123.291  0.00  0.00    +0.000 C 
ATOM      3  C   UNL     1      -8.993  -1.048 123.778  0.00  0.00    +0.000 A 
ATOM      4  C   UNL     1      -9.222  -2.269 123.193  0.00  0.00    +0.000 A 
ATOM      5  N   UNL     1      -9.009  -3.233 124.156  0.00  0.00    +0.000 N 
ATOM      6  C   UNL     1      -8.638  -2.649 125.349  0.00  0.00    +0.000 A 
ATOM      7  C   UNL     1      -8.329  -3.176 126.606  0.00  0.00    +0.000 A 
ATOM      8  C   UNL     1      -7.971  -2.262 127.610  0.00  0.00    +0.000 A 
ATOM      9  C   UNL     1      -7.913  -0.885 127.367  0.00  0.00    +0.000 A 
ATOM     10  C   UNL     1      -8.235  -0.376 126.105  0.00  0.00    +0.000 A 
ATOM     11  C   UNL     1      -8.604  -1.287 125.112  0.00  0.00    +0.000 A 
ATOM     12  C   UNL     1      -8.202   1.027 125.651  0.00  0.00    +0.000 C 
ATOM     13  C   UNL     1      -8.210   2.028 126.547  0.00  0.00    +0.000 C 
ATOM     14  C   UNL     1      -7.981   3.452 126.131  0.00  0.00    +0.000 C 
ATOM     15  C   UNL     1      -7.527   3.560 124.657  0.00  0.00    +0.000 C 
ATOM     16  N   UNL     1      -8.387   2.725 123.792  0.00  0.00    +0.000 NA
ATOM     17  C   UNL     1      -8.135   3.024 122.383  0.00  0.00    +0.000 C 
ATOM     18  H   UNL     1      -9.115  -4.227 124.013  0.00  0.00    +0.000 HD
ENDROOT
BRANCH  14  19
ATOM     19  C   UNL     1      -6.873   3.931 127.057  0.00  0.00    +0.000 C 
ATOM     20  O   UNL     1      -7.105   4.633 128.043  0.00  0.00    +0.000 OA
ATOM     21  N   UNL     1      -5.592   3.574 126.672  0.00  0.00    +0.000 N 
ATOM     22  H   UNL     1      -5.458   3.224 125.729  0.00  0.00    +0.000 HD
BRANCH  21  23
ATOM     23  CA  UNL     1      -4.416   3.790 127.524  0.00  0.00    +0.000 C 
BRANCH  23  24
ATOM     24  C   UNL     1      -3.319   2.731 127.260  0.00  0.00    +0.000 C 
ATOM     25  C   UNL     1      -2.024   3.294 126.699  0.00  0.00    +0.000 C 
ENDBRANCH  23  24
BRANCH  23  26
ATOM     26  C   UNL     1      -3.811   5.198 127.302  0.00  0.00    +0.000 C 
BRANCH  26  27
ATOM     27  O   UNL     1      -4.411   6.188 128.135  0.00  0.00    +0.000 OA
ATOM     28  H   UNL     1      -5.364   6.205 127.945  0.00  0.00    +0.000 HD
ENDBRANCH  26  27
ENDBRANCH  23  26
ENDBRANCH  21  23
ENDBRANCH  14  19
TORSDOF 5
ENDMDL
MODEL 8
REMARK VINA RESULT:      -7.1      8.566     11.126
REMARK  Name = Methylergometrine
REMARK  7 active torsions:
REMARK  status: ('A' for Active; 'I' for Inactive)
REMARK    1  A    between atoms: C_15  and  C_19
REMARK    2  A    between atoms: N_17  and  C_18
REMARK    3  A    between atoms: N_21  and  CA_22
REMARK    4  A    between atoms: CA_22  and  C_23
REMARK    5  A    between atoms: CA_22  and  C_25
REMARK    6  A    between atoms: C_23  and  C_24
REMARK    7  A    between atoms: C_25  and  O_26
REMARK                            x       y       z     vdW  Elec       q    Type
REMARK                         _______ _______ _______ _____ _____    ______ ____
ROOT
ATOM      1  C   UNL     1      -7.912   0.705 126.929  0.00  0.00    +0.000 C 
ATOM      2  C   UNL     1      -9.002   1.170 125.901  0.00  0.00    +0.000 C 
ATOM      3  C   UNL     1      -9.081   0.222 124.760  0.00  0.00    +0.000 A 
ATOM      4  C   UNL     1      -9.483   0.348 123.452  0.00  0.00    +0.000 A 
ATOM      5  N   UNL     1      -9.373  -0.895 122.867  0.00  0.00    +0.000 N 
ATOM      6  C   UNL     1      -8.898  -1.817 123.776  0.00  0.00    +0.000 A 
ATOM      7  C   UNL     1      -8.627  -3.184 123.686  0.00  0.00    +0.000 A 
ATOM      8  C   UNL     1      -8.127  -3.813 124.837  0.00  0.00    +0.000 A 
ATOM      9  C   UNL     1      -7.896  -3.105 126.021  0.00  0.00    +0.000 A 
ATOM     10  C   UNL     1      -8.181  -1.738 126.096  0.00  0.00    +0.000 A 
ATOM     11  C   UNL     1      -8.692  -1.119 124.952  0.00  0.00    +0.000 A 
ATOM     12  C   UNL     1      -7.977  -0.824 127.235  0.00  0.00    +0.000 C 
ATOM     13  C   UNL     1      -7.830  -1.313 128.477  0.00  0.00    +0.000 C 
ATOM     14  C   UNL     1      -7.428  -0.430 129.623  0.00  0.00    +0.000 C 
ATOM     15  C   UNL     1      -7.002   0.979 129.148  0.00  0.00    +0.000 C 
ATOM     16  N   UNL     1      -7.987   1.515 128.185  0.00  0.00    +0.000 NA
ATOM     17  C   UNL     1      -7.735   2.934 127.937  0.00  0.00    +0.000 C 
ATOM     18  H   UNL     1      -9.612  -1.106 121.909  0.00  0.00    +0.000 HD
ENDROOT
BRANCH  14  19
ATOM     19  C   UNL     1      -6.243  -1.154 130.245  0.00  0.00    +0.000 C 
ATOM     20  O   UNL     1      -5.618  -0.684 131.198  0.00  0.00    +0.000 OA
ATOM     21  N   UNL     1      -5.886  -2.337 129.620  0.00  0.00    +0.000 N 
ATOM     22  H   UNL     1      -6.274  -2.528 128.703  0.00  0.00    +0.000 HD
BRANCH  21  23
ATOM     23  CA  UNL     1      -4.889  -3.260 130.177  0.00  0.00    +0.000 C 
BRANCH  23  24
ATOM     24  C   UNL     1      -5.504  -4.647 130.479  0.00  0.00    +0.000 C 
ATOM     25  C   UNL     1      -5.329  -5.114 131.914  0.00  0.00    +0.000 C 
ENDBRANCH  23  24
BRANCH  23  26
ATOM     26  C   UNL     1      -3.694  -3.446 129.210  0.00  0.00    +0.000 C 
BRANCH  26  27
ATOM     27  O   UNL     1      -2.591  -2.602 129.536  0.00  0.00    +0.000 OA
ATOM     28  H   UNL     1      -1.801  -3.161 129.629  0.00  0.00    +0.000 HD
ENDBRANCH  26  27
ENDBRANCH  23  26
ENDBRANCH  21  23
ENDBRANCH  14  19
TORSDOF 5
ENDMDL
MODEL 9
REMARK VINA RESULT:      -6.8      8.035     10.850
REMARK  Name = Methylergometrine
REMARK  7 active torsions:
REMARK  status: ('A' for Active; 'I' for Inactive)
REMARK    1  A    between atoms: C_15  and  C_19
REMARK    2  A    between atoms: N_17  and  C_18
REMARK    3  A    between atoms: N_21  and  CA_22
REMARK    4  A    between atoms: CA_22  and  C_23
REMARK    5  A    between atoms: CA_22  and  C_25
REMARK    6  A    between atoms: C_23  and  C_24
REMARK    7  A    between atoms: C_25  and  O_26
REMARK                            x       y       z     vdW  Elec       q    Type
REMARK                         _______ _______ _______ _____ _____    ______ ____
ROOT
ATOM      1  C   UNL     1      -6.555   0.008 129.344  0.00  0.00    +0.000 C 
ATOM      2  C   UNL     1      -7.047   0.734 128.042  0.00  0.00    +0.000 C 
ATOM      3  C   UNL     1      -7.468  -0.258 127.019  0.00  0.00    +0.000 A 
ATOM      4  C   UNL     1      -7.540  -0.229 125.648  0.00  0.00    +0.000 A 
ATOM      5  N   UNL     1      -8.049  -1.443 125.237  0.00  0.00    +0.000 N 
ATOM      6  C   UNL     1      -8.295  -2.256 126.324  0.00  0.00    +0.000 A 
ATOM      7  C   UNL     1      -8.811  -3.548 126.442  0.00  0.00    +0.000 A 
ATOM      8  C   UNL     1      -8.911  -4.079 127.738  0.00  0.00    +0.000 A 
ATOM      9  C   UNL     1      -8.503  -3.355 128.864  0.00  0.00    +0.000 A 
ATOM     10  C   UNL     1      -7.998  -2.059 128.727  0.00  0.00    +0.000 A 
ATOM     11  C   UNL     1      -7.913  -1.529 127.437  0.00  0.00    +0.000 A 
ATOM     12  C   UNL     1      -7.492  -1.160 129.780  0.00  0.00    +0.000 C 
ATOM     13  C   UNL     1      -7.820  -1.373 131.066  0.00  0.00    +0.000 C 
ATOM     14  C   UNL     1      -7.169  -0.601 132.177  0.00  0.00    +0.000 C 
ATOM     15  C   UNL     1      -5.977   0.245 131.675  0.00  0.00    +0.000 C 
ATOM     16  N   UNL     1      -6.353   0.990 130.455  0.00  0.00    +0.000 NA
ATOM     17  C   UNL     1      -5.330   1.983 130.129  0.00  0.00    +0.000 C 
ATOM     18  H   UNL     1      -8.222  -1.702 124.277  0.00  0.00    +0.000 HD
ENDROOT
BRANCH  14  19
ATOM     19  C   UNL     1      -6.682  -1.678 133.135  0.00  0.00    +0.000 C 
ATOM     20  O   UNL     1      -7.035  -1.709 134.315  0.00  0.00    +0.000 OA
ATOM     21  N   UNL     1      -5.771  -2.570 132.598  0.00  0.00    +0.000 N 
ATOM     22  H   UNL     1      -5.337  -2.334 131.712  0.00  0.00    +0.000 HD
BRANCH  21  23
ATOM     23  CA  UNL     1      -5.325  -3.775 133.309  0.00  0.00    +0.000 C 
BRANCH  23  24
ATOM     24  C   UNL     1      -5.293  -5.008 132.374  0.00  0.00    +0.000 C 
ATOM     25  C   UNL     1      -5.697  -4.719 130.938  0.00  0.00    +0.000 C 
ENDBRANCH  23  24
BRANCH  23  26
ATOM     26  C   UNL     1      -3.916  -3.578 133.920  0.00  0.00    +0.000 C 
BRANCH  26  27
ATOM     27  O   UNL     1      -2.880  -3.661 132.944  0.00  0.00    +0.000 OA
ATOM     28  H   UNL     1      -2.466  -4.538 133.016  0.00  0.00    +0.000 HD
ENDBRANCH  26  27
ENDBRANCH  23  26
ENDBRANCH  21  23
ENDBRANCH  14  19
TORSDOF 5
ENDMDL
