MODEL 1
REMARK VINA RESULT:      -7.1      0.000      0.000
REMARK  Name = Methadone
REMARK  11 active torsions:
REMARK  status: ('A' for Active; 'I' for Inactive)
REMARK    1  A    between atoms: C_1  and  C_2
REMARK    2  A    between atoms: C_2  and  C_3
REMARK    3  A    between atoms: C_3  and  C_5
REMARK    4  A    between atoms: C_5  and  C_6
REMARK    5  A    between atoms: C_5  and  C_12
REMARK    6  A    between atoms: C_5  and  C_18
REMARK    7  A    between atoms: C_6  and  C_7
REMARK    8  A    between atoms: C_7  and  C_8
REMARK    9  A    between atoms: C_7  and  N_9
REMARK   10  A    between atoms: N_9  and  C_10
REMARK   11  A    between atoms: N_9  and  C_11
REMARK                            x       y       z     vdW  Elec       q    Type
REMARK                         _______ _______ _______ _____ _____    ______ ____
ROOT
ATOM      1  C   UNL     1      -7.398  -1.616 125.266  0.00  0.00    +0.000 C 
ENDROOT
BRANCH   1   2
ATOM      2  C   UNL     1      -7.743  -2.208 126.675  0.00  0.00    +0.000 A 
ATOM      3  C   UNL     1      -6.977  -1.931 127.814  0.00  0.00    +0.000 A 
ATOM      4  C   UNL     1      -7.134  -2.698 128.978  0.00  0.00    +0.000 A 
ATOM      5  C   UNL     1      -8.115  -3.685 129.067  0.00  0.00    +0.000 A 
ATOM      6  C   UNL     1      -8.946  -3.904 127.996  0.00  0.00    +0.000 A 
ATOM      7  C   UNL     1      -8.766  -3.145 126.853  0.00  0.00    +0.000 A 
ENDBRANCH   1   2
BRANCH   1   8
ATOM      8  C   UNL     1      -6.437  -2.617 124.496  0.00  0.00    +0.000 A 
ATOM      9  C   UNL     1      -6.527  -4.019 124.532  0.00  0.00    +0.000 A 
ATOM     10  C   UNL     1      -5.449  -4.835 124.199  0.00  0.00    +0.000 A 
ATOM     11  C   UNL     1      -4.376  -4.287 123.521  0.00  0.00    +0.000 A 
ATOM     12  C   UNL     1      -4.366  -2.925 123.245  0.00  0.00    +0.000 A 
ATOM     13  C   UNL     1      -5.359  -2.094 123.767  0.00  0.00    +0.000 A 
ENDBRANCH   1   8
BRANCH   1  14
ATOM     14  C   UNL     1      -8.750  -1.467 124.417  0.00  0.00    +0.000 C 
ATOM     15  O   UNL     1      -9.697  -0.772 124.837  0.00  0.00    +0.000 OA
BRANCH  14  17
ATOM     16  C   UNL     1      -9.816  -3.458 123.241  0.00  0.00    +0.000 C 
ATOM     17  C   UNL     1      -8.950  -2.226 123.079  0.00  0.00    +0.000 C 
ENDBRANCH  14  17
ENDBRANCH   1  14
BRANCH   1  18
ATOM     18  C   UNL     1      -6.721  -0.221 125.433  0.00  0.00    +0.000 C 
BRANCH  18  19
ATOM     19  C   UNL     1      -7.655   1.045 125.546  0.00  0.00    +0.000 C 
ATOM     20  C   UNL     1      -7.846   1.561 126.974  0.00  0.00    +0.000 C 
BRANCH  19  21
ATOM     21  N   UNL     1      -7.261   2.127 124.606  0.00  0.00    +0.000 NA
ATOM     22  C   UNL     1      -7.089   1.632 123.226  0.00  0.00    +0.000 C 
ATOM     23  C   UNL     1      -8.324   3.148 124.567  0.00  0.00    +0.000 C 
ENDBRANCH  19  21
ENDBRANCH  18  19
ENDBRANCH   1  18
TORSDOF 7
ENDMDL
MODEL 2
REMARK VINA RESULT:      -6.9      2.947      5.500
REMARK  Name = Methadone
REMARK  11 active torsions:
REMARK  status: ('A' for Active; 'I' for Inactive)
REMARK    1  A    between atoms: C_1  and  C_2
REMARK    2  A    between atoms: C_2  and  C_3
REMARK    3  A    between atoms: C_3  and  C_5
REMARK    4  A    between atoms: C_5  and  C_6
REMARK    5  A    between atoms: C_5  and  C_12
REMARK    6  A    between atoms: C_5  and  C_18
REMARK    7  A    between atoms: C_6  and  C_7
REMARK    8  A    between atoms: C_7  and  C_8
REMARK    9  A    between atoms: C_7  and  N_9
REMARK   10  A    between atoms: N_9  and  C_10
REMARK   11  A    between atoms: N_9  and  C_11
REMARK                            x       y       z     vdW  Elec       q    Type
REMARK                         _______ _______ _______ _____ _____    ______ ____
ROOT
ATOM      1  C   UNL     1      -7.067   2.097 124.215  0.00  0.00    +0.000 C 
ENDROOT
BRANCH   1   2
ATOM      2  C   UNL     1      -6.784   0.556 124.196  0.00  0.00    +0.000 A 
ATOM      3  C   UNL     1      -6.010  -0.078 125.176  0.00  0.00    +0.000 A 
ATOM      4  C   UNL     1      -5.537  -1.383 124.972  0.00  0.00    +0.000 A 
ATOM      5  C   UNL     1      -5.899  -2.116 123.842  0.00  0.00    +0.000 A 
ATOM      6  C   UNL     1      -6.740  -1.549 122.917  0.00  0.00    +0.000 A 
ATOM      7  C   UNL     1      -7.186  -0.257 123.131  0.00  0.00    +0.000 A 
ENDBRANCH   1   2
BRANCH   1   8
ATOM      8  C   UNL     1      -7.227   2.620 122.726  0.00  0.00    +0.000 A 
ATOM      9  C   UNL     1      -6.169   2.927 121.853  0.00  0.00    +0.000 A 
ATOM     10  C   UNL     1      -6.343   3.753 120.747  0.00  0.00    +0.000 A 
ATOM     11  C   UNL     1      -7.625   4.026 120.307  0.00  0.00    +0.000 A 
ATOM     12  C   UNL     1      -8.711   3.525 121.015  0.00  0.00    +0.000 A 
ATOM     13  C   UNL     1      -8.516   2.872 122.233  0.00  0.00    +0.000 A 
ENDBRANCH   1   8
BRANCH   1  14
ATOM     14  C   UNL     1      -8.444   2.364 124.991  0.00  0.00    +0.000 C 
ATOM     15  O   UNL     1      -8.915   3.516 125.082  0.00  0.00    +0.000 OA
BRANCH  14  17
ATOM     16  C   UNL     1      -8.881   1.142 127.181  0.00  0.00    +0.000 C 
ATOM     17  C   UNL     1      -9.206   1.216 125.703  0.00  0.00    +0.000 C 
ENDBRANCH  14  17
ENDBRANCH   1  14
BRANCH   1  18
ATOM     18  C   UNL     1      -5.900   2.837 124.937  0.00  0.00    +0.000 C 
BRANCH  18  19
ATOM     19  C   UNL     1      -6.159   3.381 126.395  0.00  0.00    +0.000 C 
ATOM     20  C   UNL     1      -5.445   2.594 127.496  0.00  0.00    +0.000 C 
BRANCH  19  21
ATOM     21  N   UNL     1      -5.922   4.845 126.505  0.00  0.00    +0.000 NA
ATOM     22  C   UNL     1      -4.569   5.154 127.006  0.00  0.00    +0.000 C 
ATOM     23  C   UNL     1      -6.038   5.458 125.170  0.00  0.00    +0.000 C 
ENDBRANCH  19  21
ENDBRANCH  18  19
ENDBRANCH   1  18
TORSDOF 7
ENDMDL
MODEL 3
REMARK VINA RESULT:      -6.9      1.706      2.658
REMARK  Name = Methadone
REMARK  11 active torsions:
REMARK  status: ('A' for Active; 'I' for Inactive)
REMARK    1  A    between atoms: C_1  and  C_2
REMARK    2  A    between atoms: C_2  and  C_3
REMARK    3  A    between atoms: C_3  and  C_5
REMARK    4  A    between atoms: C_5  and  C_6
REMARK    5  A    between atoms: C_5  and  C_12
REMARK    6  A    between atoms: C_5  and  C_18
REMARK    7  A    between atoms: C_6  and  C_7
REMARK    8  A    between atoms: C_7  and  C_8
REMARK    9  A    between atoms: C_7  and  N_9
REMARK   10  A    between atoms: N_9  and  C_10
REMARK   11  A    between atoms: N_9  and  C_11
REMARK                            x       y       z     vdW  Elec       q    Type
REMARK                         _______ _______ _______ _____ _____    ______ ____
ROOT
ATOM      1  C   UNL     1      -7.636  -0.874 125.909  0.00  0.00    +0.000 C 
ENDROOT
BRANCH   1   2
ATOM      2  C   UNL     1      -7.859  -1.941 127.034  0.00  0.00    +0.000 A 
ATOM      3  C   UNL     1      -8.520  -3.153 126.799  0.00  0.00    +0.000 A 
ATOM      4  C   UNL     1      -8.957  -3.942 127.874  0.00  0.00    +0.000 A 
ATOM      5  C   UNL     1      -8.663  -3.596 129.193  0.00  0.00    +0.000 A 
ATOM      6  C   UNL     1      -7.926  -2.464 129.440  0.00  0.00    +0.000 A 
ATOM      7  C   UNL     1      -7.516  -1.693 128.367  0.00  0.00    +0.000 A 
ENDBRANCH   1   2
BRANCH   1   8
ATOM      8  C   UNL     1      -6.657  -1.466 124.809  0.00  0.00    +0.000 A 
ATOM      9  C   UNL     1      -6.693  -1.158 123.438  0.00  0.00    +0.000 A 
ATOM     10  C   UNL     1      -6.115  -1.989 122.482  0.00  0.00    +0.000 A 
ATOM     11  C   UNL     1      -5.222  -2.962 122.888  0.00  0.00    +0.000 A 
ATOM     12  C   UNL     1      -4.969  -3.133 124.245  0.00  0.00    +0.000 A 
ATOM     13  C   UNL     1      -5.712  -2.429 125.193  0.00  0.00    +0.000 A 
ENDBRANCH   1   8
BRANCH   1  14
ATOM     14  C   UNL     1      -9.042  -0.555 125.207  0.00  0.00    +0.000 C 
ATOM     15  O   UNL     1      -9.581  -1.383 124.445  0.00  0.00    +0.000 OA
BRANCH  14  17
ATOM     16  C   UNL     1     -10.000   1.521 124.086  0.00  0.00    +0.000 C 
ATOM     17  C   UNL     1      -9.749   0.812 125.401  0.00  0.00    +0.000 C 
ENDBRANCH  14  17
ENDBRANCH   1  14
BRANCH   1  18
ATOM     18  C   UNL     1      -7.045   0.429 126.529  0.00  0.00    +0.000 C 
BRANCH  18  19
ATOM     19  C   UNL     1      -5.885   1.158 125.749  0.00  0.00    +0.000 C 
ATOM     20  C   UNL     1      -6.347   2.340 124.894  0.00  0.00    +0.000 C 
BRANCH  19  21
ATOM     21  N   UNL     1      -4.744   1.516 126.632  0.00  0.00    +0.000 NA
ATOM     22  C   UNL     1      -4.227   2.870 126.355  0.00  0.00    +0.000 C 
ATOM     23  C   UNL     1      -5.193   1.505 128.036  0.00  0.00    +0.000 C 
ENDBRANCH  19  21
ENDBRANCH  18  19
ENDBRANCH   1  18
TORSDOF 7
ENDMDL
MODEL 4
REMARK VINA RESULT:      -6.7      1.245      2.088
REMARK  Name = Methadone
REMARK  11 active torsions:
REMARK  status: ('A' for Active; 'I' for Inactive)
REMARK    1  A    between atoms: C_1  and  C_2
REMARK    2  A    between atoms: C_2  and  C_3
REMARK    3  A    between atoms: C_3  and  C_5
REMARK    4  A    between atoms: C_5  and  C_6
REMARK    5  A    between atoms: C_5  and  C_12
REMARK    6  A    between atoms: C_5  and  C_18
REMARK    7  A    between atoms: C_6  and  C_7
REMARK    8  A    between atoms: C_7  and  C_8
REMARK    9  A    between atoms: C_7  and  N_9
REMARK   10  A    between atoms: N_9  and  C_10
REMARK   11  A    between atoms: N_9  and  C_11
REMARK                            x       y       z     vdW  Elec       q    Type
REMARK                         _______ _______ _______ _____ _____    ______ ____
ROOT
ATOM      1  C   UNL     1      -7.444  -1.478 125.998  0.00  0.00    +0.000 C 
ENDROOT
BRANCH   1   2
ATOM      2  C   UNL     1      -7.198  -2.275 127.324  0.00  0.00    +0.000 A 
ATOM      3  C   UNL     1      -8.217  -2.979 127.978  0.00  0.00    +0.000 A 
ATOM      4  C   UNL     1      -8.037  -3.428 129.295  0.00  0.00    +0.000 A 
ATOM      5  C   UNL     1      -6.816  -3.273 129.952  0.00  0.00    +0.000 A 
ATOM      6  C   UNL     1      -5.770  -2.676 129.292  0.00  0.00    +0.000 A 
ATOM      7  C   UNL     1      -5.972  -2.230 127.998  0.00  0.00    +0.000 A 
ENDBRANCH   1   2
BRANCH   1   8
ATOM      8  C   UNL     1      -6.421  -1.971 124.891  0.00  0.00    +0.000 A 
ATOM      9  C   UNL     1      -6.286  -1.419 123.605  0.00  0.00    +0.000 A 
ATOM     10  C   UNL     1      -5.698  -2.126 122.559  0.00  0.00    +0.000 A 
ATOM     11  C   UNL     1      -4.950  -3.252 122.845  0.00  0.00    +0.000 A 
ATOM     12  C   UNL     1      -4.856  -3.693 124.160  0.00  0.00    +0.000 A 
ATOM     13  C   UNL     1      -5.619  -3.090 125.161  0.00  0.00    +0.000 A 
ENDBRANCH   1   8
BRANCH   1  14
ATOM     14  C   UNL     1      -8.930  -1.779 125.477  0.00  0.00    +0.000 C 
ATOM     15  O   UNL     1      -9.825  -0.914 125.557  0.00  0.00    +0.000 OA
BRANCH  14  17
ATOM     16  C   UNL     1      -9.515  -3.147 123.411  0.00  0.00    +0.000 C 
ATOM     17  C   UNL     1      -9.321  -3.170 124.913  0.00  0.00    +0.000 C 
ENDBRANCH  14  17
ENDBRANCH   1  14
BRANCH   1  18
ATOM     18  C   UNL     1      -7.276   0.049 126.264  0.00  0.00    +0.000 C 
BRANCH  18  19
ATOM     19  C   UNL     1      -8.280   0.741 127.264  0.00  0.00    +0.000 C 
ATOM     20  C   UNL     1      -7.840   0.698 128.729  0.00  0.00    +0.000 C 
BRANCH  19  21
ATOM     21  N   UNL     1      -8.660   2.112 126.831  0.00  0.00    +0.000 NA
ATOM     22  C   UNL     1      -7.843   3.151 127.488  0.00  0.00    +0.000 C 
ATOM     23  C   UNL     1      -8.437   2.242 125.379  0.00  0.00    +0.000 C 
ENDBRANCH  19  21
ENDBRANCH  18  19
ENDBRANCH   1  18
TORSDOF 7
ENDMDL
MODEL 5
REMARK VINA RESULT:      -6.7      1.791      4.311
REMARK  Name = Methadone
REMARK  11 active torsions:
REMARK  status: ('A' for Active; 'I' for Inactive)
REMARK    1  A    between atoms: C_1  and  C_2
REMARK    2  A    between atoms: C_2  and  C_3
REMARK    3  A    between atoms: C_3  and  C_5
REMARK    4  A    between atoms: C_5  and  C_6
REMARK    5  A    between atoms: C_5  and  C_12
REMARK    6  A    between atoms: C_5  and  C_18
REMARK    7  A    between atoms: C_6  and  C_7
REMARK    8  A    between atoms: C_7  and  C_8
REMARK    9  A    between atoms: C_7  and  N_9
REMARK   10  A    between atoms: N_9  and  C_10
REMARK   11  A    between atoms: N_9  and  C_11
REMARK                            x       y       z     vdW  Elec       q    Type
REMARK                         _______ _______ _______ _____ _____    ______ ____
ROOT
ATOM      1  C   UNL     1      -6.824  -1.635 125.462  0.00  0.00    +0.000 C 
ENDROOT
BRANCH   1   2
ATOM      2  C   UNL     1      -7.959  -0.668 124.984  0.00  0.00    +0.000 A 
ATOM      3  C   UNL     1      -7.956  -0.074 123.716  0.00  0.00    +0.000 A 
ATOM      4  C   UNL     1      -8.814   0.999 123.433  0.00  0.00    +0.000 A 
ATOM      5  C   UNL     1      -9.755   1.439 124.365  0.00  0.00    +0.000 A 
ATOM      6  C   UNL     1      -9.844   0.804 125.578  0.00  0.00    +0.000 A 
ATOM      7  C   UNL     1      -8.980  -0.244 125.842  0.00  0.00    +0.000 A 
ENDBRANCH   1   2
BRANCH   1   8
ATOM      8  C   UNL     1      -7.362  -2.527 126.659  0.00  0.00    +0.000 A 
ATOM      9  C   UNL     1      -8.476  -3.383 126.598  0.00  0.00    +0.000 A 
ATOM     10  C   UNL     1      -9.143  -3.806 127.745  0.00  0.00    +0.000 A 
ATOM     11  C   UNL     1      -8.530  -3.652 128.974  0.00  0.00    +0.000 A 
ATOM     12  C   UNL     1      -7.293  -3.021 129.046  0.00  0.00    +0.000 A 
ATOM     13  C   UNL     1      -6.740  -2.425 127.912  0.00  0.00    +0.000 A 
ENDBRANCH   1   8
BRANCH   1  14
ATOM     14  C   UNL     1      -6.425  -2.609 124.252  0.00  0.00    +0.000 C 
ATOM     15  O   UNL     1      -7.295  -3.266 123.645  0.00  0.00    +0.000 OA
BRANCH  14  17
ATOM     16  C   UNL     1      -4.557  -4.279 123.799  0.00  0.00    +0.000 C 
ATOM     17  C   UNL     1      -4.945  -2.815 123.836  0.00  0.00    +0.000 C 
ENDBRANCH  14  17
ENDBRANCH   1  14
BRANCH   1  18
ATOM     18  C   UNL     1      -5.580  -0.807 125.908  0.00  0.00    +0.000 C 
BRANCH  18  19
ATOM     19  C   UNL     1      -5.829   0.606 126.562  0.00  0.00    +0.000 C 
ATOM     20  C   UNL     1      -5.387   0.710 128.024  0.00  0.00    +0.000 C 
BRANCH  19  21
ATOM     21  N   UNL     1      -5.295   1.718 125.733  0.00  0.00    +0.000 NA
ATOM     22  C   UNL     1      -6.302   2.770 125.495  0.00  0.00    +0.000 C 
ATOM     23  C   UNL     1      -4.167   2.354 126.440  0.00  0.00    +0.000 C 
ENDBRANCH  19  21
ENDBRANCH  18  19
ENDBRANCH   1  18
TORSDOF 7
ENDMDL
MODEL 6
REMARK VINA RESULT:      -6.6      1.926      4.495
REMARK  Name = Methadone
REMARK  11 active torsions:
REMARK  status: ('A' for Active; 'I' for Inactive)
REMARK    1  A    between atoms: C_1  and  C_2
REMARK    2  A    between atoms: C_2  and  C_3
REMARK    3  A    between atoms: C_3  and  C_5
REMARK    4  A    between atoms: C_5  and  C_6
REMARK    5  A    between atoms: C_5  and  C_12
REMARK    6  A    between atoms: C_5  and  C_18
REMARK    7  A    between atoms: C_6  and  C_7
REMARK    8  A    between atoms: C_7  and  C_8
REMARK    9  A    between atoms: C_7  and  N_9
REMARK   10  A    between atoms: N_9  and  C_10
REMARK   11  A    between atoms: N_9  and  C_11
REMARK                            x       y       z     vdW  Elec       q    Type
REMARK                         _______ _______ _______ _____ _____    ______ ____
ROOT
ATOM      1  C   UNL     1      -7.563  -0.824 124.977  0.00  0.00    +0.000 C 
ENDROOT
BRANCH   1   2
ATOM      2  C   UNL     1      -6.411  -1.706 124.386  0.00  0.00    +0.000 A 
ATOM      3  C   UNL     1      -6.186  -1.823 123.008  0.00  0.00    +0.000 A 
ATOM      4  C   UNL     1      -5.351  -2.834 122.510  0.00  0.00    +0.000 A 
ATOM      5  C   UNL     1      -4.652  -3.684 123.367  0.00  0.00    +0.000 A 
ATOM      6  C   UNL     1      -4.779  -3.521 124.724  0.00  0.00    +0.000 A 
ATOM      7  C   UNL     1      -5.617  -2.525 125.195  0.00  0.00    +0.000 A 
ENDBRANCH   1   2
BRANCH   1   8
ATOM      8  C   UNL     1      -7.920   0.331 123.949  0.00  0.00    +0.000 A 
ATOM      9  C   UNL     1      -7.023   1.305 123.477  0.00  0.00    +0.000 A 
ATOM     10  C   UNL     1      -7.464   2.507 122.928  0.00  0.00    +0.000 A 
ATOM     11  C   UNL     1      -8.786   2.626 122.545  0.00  0.00    +0.000 A 
ATOM     12  C   UNL     1      -9.661   1.570 122.775  0.00  0.00    +0.000 A 
ATOM     13  C   UNL     1      -9.246   0.459 123.509  0.00  0.00    +0.000 A 
ENDBRANCH   1   8
BRANCH   1  14
ATOM     14  C   UNL     1      -8.867  -1.735 125.179  0.00  0.00    +0.000 C 
ATOM     15  O   UNL     1      -9.846  -1.316 125.829  0.00  0.00    +0.000 OA
BRANCH  14  17
ATOM     16  C   UNL     1      -9.599  -3.253 123.271  0.00  0.00    +0.000 C 
ATOM     17  C   UNL     1      -8.933  -3.183 124.629  0.00  0.00    +0.000 C 
ENDBRANCH  14  17
ENDBRANCH   1  14
BRANCH   1  18
ATOM     18  C   UNL     1      -7.117  -0.225 126.346  0.00  0.00    +0.000 C 
BRANCH  18  19
ATOM     19  C   UNL     1      -7.445   1.291 126.631  0.00  0.00    +0.000 C 
ATOM     20  C   UNL     1      -8.667   1.513 127.526  0.00  0.00    +0.000 C 
BRANCH  19  21
ATOM     21  N   UNL     1      -6.257   2.051 127.103  0.00  0.00    +0.000 NA
ATOM     22  C   UNL     1      -6.131   2.030 128.573  0.00  0.00    +0.000 C 
ATOM     23  C   UNL     1      -5.036   1.432 126.557  0.00  0.00    +0.000 C 
ENDBRANCH  19  21
ENDBRANCH  18  19
ENDBRANCH   1  18
TORSDOF 7
ENDMDL
MODEL 7
REMARK VINA RESULT:      -6.3      2.389      4.980
REMARK  Name = Methadone
REMARK  11 active torsions:
REMARK  status: ('A' for Active; 'I' for Inactive)
REMARK    1  A    between atoms: C_1  and  C_2
REMARK    2  A    between atoms: C_2  and  C_3
REMARK    3  A    between atoms: C_3  and  C_5
REMARK    4  A    between atoms: C_5  and  C_6
REMARK    5  A    between atoms: C_5  and  C_12
REMARK    6  A    between atoms: C_5  and  C_18
REMARK    7  A    between atoms: C_6  and  C_7
REMARK    8  A    between atoms: C_7  and  C_8
REMARK    9  A    between atoms: C_7  and  N_9
REMARK   10  A    between atoms: N_9  and  C_10
REMARK   11  A    between atoms: N_9  and  C_11
REMARK                            x       y       z     vdW  Elec       q    Type
REMARK                         _______ _______ _______ _____ _____    ______ ____
ROOT
ATOM      1  C   UNL     1      -7.194   0.800 124.968  0.00  0.00    +0.000 C 
ENDROOT
BRANCH   1   2
ATOM      2  C   UNL     1      -6.460  -0.468 124.414  0.00  0.00    +0.000 A 
ATOM      3  C   UNL     1      -6.617  -0.910 123.094  0.00  0.00    +0.000 A 
ATOM      4  C   UNL     1      -6.189  -2.193 122.720  0.00  0.00    +0.000 A 
ATOM      5  C   UNL     1      -5.512  -3.020 123.617  0.00  0.00    +0.000 A 
ATOM      6  C   UNL     1      -5.257  -2.565 124.887  0.00  0.00    +0.000 A 
ATOM      7  C   UNL     1      -5.699  -1.302 125.239  0.00  0.00    +0.000 A 
ENDBRANCH   1   2
BRANCH   1   8
ATOM      8  C   UNL     1      -6.820   2.057 124.074  0.00  0.00    +0.000 A 
ATOM      9  C   UNL     1      -6.940   2.124 122.675  0.00  0.00    +0.000 A 
ATOM     10  C   UNL     1      -6.230   3.053 121.919  0.00  0.00    +0.000 A 
ATOM     11  C   UNL     1      -5.644   4.131 122.556  0.00  0.00    +0.000 A 
ATOM     12  C   UNL     1      -5.719   4.229 123.941  0.00  0.00    +0.000 A 
ATOM     13  C   UNL     1      -6.257   3.183 124.692  0.00  0.00    +0.000 A 
ENDBRANCH   1   8
BRANCH   1  14
ATOM     14  C   UNL     1      -8.778   0.571 124.870  0.00  0.00    +0.000 C 
ATOM     15  O   UNL     1      -9.282  -0.541 125.129  0.00  0.00    +0.000 OA
BRANCH  14  17
ATOM     16  C   UNL     1     -10.469   1.332 123.125  0.00  0.00    +0.000 C 
ATOM     17  C   UNL     1      -9.729   1.700 124.395  0.00  0.00    +0.000 C 
ENDBRANCH  14  17
ENDBRANCH   1  14
BRANCH   1  18
ATOM     18  C   UNL     1      -6.783   1.039 126.453  0.00  0.00    +0.000 C 
BRANCH  18  19
ATOM     19  C   UNL     1      -7.924   1.050 127.542  0.00  0.00    +0.000 C 
ATOM     20  C   UNL     1      -7.677   0.108 128.723  0.00  0.00    +0.000 C 
BRANCH  19  21
ATOM     21  N   UNL     1      -8.273   2.426 127.985  0.00  0.00    +0.000 NA
ATOM     22  C   UNL     1      -8.959   2.435 129.291  0.00  0.00    +0.000 C 
ATOM     23  C   UNL     1      -7.038   3.215 128.141  0.00  0.00    +0.000 C 
ENDBRANCH  19  21
ENDBRANCH  18  19
ENDBRANCH   1  18
TORSDOF 7
ENDMDL
MODEL 8
REMARK VINA RESULT:      -6.3      4.142      6.960
REMARK  Name = Methadone
REMARK  11 active torsions:
REMARK  status: ('A' for Active; 'I' for Inactive)
REMARK    1  A    between atoms: C_1  and  C_2
REMARK    2  A    between atoms: C_2  and  C_3
REMARK    3  A    between atoms: C_3  and  C_5
REMARK    4  A    between atoms: C_5  and  C_6
REMARK    5  A    between atoms: C_5  and  C_12
REMARK    6  A    between atoms: C_5  and  C_18
REMARK    7  A    between atoms: C_6  and  C_7
REMARK    8  A    between atoms: C_7  and  C_8
REMARK    9  A    between atoms: C_7  and  N_9
REMARK   10  A    between atoms: N_9  and  C_10
REMARK   11  A    between atoms: N_9  and  C_11
REMARK                            x       y       z     vdW  Elec       q    Type
REMARK                         _______ _______ _______ _____ _____    ______ ____
ROOT
ATOM      1  C   UNL     1      -6.959  -1.852 130.102  0.00  0.00    +0.000 C 
ENDROOT
BRANCH   1   2
ATOM      2  C   UNL     1      -7.655  -0.509 130.508  0.00  0.00    +0.000 A 
ATOM      3  C   UNL     1      -8.428  -0.385 131.669  0.00  0.00    +0.000 A 
ATOM      4  C   UNL     1      -9.266   0.727 131.847  0.00  0.00    +0.000 A 
ATOM      5  C   UNL     1      -9.280   1.777 130.930  0.00  0.00    +0.000 A 
ATOM      6  C   UNL     1      -8.454   1.723 129.835  0.00  0.00    +0.000 A 
ATOM      7  C   UNL     1      -7.644   0.613 129.671  0.00  0.00    +0.000 A 
ENDBRANCH   1   2
BRANCH   1   8
ATOM      8  C   UNL     1      -7.582  -2.376 128.740  0.00  0.00    +0.000 A 
ATOM      9  C   UNL     1      -7.560  -1.684 127.516  0.00  0.00    +0.000 A 
ATOM     10  C   UNL     1      -8.453  -1.976 126.489  0.00  0.00    +0.000 A 
ATOM     11  C   UNL     1      -9.164  -3.161 126.533  0.00  0.00    +0.000 A 
ATOM     12  C   UNL     1      -9.021  -4.003 127.630  0.00  0.00    +0.000 A 
ATOM     13  C   UNL     1      -8.278  -3.594 128.739  0.00  0.00    +0.000 A 
ENDBRANCH   1   8
BRANCH   1  14
ATOM     14  C   UNL     1      -5.396  -1.580 129.865  0.00  0.00    +0.000 C 
ATOM     15  O   UNL     1      -4.825  -0.614 130.409  0.00  0.00    +0.000 OA
BRANCH  14  17
ATOM     16  C   UNL     1      -3.258  -2.921 129.537  0.00  0.00    +0.000 C 
ATOM     17  C   UNL     1      -4.559  -2.467 128.908  0.00  0.00    +0.000 C 
ENDBRANCH  14  17
ENDBRANCH   1  14
BRANCH   1  18
ATOM     18  C   UNL     1      -7.147  -2.906 131.236  0.00  0.00    +0.000 C 
BRANCH  18  19
ATOM     19  C   UNL     1      -5.930  -3.178 132.201  0.00  0.00    +0.000 C 
ATOM     20  C   UNL     1      -6.054  -2.512 133.574  0.00  0.00    +0.000 C 
BRANCH  19  21
ATOM     21  N   UNL     1      -5.600  -4.624 132.305  0.00  0.00    +0.000 NA
ATOM     22  C   UNL     1      -5.616  -5.296 130.992  0.00  0.00    +0.000 C 
ATOM     23  C   UNL     1      -4.238  -4.774 132.849  0.00  0.00    +0.000 C 
ENDBRANCH  19  21
ENDBRANCH  18  19
ENDBRANCH   1  18
TORSDOF 7
ENDMDL
MODEL 9
REMARK VINA RESULT:      -6.2      1.569      3.937
REMARK  Name = Methadone
REMARK  11 active torsions:
REMARK  status: ('A' for Active; 'I' for Inactive)
REMARK    1  A    between atoms: C_1  and  C_2
REMARK    2  A    between atoms: C_2  and  C_3
REMARK    3  A    between atoms: C_3  and  C_5
REMARK    4  A    between atoms: C_5  and  C_6
REMARK    5  A    between atoms: C_5  and  C_12
REMARK    6  A    between atoms: C_5  and  C_18
REMARK    7  A    between atoms: C_6  and  C_7
REMARK    8  A    between atoms: C_7  and  C_8
REMARK    9  A    between atoms: C_7  and  N_9
REMARK   10  A    between atoms: N_9  and  C_10
REMARK   11  A    between atoms: N_9  and  C_11
REMARK                            x       y       z     vdW  Elec       q    Type
REMARK                         _______ _______ _______ _____ _____    ______ ____
ROOT
ATOM      1  C   UNL     1      -7.408  -1.119 125.554  0.00  0.00    +0.000 C 
ENDROOT
BRANCH   1   2
ATOM      2  C   UNL     1      -7.580  -2.176 126.696  0.00  0.00    +0.000 A 
ATOM      3  C   UNL     1      -8.613  -3.122 126.696  0.00  0.00    +0.000 A 
ATOM      4  C   UNL     1      -8.910  -3.849 127.858  0.00  0.00    +0.000 A 
ATOM      5  C   UNL     1      -8.132  -3.723 129.009  0.00  0.00    +0.000 A 
ATOM      6  C   UNL     1      -7.051  -2.877 128.999  0.00  0.00    +0.000 A 
ATOM      7  C   UNL     1      -6.783  -2.160 127.846  0.00  0.00    +0.000 A 
ENDBRANCH   1   2
BRANCH   1   8
ATOM      8  C   UNL     1      -6.734   0.190 126.146  0.00  0.00    +0.000 A 
ATOM      9  C   UNL     1      -7.423   1.262 126.740  0.00  0.00    +0.000 A 
ATOM     10  C   UNL     1      -6.854   2.527 126.858  0.00  0.00    +0.000 A 
ATOM     11  C   UNL     1      -5.490   2.670 126.684  0.00  0.00    +0.000 A 
ATOM     12  C   UNL     1      -4.727   1.562 126.333  0.00  0.00    +0.000 A 
ATOM     13  C   UNL     1      -5.346   0.351 126.022  0.00  0.00    +0.000 A 
ENDBRANCH   1   8
BRANCH   1  14
ATOM     14  C   UNL     1      -6.435  -1.718 124.429  0.00  0.00    +0.000 C 
ATOM     15  O   UNL     1      -6.219  -1.095 123.370  0.00  0.00    +0.000 OA
BRANCH  14  17
ATOM     16  C   UNL     1      -4.715  -3.373 123.545  0.00  0.00    +0.000 C 
ATOM     17  C   UNL     1      -5.779  -3.114 124.591  0.00  0.00    +0.000 C 
ENDBRANCH  14  17
ENDBRANCH   1  14
BRANCH   1  18
ATOM     18  C   UNL     1      -8.799  -0.788 124.930  0.00  0.00    +0.000 C 
BRANCH  18  19
ATOM     19  C   UNL     1      -8.849  -0.397 123.403  0.00  0.00    +0.000 C 
ATOM     20  C   UNL     1      -9.595  -1.401 122.520  0.00  0.00    +0.000 C 
BRANCH  19  21
ATOM     21  N   UNL     1      -9.318   0.997 123.188  0.00  0.00    +0.000 NA
ATOM     22  C   UNL     1     -10.188   1.468 124.283  0.00  0.00    +0.000 C 
ATOM     23  C   UNL     1      -8.154   1.901 123.145  0.00  0.00    +0.000 C 
ENDBRANCH  19  21
ENDBRANCH  18  19
ENDBRANCH   1  18
TORSDOF 7
ENDMDL
