MODEL 1
REMARK VINA RESULT:      -4.3      0.000      0.000
REMARK  Name = Methylchloroisothiazolinone
REMARK  1 active torsions:
REMARK  status: ('A' for Active; 'I' for Inactive)
REMARK    1  A    between atoms: C_1  and  N_2
REMARK                            x       y       z     vdW  Elec       q    Type
REMARK                         _______ _______ _______ _____ _____    ______ ____
ROOT
ATOM      1  C   UNL     1     -11.262   5.021 130.347  0.00  0.00    +0.000 C 
ATOM      2  N   UNL     1     -11.512   6.355 129.870  0.00  0.00    +0.000 N 
ATOM      3  S   UNL     1     -12.673   7.338 130.617  0.00  0.00    +0.000 S 
ATOM      4  C   UNL     1     -12.314   8.605 129.506  0.00  0.00    +0.000 A 
ATOM      5 CL   UNL     1     -13.137  10.097 129.597  0.00  0.00    +0.000 Cl
ATOM      6  C   UNL     1     -11.372   8.321 128.605  0.00  0.00    +0.000 A 
ATOM      7  C   UNL     1     -10.860   6.948 128.808  0.00  0.00    +0.000 A 
ATOM      8  O   UNL     1      -9.984   6.463 128.104  0.00  0.00    +0.000 OA
ENDROOT
TORSDOF 0
ENDMDL
MODEL 2
REMARK VINA RESULT:      -4.3      2.696      2.832
REMARK  Name = Methylchloroisothiazolinone
REMARK  1 active torsions:
REMARK  status: ('A' for Active; 'I' for Inactive)
REMARK    1  A    between atoms: C_1  and  N_2
REMARK                            x       y       z     vdW  Elec       q    Type
REMARK                         _______ _______ _______ _____ _____    ______ ____
ROOT
ATOM      1  C   UNL     1     -10.600   6.096 132.401  0.00  0.00    +0.000 C 
ATOM      2  N   UNL     1     -11.005   6.761 131.191  0.00  0.00    +0.000 N 
ATOM      3  S   UNL     1      -9.897   7.028 129.938  0.00  0.00    +0.000 S 
ATOM      4  C   UNL     1     -11.132   7.786 129.007  0.00  0.00    +0.000 A 
ATOM      5 CL   UNL     1     -10.794   8.395 127.449  0.00  0.00    +0.000 Cl
ATOM      6  C   UNL     1     -12.329   7.848 129.595  0.00  0.00    +0.000 A 
ATOM      7  C   UNL     1     -12.280   7.224 130.935  0.00  0.00    +0.000 A 
ATOM      8  O   UNL     1     -13.259   7.157 131.664  0.00  0.00    +0.000 OA
ENDROOT
TORSDOF 0
ENDMDL
MODEL 3
REMARK VINA RESULT:      -4.1      2.481      3.059
REMARK  Name = Methylchloroisothiazolinone
REMARK  1 active torsions:
REMARK  status: ('A' for Active; 'I' for Inactive)
REMARK    1  A    between atoms: C_1  and  N_2
REMARK                            x       y       z     vdW  Elec       q    Type
REMARK                         _______ _______ _______ _____ _____    ______ ____
ROOT
ATOM      1  C   UNL     1     -13.071   8.681 128.566  0.00  0.00    +0.000 C 
ATOM      2  N   UNL     1     -12.060   8.027 129.355  0.00  0.00    +0.000 N 
ATOM      3  S   UNL     1     -12.464   7.235 130.797  0.00  0.00    +0.000 S 
ATOM      4  C   UNL     1     -10.813   6.797 131.018  0.00  0.00    +0.000 A 
ATOM      5 CL   UNL     1     -10.333   5.885 132.379  0.00  0.00    +0.000 Cl
ATOM      6  C   UNL     1      -9.980   7.220 130.066  0.00  0.00    +0.000 A 
ATOM      7  C   UNL     1     -10.719   7.975 129.030  0.00  0.00    +0.000 A 
ATOM      8  O   UNL     1     -10.168   8.459 128.051  0.00  0.00    +0.000 OA
ENDROOT
TORSDOF 0
ENDMDL
MODEL 4
REMARK VINA RESULT:      -4.0      1.864      2.431
REMARK  Name = Methylchloroisothiazolinone
REMARK  1 active torsions:
REMARK  status: ('A' for Active; 'I' for Inactive)
REMARK    1  A    between atoms: C_1  and  N_2
REMARK                            x       y       z     vdW  Elec       q    Type
REMARK                         _______ _______ _______ _____ _____    ______ ____
ROOT
ATOM      1  C   UNL     1     -11.228   7.597 126.467  0.00  0.00    +0.000 C 
ATOM      2  N   UNL     1     -11.394   7.460 127.890  0.00  0.00    +0.000 N 
ATOM      3  S   UNL     1     -12.703   8.186 128.683  0.00  0.00    +0.000 S 
ATOM      4  C   UNL     1     -12.147   7.548 130.183  0.00  0.00    +0.000 A 
ATOM      5 CL   UNL     1     -13.006   7.853 131.626  0.00  0.00    +0.000 Cl
ATOM      6  C   UNL     1     -11.029   6.823 130.114  0.00  0.00    +0.000 A 
ATOM      7  C   UNL     1     -10.547   6.750 128.717  0.00  0.00    +0.000 A 
ATOM      8  O   UNL     1      -9.538   6.134 128.403  0.00  0.00    +0.000 OA
ENDROOT
TORSDOF 0
ENDMDL
MODEL 5
REMARK VINA RESULT:      -4.0      2.039      2.204
REMARK  Name = Methylchloroisothiazolinone
REMARK  1 active torsions:
REMARK  status: ('A' for Active; 'I' for Inactive)
REMARK    1  A    between atoms: C_1  and  N_2
REMARK                            x       y       z     vdW  Elec       q    Type
REMARK                         _______ _______ _______ _____ _____    ______ ____
ROOT
ATOM      1  C   UNL     1      -9.815   6.185 129.352  0.00  0.00    +0.000 C 
ATOM      2  N   UNL     1     -10.914   7.090 129.561  0.00  0.00    +0.000 N 
ATOM      3  S   UNL     1     -11.206   8.362 128.482  0.00  0.00    +0.000 S 
ATOM      4  C   UNL     1     -12.564   8.848 129.422  0.00  0.00    +0.000 A 
ATOM      5 CL   UNL     1     -13.505  10.194 128.956  0.00  0.00    +0.000 Cl
ATOM      6  C   UNL     1     -12.802   8.104 130.504  0.00  0.00    +0.000 A 
ATOM      7  C   UNL     1     -11.806   7.016 130.613  0.00  0.00    +0.000 A 
ATOM      8  O   UNL     1     -11.822   6.199 131.523  0.00  0.00    +0.000 OA
ENDROOT
TORSDOF 0
ENDMDL
MODEL 6
REMARK VINA RESULT:      -3.9     11.965     12.671
REMARK  Name = Methylchloroisothiazolinone
REMARK  1 active torsions:
REMARK  status: ('A' for Active; 'I' for Inactive)
REMARK    1  A    between atoms: C_1  and  N_2
REMARK                            x       y       z     vdW  Elec       q    Type
REMARK                         _______ _______ _______ _____ _____    ______ ____
ROOT
ATOM      1  C   UNL     1      -9.265  -0.761 122.899  0.00  0.00    +0.000 C 
ATOM      2  N   UNL     1      -8.339  -1.757 123.370  0.00  0.00    +0.000 N 
ATOM      3  S   UNL     1      -6.711  -1.714 122.905  0.00  0.00    +0.000 S 
ATOM      4  C   UNL     1      -6.404  -3.123 123.848  0.00  0.00    +0.000 A 
ATOM      5 CL   UNL     1      -4.836  -3.792 123.923  0.00  0.00    +0.000 Cl
ATOM      6  C   UNL     1      -7.464  -3.620 124.488  0.00  0.00    +0.000 A 
ATOM      7  C   UNL     1      -8.665  -2.799 124.214  0.00  0.00    +0.000 A 
ATOM      8  O   UNL     1      -9.759  -3.057 124.696  0.00  0.00    +0.000 OA
ENDROOT
TORSDOF 0
ENDMDL
MODEL 7
REMARK VINA RESULT:      -3.9      2.803      3.290
REMARK  Name = Methylchloroisothiazolinone
REMARK  1 active torsions:
REMARK  status: ('A' for Active; 'I' for Inactive)
REMARK    1  A    between atoms: C_1  and  N_2
REMARK                            x       y       z     vdW  Elec       q    Type
REMARK                         _______ _______ _______ _____ _____    ______ ____
ROOT
ATOM      1  C   UNL     1     -10.979   7.983 126.896  0.00  0.00    +0.000 C 
ATOM      2  N   UNL     1     -11.368   7.780 128.267  0.00  0.00    +0.000 N 
ATOM      3  S   UNL     1     -10.452   6.788 129.289  0.00  0.00    +0.000 S 
ATOM      4  C   UNL     1     -11.542   7.113 130.582  0.00  0.00    +0.000 A 
ATOM      5 CL   UNL     1     -11.294   6.419 132.121  0.00  0.00    +0.000 Cl
ATOM      6  C   UNL     1     -12.557   7.925 130.279  0.00  0.00    +0.000 A 
ATOM      7  C   UNL     1     -12.473   8.352 128.865  0.00  0.00    +0.000 A 
ATOM      8  O   UNL     1     -13.293   9.104 128.357  0.00  0.00    +0.000 OA
ENDROOT
TORSDOF 0
ENDMDL
MODEL 8
REMARK VINA RESULT:      -3.8      3.213      3.889
REMARK  Name = Methylchloroisothiazolinone
REMARK  1 active torsions:
REMARK  status: ('A' for Active; 'I' for Inactive)
REMARK    1  A    between atoms: C_1  and  N_2
REMARK                            x       y       z     vdW  Elec       q    Type
REMARK                         _______ _______ _______ _____ _____    ______ ____
ROOT
ATOM      1  C   UNL     1     -12.797   9.231 129.459  0.00  0.00    +0.000 C 
ATOM      2  N   UNL     1     -12.000   8.100 129.854  0.00  0.00    +0.000 N 
ATOM      3  S   UNL     1     -10.540   7.753 129.069  0.00  0.00    +0.000 S 
ATOM      4  C   UNL     1     -10.309   6.393 130.100  0.00  0.00    +0.000 A 
ATOM      5 CL   UNL     1      -8.922   5.410 129.940  0.00  0.00    +0.000 Cl
ATOM      6  C   UNL     1     -11.274   6.189 130.997  0.00  0.00    +0.000 A 
ATOM      7  C   UNL     1     -12.324   7.224 130.871  0.00  0.00    +0.000 A 
ATOM      8  O   UNL     1     -13.312   7.248 131.592  0.00  0.00    +0.000 OA
ENDROOT
TORSDOF 0
ENDMDL
MODEL 9
REMARK VINA RESULT:      -3.7     11.502     11.629
REMARK  Name = Methylchloroisothiazolinone
REMARK  1 active torsions:
REMARK  status: ('A' for Active; 'I' for Inactive)
REMARK    1  A    between atoms: C_1  and  N_2
REMARK                            x       y       z     vdW  Elec       q    Type
REMARK                         _______ _______ _______ _____ _____    ______ ____
ROOT
ATOM      1  C   UNL     1      -6.945  -1.398 123.662  0.00  0.00    +0.000 C 
ATOM      2  N   UNL     1      -7.730  -2.050 124.677  0.00  0.00    +0.000 N 
ATOM      3  S   UNL     1      -7.090  -2.327 126.220  0.00  0.00    +0.000 S 
ATOM      4  C   UNL     1      -8.572  -3.061 126.702  0.00  0.00    +0.000 A 
ATOM      5 CL   UNL     1      -8.765  -3.667 128.286  0.00  0.00    +0.000 Cl
ATOM      6  C   UNL     1      -9.516  -3.109 125.760  0.00  0.00    +0.000 A 
ATOM      7  C   UNL     1      -9.026  -2.492 124.507  0.00  0.00    +0.000 A 
ATOM      8  O   UNL     1      -9.717  -2.414 123.501  0.00  0.00    +0.000 OA
ENDROOT
TORSDOF 0
ENDMDL
