MODEL 1
REMARK VINA RESULT:      -5.4      0.000      0.000
REMARK  Name = Methyl salicylate
REMARK  4 active torsions:
REMARK  status: ('A' for Active; 'I' for Inactive)
REMARK    1  A    between atoms: C_1  and  O_2
REMARK    2  A    between atoms: O_2  and  C_3
REMARK    3  A    between atoms: C_3  and  C_5
REMARK    4  A    between atoms: C_10  and  O_11
REMARK                            x       y       z     vdW  Elec       q    Type
REMARK                         _______ _______ _______ _____ _____    ______ ____
ROOT
ATOM      1  C   UNL     1     -10.537   7.149 130.259  0.00  0.00    +0.000 A 
ATOM      2  C   UNL     1     -10.323   7.933 129.113  0.00  0.00    +0.000 A 
ATOM      3  C   UNL     1     -11.404   8.394 128.354  0.00  0.00    +0.000 A 
ATOM      4  C   UNL     1     -12.707   8.091 128.747  0.00  0.00    +0.000 A 
ATOM      5  C   UNL     1     -12.931   7.321 129.893  0.00  0.00    +0.000 A 
ATOM      6  C   UNL     1     -11.848   6.849 130.644  0.00  0.00    +0.000 A 
ENDROOT
BRANCH   1   7
ATOM      7  C   UNL     1      -9.357   6.753 131.068  0.00  0.00    +0.000 C 
ATOM      8  O   UNL     1      -9.441   6.482 132.260  0.00  0.00    +0.000 OA
BRANCH   7  10
ATOM      9  C   UNL     1      -7.016   6.887 131.134  0.00  0.00    +0.000 C 
ATOM     10  O   UNL     1      -8.209   6.809 130.346  0.00  0.00    +0.000 OA
ENDBRANCH   7  10
ENDBRANCH   1   7
BRANCH   6  11
ATOM     11  O   UNL     1     -12.077   6.132 131.785  0.00  0.00    +0.000 OA
ATOM     12  H   UNL     1     -11.263   6.070 132.308  0.00  0.00    +0.000 HD
ENDBRANCH   6  11
TORSDOF 3
ENDMDL
MODEL 2
REMARK VINA RESULT:      -5.3      1.519      1.811
REMARK  Name = Methyl salicylate
REMARK  4 active torsions:
REMARK  status: ('A' for Active; 'I' for Inactive)
REMARK    1  A    between atoms: C_1  and  O_2
REMARK    2  A    between atoms: O_2  and  C_3
REMARK    3  A    between atoms: C_3  and  C_5
REMARK    4  A    between atoms: C_10  and  O_11
REMARK                            x       y       z     vdW  Elec       q    Type
REMARK                         _______ _______ _______ _____ _____    ______ ____
ROOT
ATOM      1  C   UNL     1     -10.978   7.032 130.429  0.00  0.00    +0.000 A 
ATOM      2  C   UNL     1     -10.161   7.489 129.381  0.00  0.00    +0.000 A 
ATOM      3  C   UNL     1     -10.664   8.367 128.416  0.00  0.00    +0.000 A 
ATOM      4  C   UNL     1     -11.983   8.812 128.503  0.00  0.00    +0.000 A 
ATOM      5  C   UNL     1     -12.801   8.373 129.549  0.00  0.00    +0.000 A 
ATOM      6  C   UNL     1     -12.300   7.483 130.506  0.00  0.00    +0.000 A 
ENDROOT
BRANCH   1   7
ATOM      7  C   UNL     1     -10.369   6.163 131.466  0.00  0.00    +0.000 C 
ATOM      8  O   UNL     1     -10.376   6.458 132.655  0.00  0.00    +0.000 OA
BRANCH   7  10
ATOM      9  C   UNL     1     -10.644   4.014 130.566  0.00  0.00    +0.000 C 
ATOM     10  O   UNL     1      -9.758   5.081 130.921  0.00  0.00    +0.000 OA
ENDBRANCH   7  10
ENDBRANCH   1   7
BRANCH   6  11
ATOM     11  O   UNL     1     -13.094   7.092 131.548  0.00  0.00    +0.000 OA
ATOM     12  H   UNL     1     -12.985   6.142 131.710  0.00  0.00    +0.000 HD
ENDBRANCH   6  11
TORSDOF 3
ENDMDL
MODEL 3
REMARK VINA RESULT:      -5.2      1.710      2.870
REMARK  Name = Methyl salicylate
REMARK  4 active torsions:
REMARK  status: ('A' for Active; 'I' for Inactive)
REMARK    1  A    between atoms: C_1  and  O_2
REMARK    2  A    between atoms: O_2  and  C_3
REMARK    3  A    between atoms: C_3  and  C_5
REMARK    4  A    between atoms: C_10  and  O_11
REMARK                            x       y       z     vdW  Elec       q    Type
REMARK                         _______ _______ _______ _____ _____    ______ ____
ROOT
ATOM      1  C   UNL     1     -11.821   6.955 129.444  0.00  0.00    +0.000 A 
ATOM      2  C   UNL     1     -12.965   6.705 128.668  0.00  0.00    +0.000 A 
ATOM      3  C   UNL     1     -12.981   7.014 127.304  0.00  0.00    +0.000 A 
ATOM      4  C   UNL     1     -11.847   7.556 126.702  0.00  0.00    +0.000 A 
ATOM      5  C   UNL     1     -10.698   7.798 127.463  0.00  0.00    +0.000 A 
ATOM      6  C   UNL     1     -10.688   7.500 128.831  0.00  0.00    +0.000 A 
ENDROOT
BRANCH   1   7
ATOM      7  C   UNL     1     -11.835   6.536 130.868  0.00  0.00    +0.000 C 
ATOM      8  O   UNL     1     -12.695   6.914 131.654  0.00  0.00    +0.000 OA
BRANCH   7  10
ATOM      9  C   UNL     1     -10.255   5.965 132.506  0.00  0.00    +0.000 C 
ATOM     10  O   UNL     1     -10.757   5.773 131.179  0.00  0.00    +0.000 OA
ENDBRANCH   7  10
ENDBRANCH   1   7
BRANCH   6  11
ATOM     11  O   UNL     1      -9.549   7.701 129.559  0.00  0.00    +0.000 OA
ATOM     12  H   UNL     1      -9.377   8.651 129.653  0.00  0.00    +0.000 HD
ENDBRANCH   6  11
TORSDOF 3
ENDMDL
MODEL 4
REMARK VINA RESULT:      -5.1      1.837      3.700
REMARK  Name = Methyl salicylate
REMARK  4 active torsions:
REMARK  status: ('A' for Active; 'I' for Inactive)
REMARK    1  A    between atoms: C_1  and  O_2
REMARK    2  A    between atoms: O_2  and  C_3
REMARK    3  A    between atoms: C_3  and  C_5
REMARK    4  A    between atoms: C_10  and  O_11
REMARK                            x       y       z     vdW  Elec       q    Type
REMARK                         _______ _______ _______ _____ _____    ______ ____
ROOT
ATOM      1  C   UNL     1     -10.494   7.016 130.442  0.00  0.00    +0.000 A 
ATOM      2  C   UNL     1      -9.123   7.197 130.193  0.00  0.00    +0.000 A 
ATOM      3  C   UNL     1      -8.168   6.749 131.111  0.00  0.00    +0.000 A 
ATOM      4  C   UNL     1      -8.575   6.100 132.276  0.00  0.00    +0.000 A 
ATOM      5  C   UNL     1      -9.937   5.905 132.528  0.00  0.00    +0.000 A 
ATOM      6  C   UNL     1     -10.893   6.365 131.614  0.00  0.00    +0.000 A 
ENDROOT
BRANCH   1   7
ATOM      7  C   UNL     1     -11.458   7.441 129.397  0.00  0.00    +0.000 C 
ATOM      8  O   UNL     1     -12.340   8.264 129.615  0.00  0.00    +0.000 OA
BRANCH   7  10
ATOM      9  C   UNL     1     -11.039   7.579 127.093  0.00  0.00    +0.000 C 
ATOM     10  O   UNL     1     -11.282   6.756 128.239  0.00  0.00    +0.000 OA
ENDBRANCH   7  10
ENDBRANCH   1   7
BRANCH   6  11
ATOM     11  O   UNL     1     -12.219   6.133 131.848  0.00  0.00    +0.000 OA
ATOM     12  H   UNL     1     -12.651   6.948 132.148  0.00  0.00    +0.000 HD
ENDBRANCH   6  11
TORSDOF 3
ENDMDL
MODEL 5
REMARK VINA RESULT:      -5.1      9.473     10.410
REMARK  Name = Methyl salicylate
REMARK  4 active torsions:
REMARK  status: ('A' for Active; 'I' for Inactive)
REMARK    1  A    between atoms: C_1  and  O_2
REMARK    2  A    between atoms: O_2  and  C_3
REMARK    3  A    between atoms: C_3  and  C_5
REMARK    4  A    between atoms: C_10  and  O_11
REMARK                            x       y       z     vdW  Elec       q    Type
REMARK                         _______ _______ _______ _____ _____    ______ ____
ROOT
ATOM      1  C   UNL     1      -7.526   3.426 121.907  0.00  0.00    +0.000 A 
ATOM      2  C   UNL     1      -6.185   3.541 122.309  0.00  0.00    +0.000 A 
ATOM      3  C   UNL     1      -5.216   4.025 121.424  0.00  0.00    +0.000 A 
ATOM      4  C   UNL     1      -5.585   4.416 120.137  0.00  0.00    +0.000 A 
ATOM      5  C   UNL     1      -6.919   4.316 119.731  0.00  0.00    +0.000 A 
ATOM      6  C   UNL     1      -7.886   3.820 120.614  0.00  0.00    +0.000 A 
ENDROOT
BRANCH   1   7
ATOM      7  C   UNL     1      -8.524   2.980 122.912  0.00  0.00    +0.000 C 
ATOM      8  O   UNL     1      -8.549   3.426 124.053  0.00  0.00    +0.000 OA
BRANCH   7  10
ATOM      9  C   UNL     1      -9.303   0.787 123.201  0.00  0.00    +0.000 C 
ATOM     10  O   UNL     1      -9.318   1.992 122.429  0.00  0.00    +0.000 OA
ENDBRANCH   7  10
ENDBRANCH   1   7
BRANCH   6  11
ATOM     11  O   UNL     1      -9.195   3.764 120.223  0.00  0.00    +0.000 OA
ATOM     12  H   UNL     1      -9.560   4.660 120.156  0.00  0.00    +0.000 HD
ENDBRANCH   6  11
TORSDOF 3
ENDMDL
MODEL 6
REMARK VINA RESULT:      -5.0      1.855      2.818
REMARK  Name = Methyl salicylate
REMARK  4 active torsions:
REMARK  status: ('A' for Active; 'I' for Inactive)
REMARK    1  A    between atoms: C_1  and  O_2
REMARK    2  A    between atoms: O_2  and  C_3
REMARK    3  A    between atoms: C_3  and  C_5
REMARK    4  A    between atoms: C_10  and  O_11
REMARK                            x       y       z     vdW  Elec       q    Type
REMARK                         _______ _______ _______ _____ _____    ______ ____
ROOT
ATOM      1  C   UNL     1     -11.281   6.738 129.980  0.00  0.00    +0.000 A 
ATOM      2  C   UNL     1     -12.322   7.555 130.450  0.00  0.00    +0.000 A 
ATOM      3  C   UNL     1     -12.749   8.662 129.710  0.00  0.00    +0.000 A 
ATOM      4  C   UNL     1     -12.150   8.950 128.484  0.00  0.00    +0.000 A 
ATOM      5  C   UNL     1     -11.120   8.136 128.001  0.00  0.00    +0.000 A 
ATOM      6  C   UNL     1     -10.686   7.035 128.749  0.00  0.00    +0.000 A 
ENDROOT
BRANCH   1   7
ATOM      7  C   UNL     1     -10.922   5.533 130.769  0.00  0.00    +0.000 C 
ATOM      8  O   UNL     1     -10.431   5.605 131.889  0.00  0.00    +0.000 OA
BRANCH   7  10
ATOM      9  C   UNL     1     -10.372   3.267 130.521  0.00  0.00    +0.000 C 
ATOM     10  O   UNL     1     -11.134   4.390 130.068  0.00  0.00    +0.000 OA
ENDBRANCH   7  10
ENDBRANCH   1   7
BRANCH   6  11
ATOM     11  O   UNL     1      -9.706   6.222 128.250  0.00  0.00    +0.000 OA
ATOM     12  H   UNL     1     -10.017   5.784 127.443  0.00  0.00    +0.000 HD
ENDBRANCH   6  11
TORSDOF 3
ENDMDL
MODEL 7
REMARK VINA RESULT:      -4.9     11.163     11.785
REMARK  Name = Methyl salicylate
REMARK  4 active torsions:
REMARK  status: ('A' for Active; 'I' for Inactive)
REMARK    1  A    between atoms: C_1  and  O_2
REMARK    2  A    between atoms: O_2  and  C_3
REMARK    3  A    between atoms: C_3  and  C_5
REMARK    4  A    between atoms: C_10  and  O_11
REMARK                            x       y       z     vdW  Elec       q    Type
REMARK                         _______ _______ _______ _____ _____    ______ ____
ROOT
ATOM      1  C   UNL     1      -8.194  -1.544 123.526  0.00  0.00    +0.000 A 
ATOM      2  C   UNL     1      -6.847  -1.345 123.178  0.00  0.00    +0.000 A 
ATOM      3  C   UNL     1      -5.886  -2.317 123.469  0.00  0.00    +0.000 A 
ATOM      4  C   UNL     1      -6.265  -3.505 124.093  0.00  0.00    +0.000 A 
ATOM      5  C   UNL     1      -7.605  -3.719 124.433  0.00  0.00    +0.000 A 
ATOM      6  C   UNL     1      -8.565  -2.739 124.153  0.00  0.00    +0.000 A 
ENDROOT
BRANCH   1   7
ATOM      7  C   UNL     1      -9.182  -0.513 123.124  0.00  0.00    +0.000 C 
ATOM      8  O   UNL     1     -10.211  -0.792 122.519  0.00  0.00    +0.000 OA
BRANCH   7  10
ATOM      9  C   UNL     1      -9.751   1.552 124.080  0.00  0.00    +0.000 C 
ATOM     10  O   UNL     1      -8.763   0.738 123.440  0.00  0.00    +0.000 OA
ENDBRANCH   7  10
ENDBRANCH   1   7
BRANCH   6  11
ATOM     11  O   UNL     1      -9.878  -2.973 124.453  0.00  0.00    +0.000 OA
ATOM     12  H   UNL     1     -10.435  -2.769 123.686  0.00  0.00    +0.000 HD
ENDBRANCH   6  11
TORSDOF 3
ENDMDL
MODEL 8
REMARK VINA RESULT:      -4.9      9.688     10.787
REMARK  Name = Methyl salicylate
REMARK  4 active torsions:
REMARK  status: ('A' for Active; 'I' for Inactive)
REMARK    1  A    between atoms: C_1  and  O_2
REMARK    2  A    between atoms: O_2  and  C_3
REMARK    3  A    between atoms: C_3  and  C_5
REMARK    4  A    between atoms: C_10  and  O_11
REMARK                            x       y       z     vdW  Elec       q    Type
REMARK                         _______ _______ _______ _____ _____    ______ ____
ROOT
ATOM      1  C   UNL     1      -6.370   3.994 121.226  0.00  0.00    +0.000 A 
ATOM      2  C   UNL     1      -7.431   3.835 120.318  0.00  0.00    +0.000 A 
ATOM      3  C   UNL     1      -7.401   4.468 119.072  0.00  0.00    +0.000 A 
ATOM      4  C   UNL     1      -6.302   5.248 118.715  0.00  0.00    +0.000 A 
ATOM      5  C   UNL     1      -5.235   5.403 119.606  0.00  0.00    +0.000 A 
ATOM      6  C   UNL     1      -5.272   4.780 120.860  0.00  0.00    +0.000 A 
ENDROOT
BRANCH   1   7
ATOM      7  C   UNL     1      -6.420   3.238 122.502  0.00  0.00    +0.000 C 
ATOM      8  O   UNL     1      -6.743   2.057 122.552  0.00  0.00    +0.000 OA
BRANCH   7  10
ATOM      9  C   UNL     1      -7.081   3.923 124.645  0.00  0.00    +0.000 C 
ATOM     10  O   UNL     1      -6.144   4.030 123.569  0.00  0.00    +0.000 OA
ENDBRANCH   7  10
ENDBRANCH   1   7
BRANCH   6  11
ATOM     11  O   UNL     1      -4.208   4.903 121.708  0.00  0.00    +0.000 OA
ATOM     12  H   UNL     1      -4.035   5.840 121.891  0.00  0.00    +0.000 HD
ENDBRANCH   6  11
TORSDOF 3
ENDMDL
MODEL 9
REMARK VINA RESULT:      -4.7      8.873      9.743
REMARK  Name = Methyl salicylate
REMARK  4 active torsions:
REMARK  status: ('A' for Active; 'I' for Inactive)
REMARK    1  A    between atoms: C_1  and  O_2
REMARK    2  A    between atoms: O_2  and  C_3
REMARK    3  A    between atoms: C_3  and  C_5
REMARK    4  A    between atoms: C_10  and  O_11
REMARK                            x       y       z     vdW  Elec       q    Type
REMARK                         _______ _______ _______ _____ _____    ______ ____
ROOT
ATOM      1  C   UNL     1      -6.825   3.477 122.413  0.00  0.00    +0.000 A 
ATOM      2  C   UNL     1      -5.523   3.980 122.255  0.00  0.00    +0.000 A 
ATOM      3  C   UNL     1      -5.109   4.512 121.030  0.00  0.00    +0.000 A 
ATOM      4  C   UNL     1      -6.000   4.563 119.959  0.00  0.00    +0.000 A 
ATOM      5  C   UNL     1      -7.303   4.076 120.108  0.00  0.00    +0.000 A 
ATOM      6  C   UNL     1      -7.712   3.531 121.332  0.00  0.00    +0.000 A 
ENDROOT
BRANCH   1   7
ATOM      7  C   UNL     1      -7.234   2.996 123.756  0.00  0.00    +0.000 C 
ATOM      8  O   UNL     1      -6.699   2.036 124.300  0.00  0.00    +0.000 OA
BRANCH   7  10
ATOM      9  C   UNL     1      -8.039   4.383 125.467  0.00  0.00    +0.000 C 
ATOM     10  O   UNL     1      -8.293   3.692 124.241  0.00  0.00    +0.000 OA
ENDBRANCH   7  10
ENDBRANCH   1   7
BRANCH   6  11
ATOM     11  O   UNL     1      -8.998   3.095 121.482  0.00  0.00    +0.000 OA
ATOM     12  H   UNL     1      -9.158   2.840 122.404  0.00  0.00    +0.000 HD
ENDBRANCH   6  11
TORSDOF 3
ENDMDL
