MODEL 1
REMARK VINA RESULT:      -4.7      0.000      0.000
REMARK  Name = Methyl aminolevulinate
REMARK  7 active torsions:
REMARK  status: ('A' for Active; 'I' for Inactive)
REMARK    1  A    between atoms: C_1  and  O_2
REMARK    2  A    between atoms: O_2  and  C_3
REMARK    3  A    between atoms: C_3  and  C_5
REMARK    4  A    between atoms: C_5  and  C_6
REMARK    5  A    between atoms: C_6  and  C_7
REMARK    6  A    between atoms: C_7  and  C_9
REMARK    7  A    between atoms: C_9  and  N_10
REMARK                            x       y       z     vdW  Elec       q    Type
REMARK                         _______ _______ _______ _____ _____    ______ ____
ROOT
ATOM      1  C   UNL     1     -12.269   8.791 128.443  0.00  0.00    +0.000 C 
ENDROOT
BRANCH   1   2
ATOM      2  C   UNL     1     -10.921   8.341 127.905  0.00  0.00    +0.000 C 
ATOM      3  O   UNL     1      -9.885   8.536 128.545  0.00  0.00    +0.000 OA
BRANCH   2   4
ATOM      4  C   UNL     1     -10.922   7.687 126.512  0.00  0.00    +0.000 C 
BRANCH   4   5
ATOM      5  N   UNL     1     -10.046   6.511 126.500  0.00  0.00    +0.000 NA
ATOM      6  H   UNL     1     -10.566   5.708 126.858  0.00  0.00    +0.000 HD
ATOM      7  H   UNL     1      -9.238   6.648 127.102  0.00  0.00    +0.000 HD
ENDBRANCH   4   5
ENDBRANCH   2   4
ENDBRANCH   1   2
BRANCH   1   8
ATOM      8  C   UNL     1     -13.236   7.611 128.605  0.00  0.00    +0.000 C 
BRANCH   8   9
ATOM      9  C   UNL     1     -12.679   6.583 129.561  0.00  0.00    +0.000 C 
ATOM     10  O   UNL     1     -12.184   5.516 129.214  0.00  0.00    +0.000 OA
BRANCH   9  12
ATOM     11  C   UNL     1     -11.706   6.607 131.695  0.00  0.00    +0.000 C 
ATOM     12  O   UNL     1     -12.800   6.995 130.854  0.00  0.00    +0.000 OA
ENDBRANCH   9  12
ENDBRANCH   8   9
ENDBRANCH   1   8
TORSDOF 6
ENDMDL
MODEL 2
REMARK VINA RESULT:      -4.4      1.966      2.353
REMARK  Name = Methyl aminolevulinate
REMARK  7 active torsions:
REMARK  status: ('A' for Active; 'I' for Inactive)
REMARK    1  A    between atoms: C_1  and  O_2
REMARK    2  A    between atoms: O_2  and  C_3
REMARK    3  A    between atoms: C_3  and  C_5
REMARK    4  A    between atoms: C_5  and  C_6
REMARK    5  A    between atoms: C_6  and  C_7
REMARK    6  A    between atoms: C_7  and  C_9
REMARK    7  A    between atoms: C_9  and  N_10
REMARK                            x       y       z     vdW  Elec       q    Type
REMARK                         _______ _______ _______ _____ _____    ______ ____
ROOT
ATOM      1  C   UNL     1     -10.578   8.399 128.190  0.00  0.00    +0.000 C 
ENDROOT
BRANCH   1   2
ATOM      2  C   UNL     1     -12.089   8.351 128.041  0.00  0.00    +0.000 C 
ATOM      3  O   UNL     1     -12.813   9.134 128.661  0.00  0.00    +0.000 OA
BRANCH   2   4
ATOM      4  C   UNL     1     -12.654   7.250 127.126  0.00  0.00    +0.000 C 
BRANCH   4   5
ATOM      5  N   UNL     1     -11.605   6.731 126.242  0.00  0.00    +0.000 NA
ATOM      6  H   UNL     1     -12.036   6.140 125.530  0.00  0.00    +0.000 HD
ATOM      7  H   UNL     1     -10.940   6.159 126.757  0.00  0.00    +0.000 HD
ENDBRANCH   4   5
ENDBRANCH   2   4
ENDBRANCH   1   2
BRANCH   1   8
ATOM      8  C   UNL     1     -10.115   7.720 129.486  0.00  0.00    +0.000 C 
BRANCH   8   9
ATOM      9  C   UNL     1      -9.916   6.238 129.278  0.00  0.00    +0.000 C 
ATOM     10  O   UNL     1      -9.378   5.746 128.291  0.00  0.00    +0.000 OA
BRANCH   9  12
ATOM     11  C   UNL     1     -11.342   6.246 131.139  0.00  0.00    +0.000 C 
ATOM     12  O   UNL     1     -10.413   5.521 130.325  0.00  0.00    +0.000 OA
ENDBRANCH   9  12
ENDBRANCH   8   9
ENDBRANCH   1   8
TORSDOF 6
ENDMDL
MODEL 3
REMARK VINA RESULT:      -4.4      8.699      9.986
REMARK  Name = Methyl aminolevulinate
REMARK  7 active torsions:
REMARK  status: ('A' for Active; 'I' for Inactive)
REMARK    1  A    between atoms: C_1  and  O_2
REMARK    2  A    between atoms: O_2  and  C_3
REMARK    3  A    between atoms: C_3  and  C_5
REMARK    4  A    between atoms: C_5  and  C_6
REMARK    5  A    between atoms: C_6  and  C_7
REMARK    6  A    between atoms: C_7  and  C_9
REMARK    7  A    between atoms: C_9  and  N_10
REMARK                            x       y       z     vdW  Elec       q    Type
REMARK                         _______ _______ _______ _____ _____    ______ ____
ROOT
ATOM      1  C   UNL     1      -5.180   3.954 120.749  0.00  0.00    +0.000 C 
ENDROOT
BRANCH   1   2
ATOM      2  C   UNL     1      -5.281   5.257 119.975  0.00  0.00    +0.000 C 
ATOM      3  O   UNL     1      -4.680   6.267 120.351  0.00  0.00    +0.000 OA
BRANCH   2   4
ATOM      4  C   UNL     1      -6.205   5.255 118.745  0.00  0.00    +0.000 C 
BRANCH   4   5
ATOM      5  N   UNL     1      -7.415   4.470 119.015  0.00  0.00    +0.000 NA
ATOM      6  H   UNL     1      -7.287   3.959 119.890  0.00  0.00    +0.000 HD
ATOM      7  H   UNL     1      -7.583   3.789 118.281  0.00  0.00    +0.000 HD
ENDBRANCH   4   5
ENDBRANCH   2   4
ENDBRANCH   1   2
BRANCH   1   8
ATOM      8  C   UNL     1      -5.289   4.184 122.262  0.00  0.00    +0.000 C 
BRANCH   8   9
ATOM      9  C   UNL     1      -6.532   3.531 122.819  0.00  0.00    +0.000 C 
ATOM     10  O   UNL     1      -6.714   3.299 124.009  0.00  0.00    +0.000 OA
BRANCH   9  12
ATOM     11  C   UNL     1      -8.726   2.884 122.302  0.00  0.00    +0.000 C 
ATOM     12  O   UNL     1      -7.419   3.232 121.829  0.00  0.00    +0.000 OA
ENDBRANCH   9  12
ENDBRANCH   8   9
ENDBRANCH   1   8
TORSDOF 6
ENDMDL
MODEL 4
REMARK VINA RESULT:      -4.3      2.571      3.955
REMARK  Name = Methyl aminolevulinate
REMARK  7 active torsions:
REMARK  status: ('A' for Active; 'I' for Inactive)
REMARK    1  A    between atoms: C_1  and  O_2
REMARK    2  A    between atoms: O_2  and  C_3
REMARK    3  A    between atoms: C_3  and  C_5
REMARK    4  A    between atoms: C_5  and  C_6
REMARK    5  A    between atoms: C_6  and  C_7
REMARK    6  A    between atoms: C_7  and  C_9
REMARK    7  A    between atoms: C_9  and  N_10
REMARK                            x       y       z     vdW  Elec       q    Type
REMARK                         _______ _______ _______ _____ _____    ______ ____
ROOT
ATOM      1  C   UNL     1     -12.046   5.800 129.652  0.00  0.00    +0.000 C 
ENDROOT
BRANCH   1   2
ATOM      2  C   UNL     1     -11.779   6.391 131.025  0.00  0.00    +0.000 C 
ATOM      3  O   UNL     1     -12.695   6.870 131.699  0.00  0.00    +0.000 OA
BRANCH   2   4
ATOM      4  C   UNL     1     -10.313   6.404 131.494  0.00  0.00    +0.000 C 
BRANCH   4   5
ATOM      5  N   UNL     1     -10.244   6.319 132.957  0.00  0.00    +0.000 NA
ATOM      6  H   UNL     1     -11.183   6.154 133.323  0.00  0.00    +0.000 HD
ATOM      7  H   UNL     1      -9.904   7.188 133.360  0.00  0.00    +0.000 HD
ENDBRANCH   4   5
ENDBRANCH   2   4
ENDBRANCH   1   2
BRANCH   1   8
ATOM      8  C   UNL     1     -13.061   6.637 128.863  0.00  0.00    +0.000 C 
BRANCH   8   9
ATOM      9  C   UNL     1     -12.405   7.304 127.677  0.00  0.00    +0.000 C 
ATOM     10  O   UNL     1     -12.192   6.748 126.605  0.00  0.00    +0.000 OA
BRANCH   9  12
ATOM     11  C   UNL     1     -13.040   9.277 128.773  0.00  0.00    +0.000 C 
ATOM     12  O   UNL     1     -12.080   8.597 127.955  0.00  0.00    +0.000 OA
ENDBRANCH   9  12
ENDBRANCH   8   9
ENDBRANCH   1   8
TORSDOF 6
ENDMDL
MODEL 5
REMARK VINA RESULT:      -4.3      2.725      3.623
REMARK  Name = Methyl aminolevulinate
REMARK  7 active torsions:
REMARK  status: ('A' for Active; 'I' for Inactive)
REMARK    1  A    between atoms: C_1  and  O_2
REMARK    2  A    between atoms: O_2  and  C_3
REMARK    3  A    between atoms: C_3  and  C_5
REMARK    4  A    between atoms: C_5  and  C_6
REMARK    5  A    between atoms: C_6  and  C_7
REMARK    6  A    between atoms: C_7  and  C_9
REMARK    7  A    between atoms: C_9  and  N_10
REMARK                            x       y       z     vdW  Elec       q    Type
REMARK                         _______ _______ _______ _____ _____    ______ ____
ROOT
ATOM      1  C   UNL     1     -11.058   5.827 129.976  0.00  0.00    +0.000 C 
ENDROOT
BRANCH   1   2
ATOM      2  C   UNL     1      -9.880   6.680 130.411  0.00  0.00    +0.000 C 
ATOM      3  O   UNL     1      -9.428   7.561 129.676  0.00  0.00    +0.000 OA
BRANCH   2   4
ATOM      4  C   UNL     1      -9.260   6.347 131.780  0.00  0.00    +0.000 C 
BRANCH   4   5
ATOM      5  N   UNL     1     -10.296   6.323 132.818  0.00  0.00    +0.000 NA
ATOM      6  H   UNL     1      -9.908   6.706 133.681  0.00  0.00    +0.000 HD
ATOM      7  H   UNL     1     -10.600   5.373 133.012  0.00  0.00    +0.000 HD
ENDBRANCH   4   5
ENDBRANCH   2   4
ENDBRANCH   1   2
BRANCH   1   8
ATOM      8  C   UNL     1     -12.220   6.687 129.460  0.00  0.00    +0.000 C 
BRANCH   8   9
ATOM      9  C   UNL     1     -12.774   7.560 130.560  0.00  0.00    +0.000 C 
ATOM     10  O   UNL     1     -13.172   7.139 131.641  0.00  0.00    +0.000 OA
BRANCH   9  12
ATOM     11  C   UNL     1     -12.754   9.084 128.777  0.00  0.00    +0.000 C 
ATOM     12  O   UNL     1     -12.777   8.873 130.194  0.00  0.00    +0.000 OA
ENDBRANCH   9  12
ENDBRANCH   8   9
ENDBRANCH   1   8
TORSDOF 6
ENDMDL
MODEL 6
REMARK VINA RESULT:      -4.3      1.881      3.513
REMARK  Name = Methyl aminolevulinate
REMARK  7 active torsions:
REMARK  status: ('A' for Active; 'I' for Inactive)
REMARK    1  A    between atoms: C_1  and  O_2
REMARK    2  A    between atoms: O_2  and  C_3
REMARK    3  A    between atoms: C_3  and  C_5
REMARK    4  A    between atoms: C_5  and  C_6
REMARK    5  A    between atoms: C_6  and  C_7
REMARK    6  A    between atoms: C_7  and  C_9
REMARK    7  A    between atoms: C_9  and  N_10
REMARK                            x       y       z     vdW  Elec       q    Type
REMARK                         _______ _______ _______ _____ _____    ______ ____
ROOT
ATOM      1  C   UNL     1     -12.704   7.213 130.626  0.00  0.00    +0.000 C 
ENDROOT
BRANCH   1   2
ATOM      2  C   UNL     1     -11.532   6.307 130.294  0.00  0.00    +0.000 C 
ATOM      3  O   UNL     1     -11.688   5.289 129.614  0.00  0.00    +0.000 OA
BRANCH   2   4
ATOM      4  C   UNL     1     -10.169   6.701 130.890  0.00  0.00    +0.000 C 
BRANCH   4   5
ATOM      5  N   UNL     1      -9.329   7.335 129.869  0.00  0.00    +0.000 NA
ATOM      6  H   UNL     1      -8.569   7.837 130.332  0.00  0.00    +0.000 HD
ATOM      7  H   UNL     1      -9.858   8.011 129.326  0.00  0.00    +0.000 HD
ENDBRANCH   4   5
ENDBRANCH   2   4
ENDBRANCH   1   2
BRANCH   1   8
ATOM      8  C   UNL     1     -12.608   8.557 129.892  0.00  0.00    +0.000 C 
BRANCH   8   9
ATOM      9  C   UNL     1     -12.630   8.357 128.395  0.00  0.00    +0.000 C 
ATOM     10  O   UNL     1     -13.621   8.011 127.760  0.00  0.00    +0.000 OA
BRANCH   9  12
ATOM     11  C   UNL     1     -11.070   7.741 126.755  0.00  0.00    +0.000 C 
ATOM     12  O   UNL     1     -11.409   8.608 127.845  0.00  0.00    +0.000 OA
ENDBRANCH   9  12
ENDBRANCH   8   9
ENDBRANCH   1   8
TORSDOF 6
ENDMDL
MODEL 7
REMARK VINA RESULT:      -4.3      1.593      1.844
REMARK  Name = Methyl aminolevulinate
REMARK  7 active torsions:
REMARK  status: ('A' for Active; 'I' for Inactive)
REMARK    1  A    between atoms: C_1  and  O_2
REMARK    2  A    between atoms: O_2  and  C_3
REMARK    3  A    between atoms: C_3  and  C_5
REMARK    4  A    between atoms: C_5  and  C_6
REMARK    5  A    between atoms: C_6  and  C_7
REMARK    6  A    between atoms: C_7  and  C_9
REMARK    7  A    between atoms: C_9  and  N_10
REMARK                            x       y       z     vdW  Elec       q    Type
REMARK                         _______ _______ _______ _____ _____    ______ ____
ROOT
ATOM      1  C   UNL     1     -12.289   8.413 129.574  0.00  0.00    +0.000 C 
ENDROOT
BRANCH   1   2
ATOM      2  C   UNL     1     -12.229   8.070 128.096  0.00  0.00    +0.000 C 
ATOM      3  O   UNL     1     -13.239   7.709 127.487  0.00  0.00    +0.000 OA
BRANCH   2   4
ATOM      4  C   UNL     1     -10.844   8.148 127.429  0.00  0.00    +0.000 C 
BRANCH   4   5
ATOM      5  N   UNL     1     -10.188   6.837 127.458  0.00  0.00    +0.000 NA
ATOM      6  H   UNL     1     -10.905   6.109 127.447  0.00  0.00    +0.000 HD
ATOM      7  H   UNL     1      -9.641   6.719 128.307  0.00  0.00    +0.000 HD
ENDBRANCH   4   5
ENDBRANCH   2   4
ENDBRANCH   1   2
BRANCH   1   8
ATOM      8  C   UNL     1     -12.807   7.234 130.409  0.00  0.00    +0.000 C 
BRANCH   8   9
ATOM      9  C   UNL     1     -11.752   6.161 130.538  0.00  0.00    +0.000 C 
ATOM     10  O   UNL     1     -11.655   5.196 129.787  0.00  0.00    +0.000 OA
BRANCH   9  12
ATOM     11  C   UNL     1      -9.542   6.501 131.246  0.00  0.00    +0.000 C 
ATOM     12  O   UNL     1     -10.928   6.403 131.596  0.00  0.00    +0.000 OA
ENDBRANCH   9  12
ENDBRANCH   8   9
ENDBRANCH   1   8
TORSDOF 6
ENDMDL
MODEL 8
REMARK VINA RESULT:      -4.2      2.462      4.012
REMARK  Name = Methyl aminolevulinate
REMARK  7 active torsions:
REMARK  status: ('A' for Active; 'I' for Inactive)
REMARK    1  A    between atoms: C_1  and  O_2
REMARK    2  A    between atoms: O_2  and  C_3
REMARK    3  A    between atoms: C_3  and  C_5
REMARK    4  A    between atoms: C_5  and  C_6
REMARK    5  A    between atoms: C_6  and  C_7
REMARK    6  A    between atoms: C_7  and  C_9
REMARK    7  A    between atoms: C_9  and  N_10
REMARK                            x       y       z     vdW  Elec       q    Type
REMARK                         _______ _______ _______ _____ _____    ______ ____
ROOT
ATOM      1  C   UNL     1     -10.321   6.959 129.378  0.00  0.00    +0.000 C 
ENDROOT
BRANCH   1   2
ATOM      2  C   UNL     1     -11.235   6.065 130.196  0.00  0.00    +0.000 C 
ATOM      3  O   UNL     1     -11.612   4.974 129.761  0.00  0.00    +0.000 OA
BRANCH   2   4
ATOM      4  C   UNL     1     -11.698   6.616 131.557  0.00  0.00    +0.000 C 
BRANCH   4   5
ATOM      5  N   UNL     1     -13.056   7.160 131.452  0.00  0.00    +0.000 NA
ATOM      6  H   UNL     1     -13.557   6.657 130.718  0.00  0.00    +0.000 HD
ATOM      7  H   UNL     1     -13.039   8.144 131.196  0.00  0.00    +0.000 HD
ENDBRANCH   4   5
ENDBRANCH   2   4
ENDBRANCH   1   2
BRANCH   1   8
ATOM      8  C   UNL     1     -11.107   7.791 128.356  0.00  0.00    +0.000 C 
BRANCH   8   9
ATOM      9  C   UNL     1     -11.239   7.052 127.046  0.00  0.00    +0.000 C 
ATOM     10  O   UNL     1     -10.291   6.737 126.333  0.00  0.00    +0.000 OA
BRANCH   9  12
ATOM     11  C   UNL     1     -13.479   7.460 127.608  0.00  0.00    +0.000 C 
ATOM     12  O   UNL     1     -12.544   6.784 126.758  0.00  0.00    +0.000 OA
ENDBRANCH   9  12
ENDBRANCH   8   9
ENDBRANCH   1   8
TORSDOF 6
ENDMDL
MODEL 9
REMARK VINA RESULT:      -4.2      2.194      2.705
REMARK  Name = Methyl aminolevulinate
REMARK  7 active torsions:
REMARK  status: ('A' for Active; 'I' for Inactive)
REMARK    1  A    between atoms: C_1  and  O_2
REMARK    2  A    between atoms: O_2  and  C_3
REMARK    3  A    between atoms: C_3  and  C_5
REMARK    4  A    between atoms: C_5  and  C_6
REMARK    5  A    between atoms: C_6  and  C_7
REMARK    6  A    between atoms: C_7  and  C_9
REMARK    7  A    between atoms: C_9  and  N_10
REMARK                            x       y       z     vdW  Elec       q    Type
REMARK                         _______ _______ _______ _____ _____    ______ ____
ROOT
ATOM      1  C   UNL     1     -10.709   7.861 129.432  0.00  0.00    +0.000 C 
ENDROOT
BRANCH   1   2
ATOM      2  C   UNL     1     -11.449   8.328 128.191  0.00  0.00    +0.000 C 
ATOM      3  O   UNL     1     -10.872   8.418 127.104  0.00  0.00    +0.000 OA
BRANCH   2   4
ATOM      4  C   UNL     1     -12.923   8.727 128.380  0.00  0.00    +0.000 C 
BRANCH   4   5
ATOM      5  N   UNL     1     -13.019  10.021 129.064  0.00  0.00    +0.000 NA
ATOM      6  H   UNL     1     -13.553  10.665 128.480  0.00  0.00    +0.000 HD
ATOM      7  H   UNL     1     -12.099  10.428 129.211  0.00  0.00    +0.000 HD
ENDBRANCH   4   5
ENDBRANCH   2   4
ENDBRANCH   1   2
BRANCH   1   8
ATOM      8  C   UNL     1     -11.310   6.567 129.996  0.00  0.00    +0.000 C 
BRANCH   8   9
ATOM      9  C   UNL     1     -11.901   6.799 131.367  0.00  0.00    +0.000 C 
ATOM     10  O   UNL     1     -13.077   7.078 131.572  0.00  0.00    +0.000 OA
BRANCH   9  12
ATOM     11  C   UNL     1     -10.075   5.549 132.145  0.00  0.00    +0.000 C 
ATOM     12  O   UNL     1     -10.958   6.661 132.341  0.00  0.00    +0.000 OA
ENDBRANCH   9  12
ENDBRANCH   8   9
ENDBRANCH   1   8
TORSDOF 6
ENDMDL
