MODEL 1
REMARK VINA RESULT:      -6.3      0.000      0.000
REMARK  Name = Methoxsalen
REMARK  2 active torsions:
REMARK  status: ('A' for Active; 'I' for Inactive)
REMARK    1  A    between atoms: C_1  and  O_2
REMARK    2  A    between atoms: O_2  and  C_3
REMARK                            x       y       z     vdW  Elec       q    Type
REMARK                         _______ _______ _______ _____ _____    ______ ____
ROOT
ATOM      1  C   UNL     1      -6.604  -2.012 125.719  0.00  0.00    +0.000 A 
ATOM      2  C   UNL     1      -7.078  -2.481 126.954  0.00  0.00    +0.000 A 
ATOM      3  O   UNL     1      -6.282  -2.232 128.096  0.00  0.00    +0.000 OA
ATOM      4  C   UNL     1      -6.598  -2.702 129.355  0.00  0.00    +0.000 A 
ATOM      5  O   UNL     1      -5.852  -2.563 130.312  0.00  0.00    +0.000 OA
ATOM      6  C   UNL     1      -7.896  -3.381 129.483  0.00  0.00    +0.000 A 
ATOM      7  C   UNL     1      -8.701  -3.590 128.437  0.00  0.00    +0.000 A 
ATOM      8  C   UNL     1      -8.303  -3.141 127.108  0.00  0.00    +0.000 A 
ATOM      9  C   UNL     1      -9.132  -3.347 125.995  0.00  0.00    +0.000 A 
ATOM     10  C   UNL     1      -8.715  -2.854 124.742  0.00  0.00    +0.000 A 
ATOM     11  C   UNL     1      -7.485  -2.204 124.648  0.00  0.00    +0.000 A 
ATOM     12  O   UNL     1      -7.278  -1.797 123.361  0.00  0.00    +0.000 OA
ATOM     13  C   UNL     1      -8.357  -2.185 122.636  0.00  0.00    +0.000 A 
ATOM     14  C   UNL     1      -9.266  -2.841 123.432  0.00  0.00    +0.000 A 
ENDROOT
BRANCH   1  16
ATOM     15  C   UNL     1      -5.521   0.086 125.809  0.00  0.00    +0.000 C 
ATOM     16  O   UNL     1      -5.441  -1.313 125.536  0.00  0.00    +0.000 OA
ENDBRANCH   1  16
TORSDOF 1
ENDMDL
MODEL 2
REMARK VINA RESULT:      -6.1      0.858      4.613
REMARK  Name = Methoxsalen
REMARK  2 active torsions:
REMARK  status: ('A' for Active; 'I' for Inactive)
REMARK    1  A    between atoms: C_1  and  O_2
REMARK    2  A    between atoms: O_2  and  C_3
REMARK                            x       y       z     vdW  Elec       q    Type
REMARK                         _______ _______ _______ _____ _____    ______ ____
ROOT
ATOM      1  C   UNL     1      -6.522  -1.942 126.698  0.00  0.00    +0.000 A 
ATOM      2  C   UNL     1      -7.411  -2.355 125.694  0.00  0.00    +0.000 A 
ATOM      3  O   UNL     1      -7.081  -2.033 124.357  0.00  0.00    +0.000 OA
ATOM      4  C   UNL     1      -7.903  -2.318 123.286  0.00  0.00    +0.000 A 
ATOM      5  O   UNL     1      -7.650  -1.947 122.149  0.00  0.00    +0.000 OA
ATOM      6  C   UNL     1      -9.109  -3.102 123.588  0.00  0.00    +0.000 A 
ATOM      7  C   UNL     1      -9.430  -3.470 124.832  0.00  0.00    +0.000 A 
ATOM      8  C   UNL     1      -8.574  -3.092 125.950  0.00  0.00    +0.000 A 
ATOM      9  C   UNL     1      -8.888  -3.469 127.265  0.00  0.00    +0.000 A 
ATOM     10  C   UNL     1      -8.001  -3.112 128.299  0.00  0.00    +0.000 A 
ATOM     11  C   UNL     1      -6.858  -2.377 127.986  0.00  0.00    +0.000 A 
ATOM     12  O   UNL     1      -6.133  -2.149 129.120  0.00  0.00    +0.000 OA
ATOM     13  C   UNL     1      -6.803  -2.723 130.151  0.00  0.00    +0.000 A 
ATOM     14  C   UNL     1      -7.957  -3.323 129.704  0.00  0.00    +0.000 A 
ENDROOT
BRANCH   1  16
ATOM     15  C   UNL     1      -5.449   0.154 126.498  0.00  0.00    +0.000 C 
ATOM     16  O   UNL     1      -5.348  -1.271 126.484  0.00  0.00    +0.000 OA
ENDBRANCH   1  16
TORSDOF 1
ENDMDL
MODEL 3
REMARK VINA RESULT:      -6.1      8.994     10.698
REMARK  Name = Methoxsalen
REMARK  2 active torsions:
REMARK  status: ('A' for Active; 'I' for Inactive)
REMARK    1  A    between atoms: C_1  and  O_2
REMARK    2  A    between atoms: O_2  and  C_3
REMARK                            x       y       z     vdW  Elec       q    Type
REMARK                         _______ _______ _______ _____ _____    ______ ____
ROOT
ATOM      1  C   UNL     1      -8.950   5.696 129.410  0.00  0.00    +0.000 A 
ATOM      2  C   UNL     1      -9.960   6.535 128.914  0.00  0.00    +0.000 A 
ATOM      3  O   UNL     1      -9.996   6.759 127.518  0.00  0.00    +0.000 OA
ATOM      4  C   UNL     1     -10.893   7.617 126.914  0.00  0.00    +0.000 A 
ATOM      5  O   UNL     1     -10.848   7.876 125.720  0.00  0.00    +0.000 OA
ATOM      6  C   UNL     1     -11.915   8.206 127.790  0.00  0.00    +0.000 A 
ATOM      7  C   UNL     1     -11.947   7.977 129.107  0.00  0.00    +0.000 A 
ATOM      8  C   UNL     1     -10.941   7.120 129.724  0.00  0.00    +0.000 A 
ATOM      9  C   UNL     1     -10.955   6.863 131.103  0.00  0.00    +0.000 A 
ATOM     10  C   UNL     1      -9.984   5.992 131.637  0.00  0.00    +0.000 A 
ATOM     11  C   UNL     1      -9.031   5.438 130.783  0.00  0.00    +0.000 A 
ATOM     12  O   UNL     1      -8.199   4.620 131.493  0.00  0.00    +0.000 OA
ATOM     13  C   UNL     1      -8.607   4.653 132.787  0.00  0.00    +0.000 A 
ATOM     14  C   UNL     1      -9.694   5.481 132.931  0.00  0.00    +0.000 A 
ENDROOT
BRANCH   1  16
ATOM     15  C   UNL     1      -8.209   3.657 128.473  0.00  0.00    +0.000 C 
ATOM     16  O   UNL     1      -8.009   5.060 128.645  0.00  0.00    +0.000 OA
ENDBRANCH   1  16
TORSDOF 1
ENDMDL
MODEL 4
REMARK VINA RESULT:      -6.1      9.077     10.515
REMARK  Name = Methoxsalen
REMARK  2 active torsions:
REMARK  status: ('A' for Active; 'I' for Inactive)
REMARK    1  A    between atoms: C_1  and  O_2
REMARK    2  A    between atoms: O_2  and  C_3
REMARK                            x       y       z     vdW  Elec       q    Type
REMARK                         _______ _______ _______ _____ _____    ______ ____
ROOT
ATOM      1  C   UNL     1      -9.735   4.618 130.295  0.00  0.00    +0.000 A 
ATOM      2  C   UNL     1     -10.814   5.516 130.299  0.00  0.00    +0.000 A 
ATOM      3  O   UNL     1     -11.550   5.657 129.100  0.00  0.00    +0.000 OA
ATOM      4  C   UNL     1     -12.586   6.557 128.950  0.00  0.00    +0.000 A 
ATOM      5  O   UNL     1     -13.148   6.737 127.880  0.00  0.00    +0.000 OA
ATOM      6  C   UNL     1     -12.982   7.292 130.160  0.00  0.00    +0.000 A 
ATOM      7  C   UNL     1     -12.345   7.148 131.326  0.00  0.00    +0.000 A 
ATOM      8  C   UNL     1     -11.209   6.239 131.431  0.00  0.00    +0.000 A 
ATOM      9  C   UNL     1     -10.526   6.070 132.644  0.00  0.00    +0.000 A 
ATOM     10  C   UNL     1      -9.463   5.146 132.696  0.00  0.00    +0.000 A 
ATOM     11  C   UNL     1      -9.112   4.453 131.538  0.00  0.00    +0.000 A 
ATOM     12  O   UNL     1      -8.076   3.605 131.806  0.00  0.00    +0.000 OA
ATOM     13  C   UNL     1      -7.759   3.755 133.117  0.00  0.00    +0.000 A 
ATOM     14  C   UNL     1      -8.575   4.690 133.708  0.00  0.00    +0.000 A 
ENDROOT
BRANCH   1  16
ATOM     15  C   UNL     1      -8.221   4.334 128.504  0.00  0.00    +0.000 C 
ATOM     16  O   UNL     1      -9.353   3.851 129.228  0.00  0.00    +0.000 OA
ENDBRANCH   1  16
TORSDOF 1
ENDMDL
MODEL 5
REMARK VINA RESULT:      -6.0      5.152      8.526
REMARK  Name = Methoxsalen
REMARK  2 active torsions:
REMARK  status: ('A' for Active; 'I' for Inactive)
REMARK    1  A    between atoms: C_1  and  O_2
REMARK    2  A    between atoms: O_2  and  C_3
REMARK                            x       y       z     vdW  Elec       q    Type
REMARK                         _______ _______ _______ _____ _____    ______ ____
ROOT
ATOM      1  C   UNL     1      -8.104   2.855 123.129  0.00  0.00    +0.000 A 
ATOM      2  C   UNL     1      -7.222   3.455 122.218  0.00  0.00    +0.000 A 
ATOM      3  O   UNL     1      -7.683   3.651 120.895  0.00  0.00    +0.000 OA
ATOM      4  C   UNL     1      -6.892   4.164 119.887  0.00  0.00    +0.000 A 
ATOM      5  O   UNL     1      -7.273   4.235 118.728  0.00  0.00    +0.000 OA
ATOM      6  C   UNL     1      -5.555   4.627 120.287  0.00  0.00    +0.000 A 
ATOM      7  C   UNL     1      -5.102   4.507 121.539  0.00  0.00    +0.000 A 
ATOM      8  C   UNL     1      -5.939   3.897 122.565  0.00  0.00    +0.000 A 
ATOM      9  C   UNL     1      -5.486   3.762 123.885  0.00  0.00    +0.000 A 
ATOM     10  C   UNL     1      -6.355   3.203 124.843  0.00  0.00    +0.000 A 
ATOM     11  C   UNL     1      -7.622   2.781 124.441  0.00  0.00    +0.000 A 
ATOM     12  O   UNL     1      -8.304   2.286 125.516  0.00  0.00    +0.000 OA
ATOM     13  C   UNL     1      -7.484   2.382 126.594  0.00  0.00    +0.000 A 
ATOM     14  C   UNL     1      -6.277   2.933 126.237  0.00  0.00    +0.000 A 
ENDROOT
BRANCH   1  16
ATOM     15  C   UNL     1      -9.589   1.050 122.781  0.00  0.00    +0.000 C 
ATOM     16  O   UNL     1      -9.384   2.462 122.844  0.00  0.00    +0.000 OA
ENDBRANCH   1  16
TORSDOF 1
ENDMDL
MODEL 6
REMARK VINA RESULT:      -6.0      5.271      6.932
REMARK  Name = Methoxsalen
REMARK  2 active torsions:
REMARK  status: ('A' for Active; 'I' for Inactive)
REMARK    1  A    between atoms: C_1  and  O_2
REMARK    2  A    between atoms: O_2  and  C_3
REMARK                            x       y       z     vdW  Elec       q    Type
REMARK                         _______ _______ _______ _____ _____    ______ ____
ROOT
ATOM      1  C   UNL     1      -6.189   3.561 123.710  0.00  0.00    +0.000 A 
ATOM      2  C   UNL     1      -7.421   2.903 123.853  0.00  0.00    +0.000 A 
ATOM      3  O   UNL     1      -7.800   2.501 125.155  0.00  0.00    +0.000 OA
ATOM      4  C   UNL     1      -8.949   1.784 125.420  0.00  0.00    +0.000 A 
ATOM      5  O   UNL     1      -9.214   1.359 126.535  0.00  0.00    +0.000 OA
ATOM      6  C   UNL     1      -9.849   1.561 124.279  0.00  0.00    +0.000 A 
ATOM      7  C   UNL     1      -9.551   1.970 123.042  0.00  0.00    +0.000 A 
ATOM      8  C   UNL     1      -8.294   2.664 122.784  0.00  0.00    +0.000 A 
ATOM      9  C   UNL     1      -7.960   3.106 121.495  0.00  0.00    +0.000 A 
ATOM     10  C   UNL     1      -6.752   3.809 121.315  0.00  0.00    +0.000 A 
ATOM     11  C   UNL     1      -5.921   4.018 122.415  0.00  0.00    +0.000 A 
ATOM     12  O   UNL     1      -4.818   4.724 122.029  0.00  0.00    +0.000 OA
ATOM     13  C   UNL     1      -4.934   4.960 120.698  0.00  0.00    +0.000 A 
ATOM     14  C   UNL     1      -6.098   4.417 120.209  0.00  0.00    +0.000 A 
ENDROOT
BRANCH   1  16
ATOM     15  C   UNL     1      -5.710   4.989 125.530  0.00  0.00    +0.000 C 
ATOM     16  O   UNL     1      -5.335   3.863 124.737  0.00  0.00    +0.000 OA
ENDBRANCH   1  16
TORSDOF 1
ENDMDL
MODEL 7
REMARK VINA RESULT:      -6.0      9.730     11.016
REMARK  Name = Methoxsalen
REMARK  2 active torsions:
REMARK  status: ('A' for Active; 'I' for Inactive)
REMARK    1  A    between atoms: C_1  and  O_2
REMARK    2  A    between atoms: O_2  and  C_3
REMARK                            x       y       z     vdW  Elec       q    Type
REMARK                         _______ _______ _______ _____ _____    ______ ____
ROOT
ATOM      1  C   UNL     1      -8.051   6.065 131.056  0.00  0.00    +0.000 A 
ATOM      2  C   UNL     1      -9.279   6.614 130.656  0.00  0.00    +0.000 A 
ATOM      3  O   UNL     1      -9.297   7.371 129.461  0.00  0.00    +0.000 OA
ATOM      4  C   UNL     1     -10.421   8.023 128.997  0.00  0.00    +0.000 A 
ATOM      5  O   UNL     1     -10.397   8.753 128.017  0.00  0.00    +0.000 OA
ATOM      6  C   UNL     1     -11.662   7.787 129.749  0.00  0.00    +0.000 A 
ATOM      7  C   UNL     1     -11.696   7.035 130.855  0.00  0.00    +0.000 A 
ATOM      8  C   UNL     1     -10.475   6.418 131.357  0.00  0.00    +0.000 A 
ATOM      9  C   UNL     1     -10.486   5.623 132.513  0.00  0.00    +0.000 A 
ATOM     10  C   UNL     1      -9.283   5.017 132.927  0.00  0.00    +0.000 A 
ATOM     11  C   UNL     1      -8.122   5.247 132.191  0.00  0.00    +0.000 A 
ATOM     12  O   UNL     1      -7.081   4.563 132.749  0.00  0.00    +0.000 OA
ATOM     13  C   UNL     1      -7.564   3.906 133.834  0.00  0.00    +0.000 A 
ATOM     14  C   UNL     1      -8.907   4.153 133.992  0.00  0.00    +0.000 A 
ENDROOT
BRANCH   1  16
ATOM     15  C   UNL     1      -5.969   7.167 130.878  0.00  0.00    +0.000 C 
ATOM     16  O   UNL     1      -6.872   6.186 130.369  0.00  0.00    +0.000 OA
ENDBRANCH   1  16
TORSDOF 1
ENDMDL
MODEL 8
REMARK VINA RESULT:      -5.9      3.258      5.118
REMARK  Name = Methoxsalen
REMARK  2 active torsions:
REMARK  status: ('A' for Active; 'I' for Inactive)
REMARK    1  A    between atoms: C_1  and  O_2
REMARK    2  A    between atoms: O_2  and  C_3
REMARK                            x       y       z     vdW  Elec       q    Type
REMARK                         _______ _______ _______ _____ _____    ______ ____
ROOT
ATOM      1  C   UNL     1      -9.275   0.600 125.946  0.00  0.00    +0.000 A 
ATOM      2  C   UNL     1      -8.993  -0.760 125.746  0.00  0.00    +0.000 A 
ATOM      3  O   UNL     1      -9.491  -1.363 124.567  0.00  0.00    +0.000 OA
ATOM      4  C   UNL     1      -9.346  -2.707 124.287  0.00  0.00    +0.000 A 
ATOM      5  O   UNL     1      -9.866  -3.233 123.314  0.00  0.00    +0.000 OA
ATOM      6  C   UNL     1      -8.521  -3.478 125.228  0.00  0.00    +0.000 A 
ATOM      7  C   UNL     1      -7.989  -2.932 126.327  0.00  0.00    +0.000 A 
ATOM      8  C   UNL     1      -8.221  -1.525 126.629  0.00  0.00    +0.000 A 
ATOM      9  C   UNL     1      -7.672  -0.929 127.774  0.00  0.00    +0.000 A 
ATOM     10  C   UNL     1      -7.894   0.446 127.992  0.00  0.00    +0.000 A 
ATOM     11  C   UNL     1      -8.671   1.157 127.080  0.00  0.00    +0.000 A 
ATOM     12  O   UNL     1      -8.752   2.465 127.466  0.00  0.00    +0.000 OA
ATOM     13  C   UNL     1      -8.042   2.591 128.616  0.00  0.00    +0.000 A 
ATOM     14  C   UNL     1      -7.499   1.383 128.985  0.00  0.00    +0.000 A 
ENDROOT
BRANCH   1  16
ATOM     15  C   UNL     1      -9.187   2.083 124.109  0.00  0.00    +0.000 C 
ATOM     16  O   UNL     1      -9.976   1.395 125.080  0.00  0.00    +0.000 OA
ENDBRANCH   1  16
TORSDOF 1
ENDMDL
MODEL 9
REMARK VINA RESULT:      -5.6      2.701      5.433
REMARK  Name = Methoxsalen
REMARK  2 active torsions:
REMARK  status: ('A' for Active; 'I' for Inactive)
REMARK    1  A    between atoms: C_1  and  O_2
REMARK    2  A    between atoms: O_2  and  C_3
REMARK                            x       y       z     vdW  Elec       q    Type
REMARK                         _______ _______ _______ _____ _____    ______ ____
ROOT
ATOM      1  C   UNL     1      -9.108  -1.925 125.751  0.00  0.00    +0.000 A 
ATOM      2  C   UNL     1      -9.016  -0.553 125.467  0.00  0.00    +0.000 A 
ATOM      3  O   UNL     1      -9.627  -0.091 124.278  0.00  0.00    +0.000 OA
ATOM      4  C   UNL     1      -9.548   1.218 123.847  0.00  0.00    +0.000 A 
ATOM      5  O   UNL     1      -9.997   1.581 122.770  0.00  0.00    +0.000 OA
ATOM      6  C   UNL     1      -8.892   2.161 124.764  0.00  0.00    +0.000 A 
ATOM      7  C   UNL     1      -8.347   1.772 125.921  0.00  0.00    +0.000 A 
ATOM      8  C   UNL     1      -8.388   0.368 126.313  0.00  0.00    +0.000 A 
ATOM      9  C   UNL     1      -7.826  -0.063 127.524  0.00  0.00    +0.000 A 
ATOM     10  C   UNL     1      -7.933  -1.425 127.870  0.00  0.00    +0.000 A 
ATOM     11  C   UNL     1      -8.569  -2.298 126.988  0.00  0.00    +0.000 A 
ATOM     12  O   UNL     1      -8.576  -3.558 127.515  0.00  0.00    +0.000 OA
ATOM     13  C   UNL     1      -7.947  -3.498 128.716  0.00  0.00    +0.000 A 
ATOM     14  C   UNL     1      -7.529  -2.216 128.980  0.00  0.00    +0.000 A 
ENDROOT
BRANCH   1  16
ATOM     15  C   UNL     1      -8.990  -3.409 123.917  0.00  0.00    +0.000 C 
ATOM     16  O   UNL     1      -9.761  -2.847 124.979  0.00  0.00    +0.000 OA
ENDBRANCH   1  16
TORSDOF 1
ENDMDL
