MODEL 1
REMARK VINA RESULT:      -7.1      0.000      0.000
REMARK  Name = Methylphenobarbital
REMARK  4 active torsions:
REMARK  status: ('A' for Active; 'I' for Inactive)
REMARK    1  A    between atoms: C_1  and  C_2
REMARK    2  A    between atoms: C_2  and  C_3
REMARK    3  A    between atoms: C_3  and  C_13
REMARK    4  A    between atoms: N_9  and  C_10
REMARK                            x       y       z     vdW  Elec       q    Type
REMARK                         _______ _______ _______ _____ _____    ______ ____
ROOT
ATOM      1  C   UNL     1      -7.338   2.013 124.350  0.00  0.00    +0.000 C 
ATOM      2  C   UNL     1      -8.711   2.681 124.468  0.00  0.00    +0.000 C 
ATOM      3  O   UNL     1      -8.961   3.698 125.114  0.00  0.00    +0.000 OA
ATOM      4  N   UNL     1      -9.681   2.194 123.653  0.00  0.00    +0.000 N 
ATOM      5  C   UNL     1      -9.755   0.930 123.163  0.00  0.00    +0.000 C 
ATOM      6  O   UNL     1     -10.787   0.569 122.615  0.00  0.00    +0.000 OA
ATOM      7  N   UNL     1      -8.662   0.118 123.377  0.00  0.00    +0.000 N 
ATOM      8  C   UNL     1      -8.751  -1.273 122.966  0.00  0.00    +0.000 C 
ATOM      9  C   UNL     1      -7.479   0.522 123.981  0.00  0.00    +0.000 C 
ATOM     10  O   UNL     1      -6.548  -0.275 124.147  0.00  0.00    +0.000 OA
ATOM     11  H   UNL     1     -10.537   2.727 123.623  0.00  0.00    +0.000 HD
ENDROOT
BRANCH   1  12
ATOM     12  C   UNL     1      -6.569   2.800 123.262  0.00  0.00    +0.000 A 
ATOM     13  C   UNL     1      -6.597   2.451 121.905  0.00  0.00    +0.000 A 
ATOM     14  C   UNL     1      -5.802   3.136 120.984  0.00  0.00    +0.000 A 
ATOM     15  C   UNL     1      -5.031   4.224 121.384  0.00  0.00    +0.000 A 
ATOM     16  C   UNL     1      -5.034   4.624 122.711  0.00  0.00    +0.000 A 
ATOM     17  C   UNL     1      -5.804   3.925 123.633  0.00  0.00    +0.000 A 
ENDBRANCH   1  12
BRANCH   1  19
ATOM     18  C   UNL     1      -7.178   1.522 126.944  0.00  0.00    +0.000 C 
ATOM     19  C   UNL     1      -6.499   2.022 125.676  0.00  0.00    +0.000 C 
ENDBRANCH   1  19
TORSDOF 2
ENDMDL
MODEL 2
REMARK VINA RESULT:      -7.0      6.663      8.527
REMARK  Name = Methylphenobarbital
REMARK  4 active torsions:
REMARK  status: ('A' for Active; 'I' for Inactive)
REMARK    1  A    between atoms: C_1  and  C_2
REMARK    2  A    between atoms: C_2  and  C_3
REMARK    3  A    between atoms: C_3  and  C_13
REMARK    4  A    between atoms: N_9  and  C_10
REMARK                            x       y       z     vdW  Elec       q    Type
REMARK                         _______ _______ _______ _____ _____    ______ ____
ROOT
ATOM      1  C   UNL     1      -9.460   6.165 130.411  0.00  0.00    +0.000 C 
ATOM      2  C   UNL     1      -9.974   5.724 131.784  0.00  0.00    +0.000 C 
ATOM      3  O   UNL     1     -10.135   6.457 132.760  0.00  0.00    +0.000 OA
ATOM      4  N   UNL     1     -10.445   4.453 131.863  0.00  0.00    +0.000 N 
ATOM      5  C   UNL     1     -10.057   3.407 131.089  0.00  0.00    +0.000 C 
ATOM      6  O   UNL     1     -10.408   2.278 131.405  0.00  0.00    +0.000 OA
ATOM      7  N   UNL     1      -9.237   3.698 130.021  0.00  0.00    +0.000 N 
ATOM      8  C   UNL     1      -8.713   2.591 129.239  0.00  0.00    +0.000 C 
ATOM      9  C   UNL     1      -8.849   4.976 129.643  0.00  0.00    +0.000 C 
ATOM     10  O   UNL     1      -8.098   5.149 128.675  0.00  0.00    +0.000 OA
ATOM     11  H   UNL     1     -10.918   4.213 132.722  0.00  0.00    +0.000 HD
ENDROOT
BRANCH   1  12
ATOM     12  C   UNL     1     -10.679   6.761 129.666  0.00  0.00    +0.000 A 
ATOM     13  C   UNL     1     -11.946   6.163 129.678  0.00  0.00    +0.000 A 
ATOM     14  C   UNL     1     -12.982   6.690 128.905  0.00  0.00    +0.000 A 
ATOM     15  C   UNL     1     -12.796   7.860 128.174  0.00  0.00    +0.000 A 
ATOM     16  C   UNL     1     -11.567   8.501 128.195  0.00  0.00    +0.000 A 
ATOM     17  C   UNL     1     -10.528   7.962 128.943  0.00  0.00    +0.000 A 
ENDBRANCH   1  12
BRANCH   1  19
ATOM     18  C   UNL     1      -7.052   6.887 131.232  0.00  0.00    +0.000 C 
ATOM     19  C   UNL     1      -8.317   7.240 130.463  0.00  0.00    +0.000 C 
ENDBRANCH   1  19
TORSDOF 2
ENDMDL
MODEL 3
REMARK VINA RESULT:      -6.5      3.122      6.120
REMARK  Name = Methylphenobarbital
REMARK  4 active torsions:
REMARK  status: ('A' for Active; 'I' for Inactive)
REMARK    1  A    between atoms: C_1  and  C_2
REMARK    2  A    between atoms: C_2  and  C_3
REMARK    3  A    between atoms: C_3  and  C_13
REMARK    4  A    between atoms: N_9  and  C_10
REMARK                            x       y       z     vdW  Elec       q    Type
REMARK                         _______ _______ _______ _____ _____    ______ ____
ROOT
ATOM      1  C   UNL     1      -7.492  -1.420 125.294  0.00  0.00    +0.000 C 
ATOM      2  C   UNL     1      -8.812  -1.014 124.631  0.00  0.00    +0.000 C 
ATOM      3  O   UNL     1      -9.553  -1.759 123.992  0.00  0.00    +0.000 OA
ATOM      4  N   UNL     1      -9.266   0.231 124.926  0.00  0.00    +0.000 N 
ATOM      5  C   UNL     1      -8.504   1.300 125.273  0.00  0.00    +0.000 C 
ATOM      6  O   UNL     1      -9.022   2.408 125.307  0.00  0.00    +0.000 OA
ATOM      7  N   UNL     1      -7.168   1.057 125.508  0.00  0.00    +0.000 N 
ATOM      8  C   UNL     1      -6.301   2.193 125.771  0.00  0.00    +0.000 C 
ATOM      9  C   UNL     1      -6.574  -0.197 125.491  0.00  0.00    +0.000 C 
ATOM     10  O   UNL     1      -5.362  -0.327 125.701  0.00  0.00    +0.000 OA
ATOM     11  H   UNL     1     -10.201   0.442 124.612  0.00  0.00    +0.000 HD
ENDROOT
BRANCH   1  12
ATOM     12  C   UNL     1      -7.872  -2.074 126.643  0.00  0.00    +0.000 A 
ATOM     13  C   UNL     1      -7.557  -1.501 127.883  0.00  0.00    +0.000 A 
ATOM     14  C   UNL     1      -7.834  -2.186 129.068  0.00  0.00    +0.000 A 
ATOM     15  C   UNL     1      -8.496  -3.411 129.040  0.00  0.00    +0.000 A 
ATOM     16  C   UNL     1      -8.870  -3.968 127.827  0.00  0.00    +0.000 A 
ATOM     17  C   UNL     1      -8.570  -3.299 126.647  0.00  0.00    +0.000 A 
ENDBRANCH   1  12
BRANCH   1  19
ATOM     18  C   UNL     1      -6.311  -2.065 123.017  0.00  0.00    +0.000 C 
ATOM     19  C   UNL     1      -6.636  -2.436 124.457  0.00  0.00    +0.000 C 
ENDBRANCH   1  19
TORSDOF 2
ENDMDL
MODEL 4
REMARK VINA RESULT:      -6.2      7.390      9.617
REMARK  Name = Methylphenobarbital
REMARK  4 active torsions:
REMARK  status: ('A' for Active; 'I' for Inactive)
REMARK    1  A    between atoms: C_1  and  C_2
REMARK    2  A    between atoms: C_2  and  C_3
REMARK    3  A    between atoms: C_3  and  C_13
REMARK    4  A    between atoms: N_9  and  C_10
REMARK                            x       y       z     vdW  Elec       q    Type
REMARK                         _______ _______ _______ _____ _____    ______ ____
ROOT
ATOM      1  C   UNL     1      -9.199   5.610 130.504  0.00  0.00    +0.000 C 
ATOM      2  C   UNL     1      -8.081   6.411 131.179  0.00  0.00    +0.000 C 
ATOM      3  O   UNL     1      -7.381   7.264 130.636  0.00  0.00    +0.000 OA
ATOM      4  N   UNL     1      -7.983   6.274 132.526  0.00  0.00    +0.000 N 
ATOM      5  C   UNL     1      -8.360   5.189 133.250  0.00  0.00    +0.000 C 
ATOM      6  O   UNL     1      -8.023   5.117 134.424  0.00  0.00    +0.000 OA
ATOM      7  N   UNL     1      -9.058   4.209 132.578  0.00  0.00    +0.000 N 
ATOM      8  C   UNL     1      -9.379   2.985 133.293  0.00  0.00    +0.000 C 
ATOM      9  C   UNL     1      -9.461   4.288 131.253  0.00  0.00    +0.000 C 
ATOM     10  O   UNL     1     -10.074   3.355 130.720  0.00  0.00    +0.000 OA
ATOM     11  H   UNL     1      -7.349   6.910 132.986  0.00  0.00    +0.000 HD
ENDROOT
BRANCH   1  12
ATOM     12  C   UNL     1     -10.446   6.527 130.508  0.00  0.00    +0.000 A 
ATOM     13  C   UNL     1     -11.437   6.461 131.496  0.00  0.00    +0.000 A 
ATOM     14  C   UNL     1     -12.591   7.240 131.392  0.00  0.00    +0.000 A 
ATOM     15  C   UNL     1     -12.738   8.151 130.350  0.00  0.00    +0.000 A 
ATOM     16  C   UNL     1     -11.743   8.276 129.393  0.00  0.00    +0.000 A 
ATOM     17  C   UNL     1     -10.607   7.480 129.482  0.00  0.00    +0.000 A 
ENDBRANCH   1  12
BRANCH   1  19
ATOM     18  C   UNL     1      -7.627   4.358 128.784  0.00  0.00    +0.000 C 
ATOM     19  C   UNL     1      -8.885   5.182 129.027  0.00  0.00    +0.000 C 
ENDBRANCH   1  19
TORSDOF 2
ENDMDL
MODEL 5
REMARK VINA RESULT:      -6.2      4.267      5.781
REMARK  Name = Methylphenobarbital
REMARK  4 active torsions:
REMARK  status: ('A' for Active; 'I' for Inactive)
REMARK    1  A    between atoms: C_1  and  C_2
REMARK    2  A    between atoms: C_2  and  C_3
REMARK    3  A    between atoms: C_3  and  C_13
REMARK    4  A    between atoms: N_9  and  C_10
REMARK                            x       y       z     vdW  Elec       q    Type
REMARK                         _______ _______ _______ _____ _____    ______ ____
ROOT
ATOM      1  C   UNL     1      -7.934  -1.278 125.826  0.00  0.00    +0.000 C 
ATOM      2  C   UNL     1      -8.988  -2.348 126.124  0.00  0.00    +0.000 C 
ATOM      3  O   UNL     1      -9.947  -2.631 125.406  0.00  0.00    +0.000 OA
ATOM      4  N   UNL     1      -8.732  -3.155 127.186  0.00  0.00    +0.000 N 
ATOM      5  C   UNL     1      -7.994  -2.830 128.277  0.00  0.00    +0.000 C 
ATOM      6  O   UNL     1      -8.019  -3.573 129.249  0.00  0.00    +0.000 OA
ATOM      7  N   UNL     1      -7.305  -1.637 128.226  0.00  0.00    +0.000 N 
ATOM      8  C   UNL     1      -6.595  -1.205 129.418  0.00  0.00    +0.000 C 
ATOM      9  C   UNL     1      -7.255  -0.796 127.123  0.00  0.00    +0.000 C 
ATOM     10  O   UNL     1      -6.622   0.266 127.165  0.00  0.00    +0.000 OA
ATOM     11  H   UNL     1      -9.346  -3.948 127.291  0.00  0.00    +0.000 HD
ENDROOT
BRANCH   1  12
ATOM     12  C   UNL     1      -6.920  -1.931 124.857  0.00  0.00    +0.000 A 
ATOM     13  C   UNL     1      -5.894  -2.783 125.288  0.00  0.00    +0.000 A 
ATOM     14  C   UNL     1      -4.946  -3.261 124.382  0.00  0.00    +0.000 A 
ATOM     15  C   UNL     1      -5.049  -2.963 123.026  0.00  0.00    +0.000 A 
ATOM     16  C   UNL     1      -6.090  -2.171 122.568  0.00  0.00    +0.000 A 
ATOM     17  C   UNL     1      -7.018  -1.673 123.474  0.00  0.00    +0.000 A 
ENDBRANCH   1  12
BRANCH   1  19
ATOM     18  C   UNL     1      -9.731   0.662 125.805  0.00  0.00    +0.000 C 
ATOM     19  C   UNL     1      -8.507   0.025 125.164  0.00  0.00    +0.000 C 
ENDBRANCH   1  19
TORSDOF 2
ENDMDL
MODEL 6
REMARK VINA RESULT:      -6.2      3.340      6.082
REMARK  Name = Methylphenobarbital
REMARK  4 active torsions:
REMARK  status: ('A' for Active; 'I' for Inactive)
REMARK    1  A    between atoms: C_1  and  C_2
REMARK    2  A    between atoms: C_2  and  C_3
REMARK    3  A    between atoms: C_3  and  C_13
REMARK    4  A    between atoms: N_9  and  C_10
REMARK                            x       y       z     vdW  Elec       q    Type
REMARK                         _______ _______ _______ _____ _____    ______ ____
ROOT
ATOM      1  C   UNL     1      -7.622  -0.650 126.059  0.00  0.00    +0.000 C 
ATOM      2  C   UNL     1      -6.102  -0.627 125.874  0.00  0.00    +0.000 C 
ATOM      3  O   UNL     1      -5.301  -0.027 126.590  0.00  0.00    +0.000 OA
ATOM      4  N   UNL     1      -5.604  -1.479 124.942  0.00  0.00    +0.000 N 
ATOM      5  C   UNL     1      -6.258  -1.933 123.842  0.00  0.00    +0.000 C 
ATOM      6  O   UNL     1      -5.623  -2.526 122.981  0.00  0.00    +0.000 OA
ATOM      7  N   UNL     1      -7.601  -1.636 123.754  0.00  0.00    +0.000 N 
ATOM      8  C   UNL     1      -8.306  -2.009 122.539  0.00  0.00    +0.000 C 
ATOM      9  C   UNL     1      -8.335  -0.980 124.732  0.00  0.00    +0.000 C 
ATOM     10  O   UNL     1      -9.537  -0.740 124.568  0.00  0.00    +0.000 OA
ATOM     11  H   UNL     1      -4.599  -1.571 124.925  0.00  0.00    +0.000 HD
ENDROOT
BRANCH   1  12
ATOM     12  C   UNL     1      -7.907  -1.717 127.143  0.00  0.00    +0.000 A 
ATOM     13  C   UNL     1      -8.452  -2.975 126.849  0.00  0.00    +0.000 A 
ATOM     14  C   UNL     1      -8.783  -3.857 127.879  0.00  0.00    +0.000 A 
ATOM     15  C   UNL     1      -8.506  -3.535 129.205  0.00  0.00    +0.000 A 
ATOM     16  C   UNL     1      -7.914  -2.321 129.513  0.00  0.00    +0.000 A 
ATOM     17  C   UNL     1      -7.609  -1.431 128.491  0.00  0.00    +0.000 A 
ENDBRANCH   1  12
BRANCH   1  19
ATOM     18  C   UNL     1      -7.872   1.960 125.713  0.00  0.00    +0.000 C 
ATOM     19  C   UNL     1      -8.238   0.720 126.516  0.00  0.00    +0.000 C 
ENDBRANCH   1  19
TORSDOF 2
ENDMDL
MODEL 7
REMARK VINA RESULT:      -6.0      3.176      4.583
REMARK  Name = Methylphenobarbital
REMARK  4 active torsions:
REMARK  status: ('A' for Active; 'I' for Inactive)
REMARK    1  A    between atoms: C_1  and  C_2
REMARK    2  A    between atoms: C_2  and  C_3
REMARK    3  A    between atoms: C_3  and  C_13
REMARK    4  A    between atoms: N_9  and  C_10
REMARK                            x       y       z     vdW  Elec       q    Type
REMARK                         _______ _______ _______ _____ _____    ______ ____
ROOT
ATOM      1  C   UNL     1      -6.273  -1.826 124.758  0.00  0.00    +0.000 C 
ATOM      2  C   UNL     1      -6.637  -2.393 126.134  0.00  0.00    +0.000 C 
ATOM      3  O   UNL     1      -5.847  -2.613 127.051  0.00  0.00    +0.000 OA
ATOM      4  N   UNL     1      -7.964  -2.494 126.402  0.00  0.00    +0.000 N 
ATOM      5  C   UNL     1      -8.955  -2.661 125.490  0.00  0.00    +0.000 C 
ATOM      6  O   UNL     1     -10.077  -2.946 125.883  0.00  0.00    +0.000 OA
ATOM      7  N   UNL     1      -8.599  -2.549 124.163  0.00  0.00    +0.000 N 
ATOM      8  C   UNL     1      -9.609  -2.832 123.157  0.00  0.00    +0.000 C 
ATOM      9  C   UNL     1      -7.334  -2.208 123.706  0.00  0.00    +0.000 C 
ATOM     10  O   UNL     1      -7.094  -2.142 122.494  0.00  0.00    +0.000 OA
ATOM     11  H   UNL     1      -8.202  -2.725 127.356  0.00  0.00    +0.000 HD
ENDROOT
BRANCH   1  12
ATOM     12  C   UNL     1      -6.171  -0.293 124.938  0.00  0.00    +0.000 A 
ATOM     13  C   UNL     1      -5.303   0.310 125.858  0.00  0.00    +0.000 A 
ATOM     14  C   UNL     1      -5.328   1.693 126.050  0.00  0.00    +0.000 A 
ATOM     15  C   UNL     1      -6.157   2.501 125.276  0.00  0.00    +0.000 A 
ATOM     16  C   UNL     1      -6.981   1.931 124.318  0.00  0.00    +0.000 A 
ATOM     17  C   UNL     1      -6.975   0.552 124.147  0.00  0.00    +0.000 A 
ENDBRANCH   1  12
BRANCH   1  19
ATOM     18  C   UNL     1      -4.777  -3.868 123.993  0.00  0.00    +0.000 C 
ATOM     19  C   UNL     1      -4.918  -2.364 124.177  0.00  0.00    +0.000 C 
ENDBRANCH   1  19
TORSDOF 2
ENDMDL
MODEL 8
REMARK VINA RESULT:      -5.9      2.407      4.625
REMARK  Name = Methylphenobarbital
REMARK  4 active torsions:
REMARK  status: ('A' for Active; 'I' for Inactive)
REMARK    1  A    between atoms: C_1  and  C_2
REMARK    2  A    between atoms: C_2  and  C_3
REMARK    3  A    between atoms: C_3  and  C_13
REMARK    4  A    between atoms: N_9  and  C_10
REMARK                            x       y       z     vdW  Elec       q    Type
REMARK                         _______ _______ _______ _____ _____    ______ ____
ROOT
ATOM      1  C   UNL     1      -7.559   1.195 124.281  0.00  0.00    +0.000 C 
ATOM      2  C   UNL     1      -8.997   0.911 124.728  0.00  0.00    +0.000 C 
ATOM      3  O   UNL     1      -9.907   0.510 124.003  0.00  0.00    +0.000 OA
ATOM      4  N   UNL     1      -9.222   0.949 126.066  0.00  0.00    +0.000 N 
ATOM      5  C   UNL     1      -8.527   1.681 126.974  0.00  0.00    +0.000 C 
ATOM      6  O   UNL     1      -8.968   1.783 128.111  0.00  0.00    +0.000 OA
ATOM      7  N   UNL     1      -7.389   2.311 126.520  0.00  0.00    +0.000 N 
ATOM      8  C   UNL     1      -6.684   3.193 127.435  0.00  0.00    +0.000 C 
ATOM      9  C   UNL     1      -6.870   2.188 125.239  0.00  0.00    +0.000 C 
ATOM     10  O   UNL     1      -5.848   2.800 124.907  0.00  0.00    +0.000 OA
ATOM     11  H   UNL     1     -10.126   0.618 126.367  0.00  0.00    +0.000 HD
ENDROOT
BRANCH   1  12
ATOM     12  C   UNL     1      -6.838  -0.174 124.259  0.00  0.00    +0.000 A 
ATOM     13  C   UNL     1      -6.181  -0.706 125.377  0.00  0.00    +0.000 A 
ATOM     14  C   UNL     1      -5.459  -1.897 125.271  0.00  0.00    +0.000 A 
ATOM     15  C   UNL     1      -5.446  -2.612 124.076  0.00  0.00    +0.000 A 
ATOM     16  C   UNL     1      -6.138  -2.134 122.975  0.00  0.00    +0.000 A 
ATOM     17  C   UNL     1      -6.833  -0.935 123.073  0.00  0.00    +0.000 A 
ENDBRANCH   1  12
BRANCH   1  19
ATOM     18  C   UNL     1      -8.379   3.014 122.545  0.00  0.00    +0.000 C 
ATOM     19  C   UNL     1      -7.443   1.857 122.862  0.00  0.00    +0.000 C 
ENDBRANCH   1  19
TORSDOF 2
ENDMDL
MODEL 9
REMARK VINA RESULT:      -5.8      1.239      1.794
REMARK  Name = Methylphenobarbital
REMARK  4 active torsions:
REMARK  status: ('A' for Active; 'I' for Inactive)
REMARK    1  A    between atoms: C_1  and  C_2
REMARK    2  A    between atoms: C_2  and  C_3
REMARK    3  A    between atoms: C_3  and  C_13
REMARK    4  A    between atoms: N_9  and  C_10
REMARK                            x       y       z     vdW  Elec       q    Type
REMARK                         _______ _______ _______ _____ _____    ______ ____
ROOT
ATOM      1  C   UNL     1      -7.259   0.868 124.977  0.00  0.00    +0.000 C 
ATOM      2  C   UNL     1      -8.744   1.212 125.118  0.00  0.00    +0.000 C 
ATOM      3  O   UNL     1      -9.235   1.932 125.988  0.00  0.00    +0.000 OA
ATOM      4  N   UNL     1      -9.545   0.821 124.094  0.00  0.00    +0.000 N 
ATOM      5  C   UNL     1      -9.330  -0.234 123.268  0.00  0.00    +0.000 C 
ATOM      6  O   UNL     1     -10.233  -0.597 122.527  0.00  0.00    +0.000 OA
ATOM      7  N   UNL     1      -8.107  -0.862 123.372  0.00  0.00    +0.000 N 
ATOM      8  C   UNL     1      -7.884  -2.062 122.584  0.00  0.00    +0.000 C 
ATOM      9  C   UNL     1      -7.070  -0.448 124.196  0.00  0.00    +0.000 C 
ATOM     10  O   UNL     1      -6.006  -1.077 124.239  0.00  0.00    +0.000 OA
ATOM     11  H   UNL     1     -10.490   1.176 124.116  0.00  0.00    +0.000 HD
ENDROOT
BRANCH   1  12
ATOM     12  C   UNL     1      -6.607   2.066 124.247  0.00  0.00    +0.000 A 
ATOM     13  C   UNL     1      -5.867   3.053 124.912  0.00  0.00    +0.000 A 
ATOM     14  C   UNL     1      -5.389   4.165 124.217  0.00  0.00    +0.000 A 
ATOM     15  C   UNL     1      -5.573   4.273 122.841  0.00  0.00    +0.000 A 
ATOM     16  C   UNL     1      -6.251   3.279 122.153  0.00  0.00    +0.000 A 
ATOM     17  C   UNL     1      -6.749   2.185 122.849  0.00  0.00    +0.000 A 
ENDBRANCH   1  12
BRANCH   1  19
ATOM     18  C   UNL     1      -7.177  -0.289 127.354  0.00  0.00    +0.000 C 
ATOM     19  C   UNL     1      -6.517   0.636 126.341  0.00  0.00    +0.000 C 
ENDBRANCH   1  19
TORSDOF 2
ENDMDL
