MODEL 1
REMARK VINA RESULT:      -5.6      0.000      0.000
REMARK  Name = Methylparaben
REMARK  4 active torsions:
REMARK  status: ('A' for Active; 'I' for Inactive)
REMARK    1  A    between atoms: C_1  and  O_2
REMARK    2  A    between atoms: O_2  and  C_3
REMARK    3  A    between atoms: C_3  and  C_5
REMARK    4  A    between atoms: C_8  and  O_9
REMARK                            x       y       z     vdW  Elec       q    Type
REMARK                         _______ _______ _______ _____ _____    ______ ____
ROOT
ATOM      1  C   UNL     1     -12.034   7.239 129.473  0.00  0.00    +0.000 A 
ATOM      2  C   UNL     1     -10.891   8.006 129.204  0.00  0.00    +0.000 A 
ATOM      3  C   UNL     1     -10.530   8.298 127.877  0.00  0.00    +0.000 A 
ATOM      4  C   UNL     1     -11.318   7.830 126.827  0.00  0.00    +0.000 A 
ATOM      5  C   UNL     1     -12.458   7.078 127.084  0.00  0.00    +0.000 A 
ATOM      6  C   UNL     1     -12.812   6.774 128.402  0.00  0.00    +0.000 A 
ENDROOT
BRANCH   1   7
ATOM      7  C   UNL     1     -12.409   6.825 130.851  0.00  0.00    +0.000 C 
ATOM      8  O   UNL     1     -13.282   7.393 131.495  0.00  0.00    +0.000 OA
BRANCH   7  10
ATOM      9  C   UNL     1     -10.704   6.176 132.325  0.00  0.00    +0.000 C 
ATOM     10  O   UNL     1     -11.637   5.801 131.298  0.00  0.00    +0.000 OA
ENDBRANCH   7  10
ENDBRANCH   1   7
BRANCH   4  11
ATOM     11  O   UNL     1     -11.014   8.071 125.520  0.00  0.00    +0.000 OA
ATOM     12  H   UNL     1     -10.065   7.937 125.370  0.00  0.00    +0.000 HD
ENDBRANCH   4  11
TORSDOF 3
ENDMDL
MODEL 2
REMARK VINA RESULT:      -5.5      1.734      4.472
REMARK  Name = Methylparaben
REMARK  4 active torsions:
REMARK  status: ('A' for Active; 'I' for Inactive)
REMARK    1  A    between atoms: C_1  and  O_2
REMARK    2  A    between atoms: O_2  and  C_3
REMARK    3  A    between atoms: C_3  and  C_5
REMARK    4  A    between atoms: C_8  and  O_9
REMARK                            x       y       z     vdW  Elec       q    Type
REMARK                         _______ _______ _______ _____ _____    ______ ____
ROOT
ATOM      1  C   UNL     1     -11.195   7.679 129.674  0.00  0.00    +0.000 A 
ATOM      2  C   UNL     1      -9.863   7.332 129.942  0.00  0.00    +0.000 A 
ATOM      3  C   UNL     1      -9.542   6.595 131.095  0.00  0.00    +0.000 A 
ATOM      4  C   UNL     1     -10.554   6.201 131.968  0.00  0.00    +0.000 A 
ATOM      5  C   UNL     1     -11.878   6.530 131.705  0.00  0.00    +0.000 A 
ATOM      6  C   UNL     1     -12.199   7.276 130.566  0.00  0.00    +0.000 A 
ENDROOT
BRANCH   1   7
ATOM      7  C   UNL     1     -11.579   8.535 128.519  0.00  0.00    +0.000 C 
ATOM      8  O   UNL     1     -12.626   9.169 128.489  0.00  0.00    +0.000 OA
BRANCH   7  10
ATOM      9  C   UNL     1     -11.050   7.624 126.423  0.00  0.00    +0.000 C 
ATOM     10  O   UNL     1     -10.663   8.472 127.518  0.00  0.00    +0.000 OA
ENDBRANCH   7  10
ENDBRANCH   1   7
BRANCH   4  11
ATOM     11  O   UNL     1     -10.304   5.493 133.107  0.00  0.00    +0.000 OA
ATOM     12  H   UNL     1     -10.738   4.627 133.061  0.00  0.00    +0.000 HD
ENDBRANCH   4  11
TORSDOF 3
ENDMDL
MODEL 3
REMARK VINA RESULT:      -5.2      1.886      4.659
REMARK  Name = Methylparaben
REMARK  4 active torsions:
REMARK  status: ('A' for Active; 'I' for Inactive)
REMARK    1  A    between atoms: C_1  and  O_2
REMARK    2  A    between atoms: O_2  and  C_3
REMARK    3  A    between atoms: C_3  and  C_5
REMARK    4  A    between atoms: C_8  and  O_9
REMARK                            x       y       z     vdW  Elec       q    Type
REMARK                         _______ _______ _______ _____ _____    ______ ____
ROOT
ATOM      1  C   UNL     1     -11.283   7.653 129.684  0.00  0.00    +0.000 A 
ATOM      2  C   UNL     1     -12.276   7.245 130.586  0.00  0.00    +0.000 A 
ATOM      3  C   UNL     1     -11.931   6.510 131.735  0.00  0.00    +0.000 A 
ATOM      4  C   UNL     1     -10.595   6.196 131.978  0.00  0.00    +0.000 A 
ATOM      5  C   UNL     1      -9.603   6.607 131.095  0.00  0.00    +0.000 A 
ATOM      6  C   UNL     1      -9.945   7.325 129.946  0.00  0.00    +0.000 A 
ENDROOT
BRANCH   1   7
ATOM      7  C   UNL     1     -11.604   8.351 128.410  0.00  0.00    +0.000 C 
ATOM      8  O   UNL     1     -10.741   8.681 127.606  0.00  0.00    +0.000 OA
BRANCH   7  10
ATOM      9  C   UNL     1     -13.320   9.906 128.780  0.00  0.00    +0.000 C 
ATOM     10  O   UNL     1     -12.932   8.609 128.295  0.00  0.00    +0.000 OA
ENDBRANCH   7  10
ENDBRANCH   1   7
BRANCH   4  11
ATOM     11  O   UNL     1     -10.199   5.478 133.069  0.00  0.00    +0.000 OA
ATOM     12  H   UNL     1     -10.369   4.535 132.923  0.00  0.00    +0.000 HD
ENDBRANCH   4  11
TORSDOF 3
ENDMDL
MODEL 4
REMARK VINA RESULT:      -5.1      2.423      4.222
REMARK  Name = Methylparaben
REMARK  4 active torsions:
REMARK  status: ('A' for Active; 'I' for Inactive)
REMARK    1  A    between atoms: C_1  and  O_2
REMARK    2  A    between atoms: O_2  and  C_3
REMARK    3  A    between atoms: C_3  and  C_5
REMARK    4  A    between atoms: C_8  and  O_9
REMARK                            x       y       z     vdW  Elec       q    Type
REMARK                         _______ _______ _______ _____ _____    ______ ____
ROOT
ATOM      1  C   UNL     1     -12.322   8.381 129.931  0.00  0.00    +0.000 A 
ATOM      2  C   UNL     1     -11.085   8.057 129.356  0.00  0.00    +0.000 A 
ATOM      3  C   UNL     1     -10.315   7.003 129.880  0.00  0.00    +0.000 A 
ATOM      4  C   UNL     1     -10.791   6.274 130.967  0.00  0.00    +0.000 A 
ATOM      5  C   UNL     1     -12.022   6.580 131.536  0.00  0.00    +0.000 A 
ATOM      6  C   UNL     1     -12.782   7.637 131.027  0.00  0.00    +0.000 A 
ENDROOT
BRANCH   1   7
ATOM      7  C   UNL     1     -13.132   9.544 129.476  0.00  0.00    +0.000 C 
ATOM      8  O   UNL     1     -13.609   9.612 128.350  0.00  0.00    +0.000 OA
BRANCH   7  10
ATOM      9  C   UNL     1     -13.733  11.759 129.956  0.00  0.00    +0.000 C 
ATOM     10  O   UNL     1     -13.216  10.505 130.431  0.00  0.00    +0.000 OA
ENDBRANCH   7  10
ENDBRANCH   1   7
BRANCH   4  11
ATOM     11  O   UNL     1     -10.087   5.247 131.525  0.00  0.00    +0.000 OA
ATOM     12  H   UNL     1     -10.228   4.433 131.017  0.00  0.00    +0.000 HD
ENDBRANCH   4  11
TORSDOF 3
ENDMDL
MODEL 5
REMARK VINA RESULT:      -5.0      2.377      3.184
REMARK  Name = Methylparaben
REMARK  4 active torsions:
REMARK  status: ('A' for Active; 'I' for Inactive)
REMARK    1  A    between atoms: C_1  and  O_2
REMARK    2  A    between atoms: O_2  and  C_3
REMARK    3  A    between atoms: C_3  and  C_5
REMARK    4  A    between atoms: C_8  and  O_9
REMARK                            x       y       z     vdW  Elec       q    Type
REMARK                         _______ _______ _______ _____ _____    ______ ____
ROOT
ATOM      1  C   UNL     1     -10.409   7.188 130.315  0.00  0.00    +0.000 A 
ATOM      2  C   UNL     1     -11.712   6.949 130.775  0.00  0.00    +0.000 A 
ATOM      3  C   UNL     1     -12.817   7.445 130.060  0.00  0.00    +0.000 A 
ATOM      4  C   UNL     1     -12.614   8.167 128.886  0.00  0.00    +0.000 A 
ATOM      5  C   UNL     1     -11.326   8.399 128.416  0.00  0.00    +0.000 A 
ATOM      6  C   UNL     1     -10.225   7.919 129.132  0.00  0.00    +0.000 A 
ENDROOT
BRANCH   1   7
ATOM      7  C   UNL     1      -9.205   6.766 131.080  0.00  0.00    +0.000 C 
ATOM      8  O   UNL     1      -9.259   6.416 132.252  0.00  0.00    +0.000 OA
BRANCH   7  10
ATOM      9  C   UNL     1      -6.866   6.940 131.117  0.00  0.00    +0.000 C 
ATOM     10  O   UNL     1      -8.072   6.874 130.338  0.00  0.00    +0.000 OA
ENDBRANCH   7  10
ENDBRANCH   1   7
BRANCH   4  11
ATOM     11  O   UNL     1     -13.644   8.682 128.155  0.00  0.00    +0.000 OA
ATOM     12  H   UNL     1     -13.973   8.015 127.532  0.00  0.00    +0.000 HD
ENDBRANCH   4  11
TORSDOF 3
ENDMDL
MODEL 6
REMARK VINA RESULT:      -5.0      2.159      2.731
REMARK  Name = Methylparaben
REMARK  4 active torsions:
REMARK  status: ('A' for Active; 'I' for Inactive)
REMARK    1  A    between atoms: C_1  and  O_2
REMARK    2  A    between atoms: O_2  and  C_3
REMARK    3  A    between atoms: C_3  and  C_5
REMARK    4  A    between atoms: C_8  and  O_9
REMARK                            x       y       z     vdW  Elec       q    Type
REMARK                         _______ _______ _______ _____ _____    ______ ____
ROOT
ATOM      1  C   UNL     1     -11.776   6.733 130.165  0.00  0.00    +0.000 A 
ATOM      2  C   UNL     1     -12.604   7.494 131.002  0.00  0.00    +0.000 A 
ATOM      3  C   UNL     1     -13.093   8.741 130.571  0.00  0.00    +0.000 A 
ATOM      4  C   UNL     1     -12.759   9.214 129.303  0.00  0.00    +0.000 A 
ATOM      5  C   UNL     1     -11.947   8.461 128.463  0.00  0.00    +0.000 A 
ATOM      6  C   UNL     1     -11.448   7.228 128.894  0.00  0.00    +0.000 A 
ENDROOT
BRANCH   1   7
ATOM      7  C   UNL     1     -11.158   5.454 130.606  0.00  0.00    +0.000 C 
ATOM      8  O   UNL     1     -11.305   4.406 129.990  0.00  0.00    +0.000 OA
BRANCH   7  10
ATOM      9  C   UNL     1      -9.174   6.183 131.623  0.00  0.00    +0.000 C 
ATOM     10  O   UNL     1     -10.479   5.597 131.773  0.00  0.00    +0.000 OA
ENDBRANCH   7  10
ENDBRANCH   1   7
BRANCH   4  11
ATOM     11  O   UNL     1     -13.194  10.418 128.833  0.00  0.00    +0.000 OA
ATOM     12  H   UNL     1     -13.607  10.924 129.550  0.00  0.00    +0.000 HD
ENDBRANCH   4  11
TORSDOF 3
ENDMDL
MODEL 7
REMARK VINA RESULT:      -4.8      0.747      2.030
REMARK  Name = Methylparaben
REMARK  4 active torsions:
REMARK  status: ('A' for Active; 'I' for Inactive)
REMARK    1  A    between atoms: C_1  and  O_2
REMARK    2  A    between atoms: O_2  and  C_3
REMARK    3  A    between atoms: C_3  and  C_5
REMARK    4  A    between atoms: C_8  and  O_9
REMARK                            x       y       z     vdW  Elec       q    Type
REMARK                         _______ _______ _______ _____ _____    ______ ____
ROOT
ATOM      1  C   UNL     1     -11.861   6.810 129.364  0.00  0.00    +0.000 A 
ATOM      2  C   UNL     1     -12.867   6.703 128.393  0.00  0.00    +0.000 A 
ATOM      3  C   UNL     1     -12.623   7.117 127.071  0.00  0.00    +0.000 A 
ATOM      4  C   UNL     1     -11.373   7.627 126.726  0.00  0.00    +0.000 A 
ATOM      5  C   UNL     1     -10.366   7.727 127.679  0.00  0.00    +0.000 A 
ATOM      6  C   UNL     1     -10.611   7.329 128.997  0.00  0.00    +0.000 A 
ENDROOT
BRANCH   1   7
ATOM      7  C   UNL     1     -12.095   6.474 130.794  0.00  0.00    +0.000 C 
ATOM      8  O   UNL     1     -11.377   5.699 131.413  0.00  0.00    +0.000 OA
BRANCH   7  10
ATOM      9  C   UNL     1     -13.001   8.445 131.684  0.00  0.00    +0.000 C 
ATOM     10  O   UNL     1     -13.208   7.081 131.279  0.00  0.00    +0.000 OA
ENDBRANCH   7  10
ENDBRANCH   1   7
BRANCH   4  11
ATOM     11  O   UNL     1     -11.079   8.054 125.464  0.00  0.00    +0.000 OA
ATOM     12  H   UNL     1     -10.802   8.983 125.485  0.00  0.00    +0.000 HD
ENDBRANCH   4  11
TORSDOF 3
ENDMDL
MODEL 8
REMARK VINA RESULT:      -4.7      2.133      3.006
REMARK  Name = Methylparaben
REMARK  4 active torsions:
REMARK  status: ('A' for Active; 'I' for Inactive)
REMARK    1  A    between atoms: C_1  and  O_2
REMARK    2  A    between atoms: O_2  and  C_3
REMARK    3  A    between atoms: C_3  and  C_5
REMARK    4  A    between atoms: C_8  and  O_9
REMARK                            x       y       z     vdW  Elec       q    Type
REMARK                         _______ _______ _______ _____ _____    ______ ____
ROOT
ATOM      1  C   UNL     1     -10.647   6.652 131.245  0.00  0.00    +0.000 A 
ATOM      2  C   UNL     1     -10.109   7.210 130.076  0.00  0.00    +0.000 A 
ATOM      3  C   UNL     1     -10.933   7.926 129.189  0.00  0.00    +0.000 A 
ATOM      4  C   UNL     1     -12.286   8.086 129.479  0.00  0.00    +0.000 A 
ATOM      5  C   UNL     1     -12.826   7.545 130.641  0.00  0.00    +0.000 A 
ATOM      6  C   UNL     1     -12.012   6.821 131.517  0.00  0.00    +0.000 A 
ENDROOT
BRANCH   1   7
ATOM      7  C   UNL     1      -9.841   5.809 132.168  0.00  0.00    +0.000 C 
ATOM      8  O   UNL     1      -9.269   6.269 133.148  0.00  0.00    +0.000 OA
BRANCH   7  10
ATOM      9  C   UNL     1      -9.163   3.627 132.696  0.00  0.00    +0.000 C 
ATOM     10  O   UNL     1      -9.786   4.517 131.755  0.00  0.00    +0.000 OA
ENDBRANCH   7  10
ENDBRANCH   1   7
BRANCH   4  11
ATOM     11  O   UNL     1     -13.137   8.760 128.654  0.00  0.00    +0.000 OA
ATOM     12  H   UNL     1     -13.973   8.274 128.571  0.00  0.00    +0.000 HD
ENDBRANCH   4  11
TORSDOF 3
ENDMDL
MODEL 9
REMARK VINA RESULT:      -4.6     11.547     12.242
REMARK  Name = Methylparaben
REMARK  4 active torsions:
REMARK  status: ('A' for Active; 'I' for Inactive)
REMARK    1  A    between atoms: C_1  and  O_2
REMARK    2  A    between atoms: O_2  and  C_3
REMARK    3  A    between atoms: C_3  and  C_5
REMARK    4  A    between atoms: C_8  and  O_9
REMARK                            x       y       z     vdW  Elec       q    Type
REMARK                         _______ _______ _______ _____ _____    ______ ____
ROOT
ATOM      1  C   UNL     1      -7.784  -2.426 123.657  0.00  0.00    +0.000 A 
ATOM      2  C   UNL     1      -6.883  -1.803 122.782  0.00  0.00    +0.000 A 
ATOM      3  C   UNL     1      -5.557  -2.262 122.684  0.00  0.00    +0.000 A 
ATOM      4  C   UNL     1      -5.143  -3.346 123.456  0.00  0.00    +0.000 A 
ATOM      5  C   UNL     1      -6.032  -3.977 124.318  0.00  0.00    +0.000 A 
ATOM      6  C   UNL     1      -7.346  -3.513 124.428  0.00  0.00    +0.000 A 
ENDROOT
BRANCH   1   7
ATOM      7  C   UNL     1      -9.168  -1.923 123.867  0.00  0.00    +0.000 C 
ATOM      8  O   UNL     1      -9.920  -1.661 122.937  0.00  0.00    +0.000 OA
BRANCH   7  10
ATOM      9  C   UNL     1      -9.076  -0.459 125.697  0.00  0.00    +0.000 C 
ATOM     10  O   UNL     1      -9.448  -1.750 125.184  0.00  0.00    +0.000 OA
ENDBRANCH   7  10
ENDBRANCH   1   7
BRANCH   4  11
ATOM     11  O   UNL     1      -3.869  -3.831 123.413  0.00  0.00    +0.000 OA
ATOM     12  H   UNL     1      -3.822  -4.587 122.807  0.00  0.00    +0.000 HD
ENDBRANCH   4  11
TORSDOF 3
ENDMDL
