MODEL 1
REMARK VINA RESULT:      -6.3      0.000      0.000
REMARK  Name = Methylphenidate
REMARK  5 active torsions:
REMARK  status: ('A' for Active; 'I' for Inactive)
REMARK    1  A    between atoms: C_1  and  O_2
REMARK    2  A    between atoms: O_2  and  C_3
REMARK    3  A    between atoms: C_3  and  C_5
REMARK    4  A    between atoms: C_5  and  C_6
REMARK    5  A    between atoms: C_5  and  C_12
REMARK                            x       y       z     vdW  Elec       q    Type
REMARK                         _______ _______ _______ _____ _____    ______ ____
ROOT
ATOM      1  C   UNL     1      -8.755  -1.771 125.129  0.00  0.00    +0.000 C 
ENDROOT
BRANCH   1   2
ATOM      2  C   UNL     1      -7.664  -2.387 124.204  0.00  0.00    +0.000 C 
ATOM      3  C   UNL     1      -6.455  -2.848 125.042  0.00  0.00    +0.000 C 
ATOM      4  C   UNL     1      -5.402  -3.524 124.175  0.00  0.00    +0.000 C 
ATOM      5  C   UNL     1      -5.001  -2.624 123.014  0.00  0.00    +0.000 C 
ATOM      6  C   UNL     1      -6.226  -2.134 122.254  0.00  0.00    +0.000 C 
ATOM      7  N   UNL     1      -7.142  -1.455 123.168  0.00  0.00    +0.000 NA
ATOM      8  H   UNL     1      -7.920  -1.074 122.624  0.00  0.00    +0.000 HD
ENDBRANCH   1   2
BRANCH   1   9
ATOM      9  C   UNL     1      -8.598  -2.288 126.562  0.00  0.00    +0.000 A 
ATOM     10  C   UNL     1      -7.968  -1.514 127.547  0.00  0.00    +0.000 A 
ATOM     11  C   UNL     1      -7.731  -2.055 128.811  0.00  0.00    +0.000 A 
ATOM     12  C   UNL     1      -8.183  -3.339 129.120  0.00  0.00    +0.000 A 
ATOM     13  C   UNL     1      -8.883  -4.079 128.176  0.00  0.00    +0.000 A 
ATOM     14  C   UNL     1      -9.120  -3.540 126.921  0.00  0.00    +0.000 A 
ENDBRANCH   1   9
BRANCH   1  15
ATOM     15  C   UNL     1      -8.727  -0.216 125.103  0.00  0.00    +0.000 C 
ATOM     16  O   UNL     1      -7.710   0.480 125.111  0.00  0.00    +0.000 OA
BRANCH  15  18
ATOM     17  C   UNL     1     -10.046   1.482 124.208  0.00  0.00    +0.000 C 
ATOM     18  O   UNL     1      -9.964   0.349 125.084  0.00  0.00    +0.000 OA
ENDBRANCH  15  18
ENDBRANCH   1  15
TORSDOF 4
ENDMDL
MODEL 2
REMARK VINA RESULT:      -6.2      0.884      1.503
REMARK  Name = Methylphenidate
REMARK  5 active torsions:
REMARK  status: ('A' for Active; 'I' for Inactive)
REMARK    1  A    between atoms: C_1  and  O_2
REMARK    2  A    between atoms: O_2  and  C_3
REMARK    3  A    between atoms: C_3  and  C_5
REMARK    4  A    between atoms: C_5  and  C_6
REMARK    5  A    between atoms: C_5  and  C_12
REMARK                            x       y       z     vdW  Elec       q    Type
REMARK                         _______ _______ _______ _____ _____    ______ ____
ROOT
ATOM      1  C   UNL     1      -8.640  -1.582 125.269  0.00  0.00    +0.000 C 
ENDROOT
BRANCH   1   2
ATOM      2  C   UNL     1      -7.262  -1.668 124.548  0.00  0.00    +0.000 C 
ATOM      3  C   UNL     1      -7.464  -1.951 123.047  0.00  0.00    +0.000 C 
ATOM      4  C   UNL     1      -6.137  -1.966 122.300  0.00  0.00    +0.000 C 
ATOM      5  C   UNL     1      -5.162  -2.937 122.952  0.00  0.00    +0.000 C 
ATOM      6  C   UNL     1      -5.044  -2.669 124.447  0.00  0.00    +0.000 C 
ATOM      7  N   UNL     1      -6.363  -2.732 125.071  0.00  0.00    +0.000 NA
ATOM      8  H   UNL     1      -6.248  -2.620 126.082  0.00  0.00    +0.000 HD
ENDBRANCH   1   2
BRANCH   1   9
ATOM      9  C   UNL     1      -8.552  -2.198 126.669  0.00  0.00    +0.000 A 
ATOM     10  C   UNL     1      -7.931  -1.514 127.724  0.00  0.00    +0.000 A 
ATOM     11  C   UNL     1      -7.759  -2.146 128.956  0.00  0.00    +0.000 A 
ATOM     12  C   UNL     1      -8.265  -3.430 129.163  0.00  0.00    +0.000 A 
ATOM     13  C   UNL     1      -8.957  -4.080 128.149  0.00  0.00    +0.000 A 
ATOM     14  C   UNL     1      -9.130  -3.451 126.925  0.00  0.00    +0.000 A 
ENDBRANCH   1   9
BRANCH   1  15
ATOM     15  C   UNL     1      -9.162  -0.119 125.348  0.00  0.00    +0.000 C 
ATOM     16  O   UNL     1     -10.315   0.214 125.627  0.00  0.00    +0.000 OA
BRANCH  15  18
ATOM     17  C   UNL     1      -8.763   2.010 124.492  0.00  0.00    +0.000 C 
ATOM     18  O   UNL     1      -8.214   0.812 125.058  0.00  0.00    +0.000 OA
ENDBRANCH  15  18
ENDBRANCH   1  15
TORSDOF 4
ENDMDL
MODEL 3
REMARK VINA RESULT:      -6.2      3.687      6.704
REMARK  Name = Methylphenidate
REMARK  5 active torsions:
REMARK  status: ('A' for Active; 'I' for Inactive)
REMARK    1  A    between atoms: C_1  and  O_2
REMARK    2  A    between atoms: O_2  and  C_3
REMARK    3  A    between atoms: C_3  and  C_5
REMARK    4  A    between atoms: C_5  and  C_6
REMARK    5  A    between atoms: C_5  and  C_12
REMARK                            x       y       z     vdW  Elec       q    Type
REMARK                         _______ _______ _______ _____ _____    ______ ____
ROOT
ATOM      1  C   UNL     1      -7.239   2.681 123.826  0.00  0.00    +0.000 C 
ENDROOT
BRANCH   1   2
ATOM      2  C   UNL     1      -8.113   1.413 124.062  0.00  0.00    +0.000 C 
ATOM      3  C   UNL     1      -8.140   1.056 125.561  0.00  0.00    +0.000 C 
ATOM      4  C   UNL     1      -9.048  -0.135 125.834  0.00  0.00    +0.000 C 
ATOM      5  C   UNL     1      -8.662  -1.319 124.957  0.00  0.00    +0.000 C 
ATOM      6  C   UNL     1      -8.578  -0.909 123.493  0.00  0.00    +0.000 C 
ATOM      7  N   UNL     1      -7.642   0.201 123.338  0.00  0.00    +0.000 NA
ATOM      8  H   UNL     1      -7.550   0.410 122.341  0.00  0.00    +0.000 HD
ENDBRANCH   1   2
BRANCH   1   9
ATOM      9  C   UNL     1      -7.354   3.149 122.372  0.00  0.00    +0.000 A 
ATOM     10  C   UNL     1      -6.211   3.430 121.609  0.00  0.00    +0.000 A 
ATOM     11  C   UNL     1      -6.345   3.969 120.330  0.00  0.00    +0.000 A 
ATOM     12  C   UNL     1      -7.613   4.163 119.779  0.00  0.00    +0.000 A 
ATOM     13  C   UNL     1      -8.748   3.807 120.497  0.00  0.00    +0.000 A 
ATOM     14  C   UNL     1      -8.614   3.270 121.767  0.00  0.00    +0.000 A 
ENDBRANCH   1   9
BRANCH   1  15
ATOM     15  C   UNL     1      -7.614   3.833 124.803  0.00  0.00    +0.000 C 
ATOM     16  O   UNL     1      -8.759   4.150 125.127  0.00  0.00    +0.000 OA
BRANCH  15  18
ATOM     17  C   UNL     1      -5.393   3.662 125.483  0.00  0.00    +0.000 C 
ATOM     18  O   UNL     1      -6.535   4.507 125.284  0.00  0.00    +0.000 OA
ENDBRANCH  15  18
ENDBRANCH   1  15
TORSDOF 4
ENDMDL
MODEL 4
REMARK VINA RESULT:      -6.0      1.759      3.815
REMARK  Name = Methylphenidate
REMARK  5 active torsions:
REMARK  status: ('A' for Active; 'I' for Inactive)
REMARK    1  A    between atoms: C_1  and  O_2
REMARK    2  A    between atoms: O_2  and  C_3
REMARK    3  A    between atoms: C_3  and  C_5
REMARK    4  A    between atoms: C_5  and  C_6
REMARK    5  A    between atoms: C_5  and  C_12
REMARK                            x       y       z     vdW  Elec       q    Type
REMARK                         _______ _______ _______ _____ _____    ______ ____
ROOT
ATOM      1  C   UNL     1      -7.050  -1.959 125.327  0.00  0.00    +0.000 C 
ENDROOT
BRANCH   1   2
ATOM      2  C   UNL     1      -7.703  -0.572 125.050  0.00  0.00    +0.000 C 
ATOM      3  C   UNL     1      -9.131  -0.531 125.628  0.00  0.00    +0.000 C 
ATOM      4  C   UNL     1      -9.768   0.839 125.439  0.00  0.00    +0.000 C 
ATOM      5  C   UNL     1      -9.716   1.261 123.977  0.00  0.00    +0.000 C 
ATOM      6  C   UNL     1      -8.303   1.139 123.424  0.00  0.00    +0.000 C 
ATOM      7  N   UNL     1      -7.810  -0.224 123.607  0.00  0.00    +0.000 NA
ATOM      8  H   UNL     1      -6.891  -0.298 123.165  0.00  0.00    +0.000 HD
ENDBRANCH   1   2
BRANCH   1   9
ATOM      9  C   UNL     1      -7.531  -2.519 126.670  0.00  0.00    +0.000 A 
ATOM     10  C   UNL     1      -8.510  -3.522 126.728  0.00  0.00    +0.000 A 
ATOM     11  C   UNL     1      -9.015  -3.929 127.962  0.00  0.00    +0.000 A 
ATOM     12  C   UNL     1      -8.500  -3.391 129.144  0.00  0.00    +0.000 A 
ATOM     13  C   UNL     1      -7.471  -2.460 129.096  0.00  0.00    +0.000 A 
ATOM     14  C   UNL     1      -6.967  -2.058 127.869  0.00  0.00    +0.000 A 
ENDBRANCH   1   9
BRANCH   1  15
ATOM     15  C   UNL     1      -7.332  -2.972 124.180  0.00  0.00    +0.000 C 
ATOM     16  O   UNL     1      -8.341  -2.988 123.474  0.00  0.00    +0.000 OA
BRANCH  15  18
ATOM     17  C   UNL     1      -5.045  -3.298 123.886  0.00  0.00    +0.000 C 
ATOM     18  O   UNL     1      -6.344  -3.892 124.015  0.00  0.00    +0.000 OA
ENDBRANCH  15  18
ENDBRANCH   1  15
TORSDOF 4
ENDMDL
MODEL 5
REMARK VINA RESULT:      -5.9      1.681      4.662
REMARK  Name = Methylphenidate
REMARK  5 active torsions:
REMARK  status: ('A' for Active; 'I' for Inactive)
REMARK    1  A    between atoms: C_1  and  O_2
REMARK    2  A    between atoms: O_2  and  C_3
REMARK    3  A    between atoms: C_3  and  C_5
REMARK    4  A    between atoms: C_5  and  C_6
REMARK    5  A    between atoms: C_5  and  C_12
REMARK                            x       y       z     vdW  Elec       q    Type
REMARK                         _______ _______ _______ _____ _____    ______ ____
ROOT
ATOM      1  C   UNL     1      -7.617  -1.090 125.848  0.00  0.00    +0.000 C 
ENDROOT
BRANCH   1   2
ATOM      2  C   UNL     1      -7.352  -1.754 127.233  0.00  0.00    +0.000 C 
ATOM      3  C   UNL     1      -8.428  -2.817 127.528  0.00  0.00    +0.000 C 
ATOM      4  C   UNL     1      -8.154  -3.537 128.840  0.00  0.00    +0.000 C 
ATOM      5  C   UNL     1      -7.990  -2.539 129.979  0.00  0.00    +0.000 C 
ATOM      6  C   UNL     1      -6.971  -1.465 129.621  0.00  0.00    +0.000 C 
ATOM      7  N   UNL     1      -7.359  -0.803 128.378  0.00  0.00    +0.000 NA
ATOM      8  H   UNL     1      -6.700  -0.042 128.197  0.00  0.00    +0.000 HD
ENDBRANCH   1   2
BRANCH   1   9
ATOM      9  C   UNL     1      -6.707  -1.701 124.778  0.00  0.00    +0.000 A 
ATOM     10  C   UNL     1      -6.771  -1.274 123.443  0.00  0.00    +0.000 A 
ATOM     11  C   UNL     1      -6.019  -1.928 122.468  0.00  0.00    +0.000 A 
ATOM     12  C   UNL     1      -5.149  -2.960 122.826  0.00  0.00    +0.000 A 
ATOM     13  C   UNL     1      -5.018  -3.331 124.158  0.00  0.00    +0.000 A 
ATOM     14  C   UNL     1      -5.764  -2.679 125.128  0.00  0.00    +0.000 A 
ENDBRANCH   1   9
BRANCH   1  15
ATOM     15  C   UNL     1      -9.110  -1.205 125.427  0.00  0.00    +0.000 C 
ATOM     16  O   UNL     1      -9.621  -2.174 124.862  0.00  0.00    +0.000 OA
BRANCH  15  18
ATOM     17  C   UNL     1      -9.721   0.935 124.742  0.00  0.00    +0.000 C 
ATOM     18  O   UNL     1      -9.845  -0.100 125.727  0.00  0.00    +0.000 OA
ENDBRANCH  15  18
ENDBRANCH   1  15
TORSDOF 4
ENDMDL
MODEL 6
REMARK VINA RESULT:      -5.9      3.066      5.858
REMARK  Name = Methylphenidate
REMARK  5 active torsions:
REMARK  status: ('A' for Active; 'I' for Inactive)
REMARK    1  A    between atoms: C_1  and  O_2
REMARK    2  A    between atoms: O_2  and  C_3
REMARK    3  A    between atoms: C_3  and  C_5
REMARK    4  A    between atoms: C_5  and  C_6
REMARK    5  A    between atoms: C_5  and  C_12
REMARK                            x       y       z     vdW  Elec       q    Type
REMARK                         _______ _______ _______ _____ _____    ______ ____
ROOT
ATOM      1  C   UNL     1      -7.393   1.757 124.502  0.00  0.00    +0.000 C 
ENDROOT
BRANCH   1   2
ATOM      2  C   UNL     1      -7.542   0.229 124.238  0.00  0.00    +0.000 C 
ATOM      3  C   UNL     1      -6.705  -0.183 123.011  0.00  0.00    +0.000 C 
ATOM      4  C   UNL     1      -6.770  -1.684 122.772  0.00  0.00    +0.000 C 
ATOM      5  C   UNL     1      -8.215  -2.154 122.679  0.00  0.00    +0.000 C 
ATOM      6  C   UNL     1      -9.025  -1.668 123.873  0.00  0.00    +0.000 C 
ATOM      7  N   UNL     1      -8.938  -0.213 123.977  0.00  0.00    +0.000 NA
ATOM      8  H   UNL     1      -9.545   0.094 124.741  0.00  0.00    +0.000 HD
ENDBRANCH   1   2
BRANCH   1   9
ATOM      9  C   UNL     1      -7.475   2.539 123.188  0.00  0.00    +0.000 A 
ATOM     10  C   UNL     1      -8.699   2.725 122.530  0.00  0.00    +0.000 A 
ATOM     11  C   UNL     1      -8.730   3.336 121.277  0.00  0.00    +0.000 A 
ATOM     12  C   UNL     1      -7.554   3.826 120.706  0.00  0.00    +0.000 A 
ATOM     13  C   UNL     1      -6.350   3.722 121.390  0.00  0.00    +0.000 A 
ATOM     14  C   UNL     1      -6.320   3.117 122.637  0.00  0.00    +0.000 A 
ENDBRANCH   1   9
BRANCH   1  15
ATOM     15  C   UNL     1      -8.454   2.277 125.515  0.00  0.00    +0.000 C 
ATOM     16  O   UNL     1      -9.254   1.575 126.134  0.00  0.00    +0.000 OA
BRANCH  15  18
ATOM     17  C   UNL     1      -7.384   4.090 126.511  0.00  0.00    +0.000 C 
ATOM     18  O   UNL     1      -8.445   3.629 125.663  0.00  0.00    +0.000 OA
ENDBRANCH  15  18
ENDBRANCH   1  15
TORSDOF 4
ENDMDL
MODEL 7
REMARK VINA RESULT:      -5.9      8.797     10.826
REMARK  Name = Methylphenidate
REMARK  5 active torsions:
REMARK  status: ('A' for Active; 'I' for Inactive)
REMARK    1  A    between atoms: C_1  and  O_2
REMARK    2  A    between atoms: O_2  and  C_3
REMARK    3  A    between atoms: C_3  and  C_5
REMARK    4  A    between atoms: C_5  and  C_6
REMARK    5  A    between atoms: C_5  and  C_12
REMARK                            x       y       z     vdW  Elec       q    Type
REMARK                         _______ _______ _______ _____ _____    ______ ____
ROOT
ATOM      1  C   UNL     1      -9.373   5.773 130.826  0.00  0.00    +0.000 C 
ENDROOT
BRANCH   1   2
ATOM      2  C   UNL     1     -10.087   7.023 130.231  0.00  0.00    +0.000 C 
ATOM      3  C   UNL     1     -11.611   6.911 130.431  0.00  0.00    +0.000 C 
ATOM      4  C   UNL     1     -12.331   8.153 129.927  0.00  0.00    +0.000 C 
ATOM      5  C   UNL     1     -11.951   8.449 128.482  0.00  0.00    +0.000 C 
ATOM      6  C   UNL     1     -10.439   8.481 128.312  0.00  0.00    +0.000 C 
ATOM      7  N   UNL     1      -9.856   7.224 128.775  0.00  0.00    +0.000 NA
ATOM      8  H   UNL     1      -8.851   7.243 128.585  0.00  0.00    +0.000 HD
ENDBRANCH   1   2
BRANCH   1   9
ATOM      9  C   UNL     1      -7.861   5.859 130.597  0.00  0.00    +0.000 A 
ATOM     10  C   UNL     1      -7.180   4.869 129.873  0.00  0.00    +0.000 A 
ATOM     11  C   UNL     1      -5.789   4.907 129.781  0.00  0.00    +0.000 A 
ATOM     12  C   UNL     1      -5.078   5.966 130.348  0.00  0.00    +0.000 A 
ATOM     13  C   UNL     1      -5.752   6.995 130.993  0.00  0.00    +0.000 A 
ATOM     14  C   UNL     1      -7.135   6.957 131.082  0.00  0.00    +0.000 A 
ENDBRANCH   1   9
BRANCH   1  15
ATOM     15  C   UNL     1      -9.687   5.592 132.339  0.00  0.00    +0.000 C 
ATOM     16  O   UNL     1      -9.917   6.503 133.135  0.00  0.00    +0.000 OA
BRANCH  15  18
ATOM     17  C   UNL     1      -8.839   4.074 133.888  0.00  0.00    +0.000 C 
ATOM     18  O   UNL     1      -9.674   4.293 132.743  0.00  0.00    +0.000 OA
ENDBRANCH  15  18
ENDBRANCH   1  15
TORSDOF 4
ENDMDL
MODEL 8
REMARK VINA RESULT:      -5.8      8.190     10.501
REMARK  Name = Methylphenidate
REMARK  5 active torsions:
REMARK  status: ('A' for Active; 'I' for Inactive)
REMARK    1  A    between atoms: C_1  and  O_2
REMARK    2  A    between atoms: O_2  and  C_3
REMARK    3  A    between atoms: C_3  and  C_5
REMARK    4  A    between atoms: C_5  and  C_6
REMARK    5  A    between atoms: C_5  and  C_12
REMARK                            x       y       z     vdW  Elec       q    Type
REMARK                         _______ _______ _______ _____ _____    ______ ____
ROOT
ATOM      1  C   UNL     1      -9.722   5.574 130.136  0.00  0.00    +0.000 C 
ENDROOT
BRANCH   1   2
ATOM      2  C   UNL     1      -9.877   4.495 131.248  0.00  0.00    +0.000 C 
ATOM      3  C   UNL     1      -9.116   4.925 132.518  0.00  0.00    +0.000 C 
ATOM      4  C   UNL     1      -9.312   3.926 133.649  0.00  0.00    +0.000 C 
ATOM      5  C   UNL     1      -8.945   2.519 133.195  0.00  0.00    +0.000 C 
ATOM      6  C   UNL     1      -9.662   2.158 131.902  0.00  0.00    +0.000 C 
ATOM      7  N   UNL     1      -9.364   3.150 130.872  0.00  0.00    +0.000 NA
ATOM      8  H   UNL     1      -9.798   2.848 129.996  0.00  0.00    +0.000 HD
ENDBRANCH   1   2
BRANCH   1   9
ATOM      9  C   UNL     1     -10.820   6.635 130.261  0.00  0.00    +0.000 A 
ATOM     10  C   UNL     1     -11.710   6.632 131.344  0.00  0.00    +0.000 A 
ATOM     11  C   UNL     1     -12.774   7.534 131.372  0.00  0.00    +0.000 A 
ATOM     12  C   UNL     1     -12.913   8.486 130.361  0.00  0.00    +0.000 A 
ATOM     13  C   UNL     1     -11.986   8.550 129.329  0.00  0.00    +0.000 A 
ATOM     14  C   UNL     1     -10.928   7.655 129.303  0.00  0.00    +0.000 A 
ENDBRANCH   1   9
BRANCH   1  15
ATOM     15  C   UNL     1      -8.315   6.238 130.165  0.00  0.00    +0.000 C 
ATOM     16  O   UNL     1      -8.068   7.370 130.581  0.00  0.00    +0.000 OA
BRANCH  15  18
ATOM     17  C   UNL     1      -6.144   5.451 130.463  0.00  0.00    +0.000 C 
ATOM     18  O   UNL     1      -7.331   5.445 129.659  0.00  0.00    +0.000 OA
ENDBRANCH  15  18
ENDBRANCH   1  15
TORSDOF 4
ENDMDL
MODEL 9
REMARK VINA RESULT:      -5.7      3.559      5.535
REMARK  Name = Methylphenidate
REMARK  5 active torsions:
REMARK  status: ('A' for Active; 'I' for Inactive)
REMARK    1  A    between atoms: C_1  and  O_2
REMARK    2  A    between atoms: O_2  and  C_3
REMARK    3  A    between atoms: C_3  and  C_5
REMARK    4  A    between atoms: C_5  and  C_6
REMARK    5  A    between atoms: C_5  and  C_12
REMARK                            x       y       z     vdW  Elec       q    Type
REMARK                         _______ _______ _______ _____ _____    ______ ____
ROOT
ATOM      1  C   UNL     1      -8.851   2.096 123.787  0.00  0.00    +0.000 C 
ENDROOT
BRANCH   1   2
ATOM      2  C   UNL     1      -8.204   3.078 122.765  0.00  0.00    +0.000 C 
ATOM      3  C   UNL     1      -8.917   2.973 121.402  0.00  0.00    +0.000 C 
ATOM      4  C   UNL     1      -8.356   3.976 120.403  0.00  0.00    +0.000 C 
ATOM      5  C   UNL     1      -6.845   3.832 120.285  0.00  0.00    +0.000 C 
ATOM      6  C   UNL     1      -6.185   3.870 121.657  0.00  0.00    +0.000 C 
ATOM      7  N   UNL     1      -6.757   2.836 122.515  0.00  0.00    +0.000 NA
ATOM      8  H   UNL     1      -6.249   2.835 123.403  0.00  0.00    +0.000 HD
ENDBRANCH   1   2
BRANCH   1   9
ATOM      9  C   UNL     1      -8.468   0.650 123.458  0.00  0.00    +0.000 A 
ATOM     10  C   UNL     1      -9.407  -0.246 122.928  0.00  0.00    +0.000 A 
ATOM     11  C   UNL     1      -9.066  -1.587 122.750  0.00  0.00    +0.000 A 
ATOM     12  C   UNL     1      -7.771  -2.025 123.031  0.00  0.00    +0.000 A 
ATOM     13  C   UNL     1      -6.811  -1.125 123.475  0.00  0.00    +0.000 A 
ATOM     14  C   UNL     1      -7.150   0.208 123.650  0.00  0.00    +0.000 A 
ENDBRANCH   1   9
BRANCH   1  15
ATOM     15  C   UNL     1      -8.461   2.445 125.252  0.00  0.00    +0.000 C 
ATOM     16  O   UNL     1      -8.992   1.979 126.262  0.00  0.00    +0.000 OA
BRANCH  15  18
ATOM     17  C   UNL     1      -7.518   4.136 126.545  0.00  0.00    +0.000 C 
ATOM     18  O   UNL     1      -7.455   3.355 125.344  0.00  0.00    +0.000 OA
ENDBRANCH  15  18
ENDBRANCH   1  15
TORSDOF 4
ENDMDL
