MODEL 1
REMARK VINA RESULT:      -5.6      0.000      0.000
REMARK  Name = Methyprylon
REMARK  5 active torsions:
REMARK  status: ('A' for Active; 'I' for Inactive)
REMARK    1  A    between atoms: C_1  and  C_2
REMARK    2  A    between atoms: C_2  and  C_3
REMARK    3  A    between atoms: C_3  and  C_4
REMARK    4  A    between atoms: C_4  and  C_5
REMARK    5  A    between atoms: C_10  and  C_11
REMARK                            x       y       z     vdW  Elec       q    Type
REMARK                         _______ _______ _______ _____ _____    ______ ____
ROOT
ATOM      1  C   UNL     1     -11.784   7.077 129.233  0.00  0.00    +0.000 C 
ATOM      2  C   UNL     1     -10.567   7.803 128.657  0.00  0.00    +0.000 C 
ATOM      3  O   UNL     1     -10.559   8.428 127.599  0.00  0.00    +0.000 OA
ATOM      4  N   UNL     1      -9.574   7.965 129.607  0.00  0.00    +0.000 N 
ATOM      5  C   UNL     1      -9.123   6.843 130.393  0.00  0.00    +0.000 C 
ATOM      6  C   UNL     1     -10.248   6.047 131.034  0.00  0.00    +0.000 C 
ATOM      7  C   UNL     1      -9.747   4.706 131.547  0.00  0.00    +0.000 C 
ATOM      8  C   UNL     1     -11.323   5.837 130.001  0.00  0.00    +0.000 C 
ATOM      9  O   UNL     1     -11.834   4.725 129.857  0.00  0.00    +0.000 OA
ATOM     10  H   UNL     1      -9.317   8.919 129.845  0.00  0.00    +0.000 HD
ENDROOT
BRANCH   1  12
ATOM     11  C   UNL     1     -13.090   7.631 131.419  0.00  0.00    +0.000 C 
ATOM     12  C   UNL     1     -12.330   8.159 130.228  0.00  0.00    +0.000 C 
ENDBRANCH   1  12
BRANCH   1  13
ATOM     13  C   UNL     1     -12.863   6.670 128.205  0.00  0.00    +0.000 C 
ATOM     14  C   UNL     1     -13.851   7.776 127.832  0.00  0.00    +0.000 C 
ENDBRANCH   1  13
TORSDOF 2
ENDMDL
MODEL 2
REMARK VINA RESULT:      -5.2     10.449     11.798
REMARK  Name = Methyprylon
REMARK  5 active torsions:
REMARK  status: ('A' for Active; 'I' for Inactive)
REMARK    1  A    between atoms: C_1  and  C_2
REMARK    2  A    between atoms: C_2  and  C_3
REMARK    3  A    between atoms: C_3  and  C_4
REMARK    4  A    between atoms: C_4  and  C_5
REMARK    5  A    between atoms: C_10  and  C_11
REMARK                            x       y       z     vdW  Elec       q    Type
REMARK                         _______ _______ _______ _____ _____    ______ ____
ROOT
ATOM      1  C   UNL     1      -6.427  -2.132 124.783  0.00  0.00    +0.000 C 
ATOM      2  C   UNL     1      -6.703  -0.657 124.491  0.00  0.00    +0.000 C 
ATOM      3  O   UNL     1      -6.142   0.286 125.046  0.00  0.00    +0.000 OA
ATOM      4  N   UNL     1      -7.402  -0.493 123.308  0.00  0.00    +0.000 N 
ATOM      5  C   UNL     1      -8.600  -1.255 123.056  0.00  0.00    +0.000 C 
ATOM      6  C   UNL     1      -8.446  -2.747 123.297  0.00  0.00    +0.000 C 
ATOM      7  C   UNL     1      -9.800  -3.436 123.354  0.00  0.00    +0.000 C 
ATOM      8  C   UNL     1      -7.713  -2.939 124.598  0.00  0.00    +0.000 C 
ATOM      9  O   UNL     1      -8.115  -3.764 125.419  0.00  0.00    +0.000 OA
ATOM     10  H   UNL     1      -6.942   0.035 122.572  0.00  0.00    +0.000 HD
ENDROOT
BRANCH   1  12
ATOM     11  C   UNL     1      -4.710  -3.806 123.760  0.00  0.00    +0.000 C 
ATOM     12  C   UNL     1      -5.405  -2.472 123.642  0.00  0.00    +0.000 C 
ENDBRANCH   1  12
BRANCH   1  13
ATOM     13  C   UNL     1      -5.829  -2.433 126.175  0.00  0.00    +0.000 C 
ATOM     14  C   UNL     1      -6.592  -1.826 127.352  0.00  0.00    +0.000 C 
ENDBRANCH   1  13
TORSDOF 2
ENDMDL
MODEL 3
REMARK VINA RESULT:      -5.1     10.369     11.737
REMARK  Name = Methyprylon
REMARK  5 active torsions:
REMARK  status: ('A' for Active; 'I' for Inactive)
REMARK    1  A    between atoms: C_1  and  C_2
REMARK    2  A    between atoms: C_2  and  C_3
REMARK    3  A    between atoms: C_3  and  C_4
REMARK    4  A    between atoms: C_4  and  C_5
REMARK    5  A    between atoms: C_10  and  C_11
REMARK                            x       y       z     vdW  Elec       q    Type
REMARK                         _______ _______ _______ _____ _____    ______ ____
ROOT
ATOM      1  C   UNL     1      -6.482  -2.296 124.814  0.00  0.00    +0.000 C 
ATOM      2  C   UNL     1      -7.489  -1.811 123.771  0.00  0.00    +0.000 C 
ATOM      3  O   UNL     1      -7.259  -0.959 122.916  0.00  0.00    +0.000 OA
ATOM      4  N   UNL     1      -8.574  -2.664 123.675  0.00  0.00    +0.000 N 
ATOM      5  C   UNL     1      -9.286  -3.079 124.858  0.00  0.00    +0.000 C 
ATOM      6  C   UNL     1      -8.388  -3.599 125.969  0.00  0.00    +0.000 C 
ATOM      7  C   UNL     1      -9.141  -3.689 127.286  0.00  0.00    +0.000 C 
ATOM      8  C   UNL     1      -7.218  -2.661 126.105  0.00  0.00    +0.000 C 
ATOM      9  O   UNL     1      -6.854  -2.283 127.219  0.00  0.00    +0.000 OA
ATOM     10  H   UNL     1      -8.724  -3.117 122.778  0.00  0.00    +0.000 HD
ENDROOT
BRANCH   1  12
ATOM     11  C   UNL     1      -4.571  -3.469 123.485  0.00  0.00    +0.000 C 
ATOM     12  C   UNL     1      -5.935  -3.590 124.117  0.00  0.00    +0.000 C 
ENDBRANCH   1  12
BRANCH   1  13
ATOM     13  C   UNL     1      -5.336  -1.311 125.139  0.00  0.00    +0.000 C 
ATOM     14  C   UNL     1      -5.786   0.079 125.589  0.00  0.00    +0.000 C 
ENDBRANCH   1  13
TORSDOF 2
ENDMDL
MODEL 4
REMARK VINA RESULT:      -5.1      9.623     10.932
REMARK  Name = Methyprylon
REMARK  5 active torsions:
REMARK  status: ('A' for Active; 'I' for Inactive)
REMARK    1  A    between atoms: C_1  and  C_2
REMARK    2  A    between atoms: C_2  and  C_3
REMARK    3  A    between atoms: C_3  and  C_4
REMARK    4  A    between atoms: C_4  and  C_5
REMARK    5  A    between atoms: C_10  and  C_11
REMARK                            x       y       z     vdW  Elec       q    Type
REMARK                         _______ _______ _______ _____ _____    ______ ____
ROOT
ATOM      1  C   UNL     1      -8.118  -2.045 125.380  0.00  0.00    +0.000 C 
ATOM      2  C   UNL     1      -6.618  -1.771 125.262  0.00  0.00    +0.000 C 
ATOM      3  O   UNL     1      -5.768  -2.164 126.058  0.00  0.00    +0.000 OA
ATOM      4  N   UNL     1      -6.279  -1.322 123.998  0.00  0.00    +0.000 N 
ATOM      5  C   UNL     1      -7.005  -0.235 123.389  0.00  0.00    +0.000 C 
ATOM      6  C   UNL     1      -8.515  -0.402 123.429  0.00  0.00    +0.000 C 
ATOM      7  C   UNL     1      -9.220   0.904 123.097  0.00  0.00    +0.000 C 
ATOM      8  C   UNL     1      -8.901  -0.861 124.810  0.00  0.00    +0.000 C 
ATOM      9  O   UNL     1      -9.849  -0.335 125.395  0.00  0.00    +0.000 OA
ATOM     10  H   UNL     1      -5.637  -1.899 123.463  0.00  0.00    +0.000 HD
ENDROOT
BRANCH   1  12
ATOM     11  C   UNL     1      -9.557  -3.387 123.670  0.00  0.00    +0.000 C 
ATOM     12  C   UNL     1      -8.264  -3.293 124.440  0.00  0.00    +0.000 C 
ENDBRANCH   1  12
BRANCH   1  13
ATOM     13  C   UNL     1      -8.627  -2.358 126.804  0.00  0.00    +0.000 C 
ATOM     14  C   UNL     1      -8.758  -3.845 127.133  0.00  0.00    +0.000 C 
ENDBRANCH   1  13
TORSDOF 2
ENDMDL
MODEL 5
REMARK VINA RESULT:      -5.1      9.340     10.793
REMARK  Name = Methyprylon
REMARK  5 active torsions:
REMARK  status: ('A' for Active; 'I' for Inactive)
REMARK    1  A    between atoms: C_1  and  C_2
REMARK    2  A    between atoms: C_2  and  C_3
REMARK    3  A    between atoms: C_3  and  C_4
REMARK    4  A    between atoms: C_4  and  C_5
REMARK    5  A    between atoms: C_10  and  C_11
REMARK                            x       y       z     vdW  Elec       q    Type
REMARK                         _______ _______ _______ _____ _____    ______ ____
ROOT
ATOM      1  C   UNL     1      -7.626  -1.673 126.635  0.00  0.00    +0.000 C 
ATOM      2  C   UNL     1      -6.253  -1.649 125.962  0.00  0.00    +0.000 C 
ATOM      3  O   UNL     1      -5.328  -0.906 126.282  0.00  0.00    +0.000 OA
ATOM      4  N   UNL     1      -6.048  -2.773 125.181  0.00  0.00    +0.000 N 
ATOM      5  C   UNL     1      -7.037  -3.183 124.216  0.00  0.00    +0.000 C 
ATOM      6  C   UNL     1      -8.449  -3.261 124.773  0.00  0.00    +0.000 C 
ATOM      7  C   UNL     1      -9.476  -3.354 123.656  0.00  0.00    +0.000 C 
ATOM      8  C   UNL     1      -8.696  -2.028 125.601  0.00  0.00    +0.000 C 
ATOM      9  O   UNL     1      -9.748  -1.399 125.477  0.00  0.00    +0.000 OA
ATOM     10  H   UNL     1      -5.276  -3.380 125.444  0.00  0.00    +0.000 HD
ENDROOT
BRANCH   1  12
ATOM     11  C   UNL     1      -8.702  -3.555 128.083  0.00  0.00    +0.000 C 
ATOM     12  C   UNL     1      -7.438  -2.857 127.647  0.00  0.00    +0.000 C 
ENDBRANCH   1  12
BRANCH   1  13
ATOM     13  C   UNL     1      -8.031  -0.374 127.366  0.00  0.00    +0.000 C 
ATOM     14  C   UNL     1      -7.564  -0.277 128.819  0.00  0.00    +0.000 C 
ENDBRANCH   1  13
TORSDOF 2
ENDMDL
MODEL 6
REMARK VINA RESULT:      -5.0      9.996     11.296
REMARK  Name = Methyprylon
REMARK  5 active torsions:
REMARK  status: ('A' for Active; 'I' for Inactive)
REMARK    1  A    between atoms: C_1  and  C_2
REMARK    2  A    between atoms: C_2  and  C_3
REMARK    3  A    between atoms: C_3  and  C_4
REMARK    4  A    between atoms: C_4  and  C_5
REMARK    5  A    between atoms: C_10  and  C_11
REMARK                            x       y       z     vdW  Elec       q    Type
REMARK                         _______ _______ _______ _____ _____    ______ ____
ROOT
ATOM      1  C   UNL     1      -7.510  -2.093 124.115  0.00  0.00    +0.000 C 
ATOM      2  C   UNL     1      -7.002  -1.122 125.181  0.00  0.00    +0.000 C 
ATOM      3  O   UNL     1      -6.410  -1.452 126.207  0.00  0.00    +0.000 OA
ATOM      4  N   UNL     1      -6.978   0.181 124.715  0.00  0.00    +0.000 N 
ATOM      5  C   UNL     1      -8.139   0.750 124.076  0.00  0.00    +0.000 C 
ATOM      6  C   UNL     1      -8.730  -0.121 122.979  0.00  0.00    +0.000 C 
ATOM      7  C   UNL     1     -10.121   0.354 122.591  0.00  0.00    +0.000 C 
ATOM      8  C   UNL     1      -8.789  -1.538 123.486  0.00  0.00    +0.000 C 
ATOM      9  O   UNL     1      -9.808  -2.211 123.323  0.00  0.00    +0.000 OA
ATOM     10  H   UNL     1      -6.072   0.639 124.679  0.00  0.00    +0.000 HD
ENDROOT
BRANCH   1  12
ATOM     11  C   UNL     1      -5.186  -2.986 123.343  0.00  0.00    +0.000 C 
ATOM     12  C   UNL     1      -6.331  -2.040 123.081  0.00  0.00    +0.000 C 
ENDBRANCH   1  12
BRANCH   1  13
ATOM     13  C   UNL     1      -7.763  -3.538 124.599  0.00  0.00    +0.000 C 
ATOM     14  C   UNL     1      -8.563  -3.655 125.896  0.00  0.00    +0.000 C 
ENDBRANCH   1  13
TORSDOF 2
ENDMDL
MODEL 7
REMARK VINA RESULT:      -5.0      9.662     10.991
REMARK  Name = Methyprylon
REMARK  5 active torsions:
REMARK  status: ('A' for Active; 'I' for Inactive)
REMARK    1  A    between atoms: C_1  and  C_2
REMARK    2  A    between atoms: C_2  and  C_3
REMARK    3  A    between atoms: C_3  and  C_4
REMARK    4  A    between atoms: C_4  and  C_5
REMARK    5  A    between atoms: C_10  and  C_11
REMARK                            x       y       z     vdW  Elec       q    Type
REMARK                         _______ _______ _______ _____ _____    ______ ____
ROOT
ATOM      1  C   UNL     1      -8.165  -2.166 125.780  0.00  0.00    +0.000 C 
ATOM      2  C   UNL     1      -8.793  -0.886 125.226  0.00  0.00    +0.000 C 
ATOM      3  O   UNL     1      -9.912  -0.470 125.518  0.00  0.00    +0.000 OA
ATOM      4  N   UNL     1      -7.848  -0.073 124.626  0.00  0.00    +0.000 N 
ATOM      5  C   UNL     1      -6.936  -0.611 123.647  0.00  0.00    +0.000 C 
ATOM      6  C   UNL     1      -6.233  -1.883 124.091  0.00  0.00    +0.000 C 
ATOM      7  C   UNL     1      -5.568  -2.581 122.915  0.00  0.00    +0.000 C 
ATOM      8  C   UNL     1      -7.258  -2.791 124.718  0.00  0.00    +0.000 C 
ATOM      9  O   UNL     1      -7.290  -3.986 124.423  0.00  0.00    +0.000 OA
ATOM     10  H   UNL     1      -7.710   0.848 125.032  0.00  0.00    +0.000 HD
ENDROOT
BRANCH   1  12
ATOM     11  C   UNL     1      -5.935  -2.197 127.128  0.00  0.00    +0.000 C 
ATOM     12  C   UNL     1      -7.304  -1.587 126.956  0.00  0.00    +0.000 C 
ENDBRANCH   1  12
BRANCH   1  13
ATOM     13  C   UNL     1      -9.163  -3.228 126.290  0.00  0.00    +0.000 C 
ATOM     14  C   UNL     1      -8.885  -3.755 127.698  0.00  0.00    +0.000 C 
ENDBRANCH   1  13
TORSDOF 2
ENDMDL
MODEL 8
REMARK VINA RESULT:      -4.9      9.659     10.818
REMARK  Name = Methyprylon
REMARK  5 active torsions:
REMARK  status: ('A' for Active; 'I' for Inactive)
REMARK    1  A    between atoms: C_1  and  C_2
REMARK    2  A    between atoms: C_2  and  C_3
REMARK    3  A    between atoms: C_3  and  C_4
REMARK    4  A    between atoms: C_4  and  C_5
REMARK    5  A    between atoms: C_10  and  C_11
REMARK                            x       y       z     vdW  Elec       q    Type
REMARK                         _______ _______ _______ _____ _____    ______ ____
ROOT
ATOM      1  C   UNL     1      -7.869  -2.653 125.458  0.00  0.00    +0.000 C 
ATOM      2  C   UNL     1      -6.349  -2.741 125.320  0.00  0.00    +0.000 C 
ATOM      3  O   UNL     1      -5.757  -3.128 124.315  0.00  0.00    +0.000 OA
ATOM      4  N   UNL     1      -5.704  -2.029 126.316  0.00  0.00    +0.000 N 
ATOM      5  C   UNL     1      -6.062  -2.219 127.700  0.00  0.00    +0.000 C 
ATOM      6  C   UNL     1      -7.556  -2.136 127.968  0.00  0.00    +0.000 C 
ATOM      7  C   UNL     1      -7.896  -2.679 129.347  0.00  0.00    +0.000 C 
ATOM      8  C   UNL     1      -8.268  -2.934 126.908  0.00  0.00    +0.000 C 
ATOM      9  O   UNL     1      -9.170  -3.712 127.220  0.00  0.00    +0.000 OA
ATOM     10  H   UNL     1      -5.115  -1.255 126.020  0.00  0.00    +0.000 HD
ENDROOT
BRANCH   1  12
ATOM     11  C   UNL     1      -9.325  -0.509 125.745  0.00  0.00    +0.000 C 
ATOM     12  C   UNL     1      -8.109  -1.141 125.114  0.00  0.00    +0.000 C 
ENDBRANCH   1  12
BRANCH   1  13
ATOM     13  C   UNL     1      -8.676  -3.574 124.517  0.00  0.00    +0.000 C 
ATOM     14  C   UNL     1      -9.113  -2.932 123.200  0.00  0.00    +0.000 C 
ENDBRANCH   1  13
TORSDOF 2
ENDMDL
MODEL 9
REMARK VINA RESULT:      -4.7      9.950     11.019
REMARK  Name = Methyprylon
REMARK  5 active torsions:
REMARK  status: ('A' for Active; 'I' for Inactive)
REMARK    1  A    between atoms: C_1  and  C_2
REMARK    2  A    between atoms: C_2  and  C_3
REMARK    3  A    between atoms: C_3  and  C_4
REMARK    4  A    between atoms: C_4  and  C_5
REMARK    5  A    between atoms: C_10  and  C_11
REMARK                            x       y       z     vdW  Elec       q    Type
REMARK                         _______ _______ _______ _____ _____    ______ ____
ROOT
ATOM      1  C   UNL     1      -7.575  -2.134 124.193  0.00  0.00    +0.000 C 
ATOM      2  C   UNL     1      -6.863  -1.124 123.293  0.00  0.00    +0.000 C 
ATOM      3  O   UNL     1      -6.157  -1.418 122.331  0.00  0.00    +0.000 OA
ATOM      4  N   UNL     1      -7.363   0.154 123.466  0.00  0.00    +0.000 N 
ATOM      5  C   UNL     1      -7.495   0.715 124.788  0.00  0.00    +0.000 C 
ATOM      6  C   UNL     1      -8.206  -0.195 125.777  0.00  0.00    +0.000 C 
ATOM      7  C   UNL     1      -8.009   0.288 127.205  0.00  0.00    +0.000 C 
ATOM      8  C   UNL     1      -7.648  -1.585 125.619  0.00  0.00    +0.000 C 
ATOM      9  O   UNL     1      -7.343  -2.246 126.613  0.00  0.00    +0.000 OA
ATOM     10  H   UNL     1      -7.792   0.593 122.656  0.00  0.00    +0.000 HD
ENDROOT
BRANCH   1  12
ATOM     11  C   UNL     1      -9.664  -3.505 123.453  0.00  0.00    +0.000 C 
ATOM     12  C   UNL     1      -9.003  -2.153 123.546  0.00  0.00    +0.000 C 
ENDBRANCH   1  12
BRANCH   1  13
ATOM     13  C   UNL     1      -6.957  -3.550 124.222  0.00  0.00    +0.000 C 
ATOM     14  C   UNL     1      -5.429  -3.590 124.207  0.00  0.00    +0.000 C 
ENDBRANCH   1  13
TORSDOF 2
ENDMDL
