MODEL 1
REMARK VINA RESULT:      -5.0      0.000      0.000
REMARK  Name = Methyl nicotinate
REMARK  3 active torsions:
REMARK  status: ('A' for Active; 'I' for Inactive)
REMARK    1  A    between atoms: C_1  and  O_2
REMARK    2  A    between atoms: O_2  and  C_3
REMARK    3  A    between atoms: C_3  and  C_5
REMARK                            x       y       z     vdW  Elec       q    Type
REMARK                         _______ _______ _______ _____ _____    ______ ____
ROOT
ATOM      1  C   UNL     1     -11.991   7.202 129.538  0.00  0.00    +0.000 A 
ATOM      2  C   UNL     1     -12.697   6.624 128.490  0.00  0.00    +0.000 A 
ATOM      3  N   UNL     1     -12.440   6.860 127.176  0.00  0.00    +0.000 NA
ATOM      4  C   UNL     1     -11.418   7.698 126.898  0.00  0.00    +0.000 A 
ATOM      5  C   UNL     1     -10.652   8.319 127.873  0.00  0.00    +0.000 A 
ATOM      6  C   UNL     1     -10.946   8.069 129.218  0.00  0.00    +0.000 A 
ENDROOT
BRANCH   1   7
ATOM      7  C   UNL     1     -12.320   6.801 130.921  0.00  0.00    +0.000 C 
ATOM      8  O   UNL     1     -13.177   7.369 131.583  0.00  0.00    +0.000 OA
BRANCH   7  10
ATOM      9  C   UNL     1     -10.572   6.162 132.346  0.00  0.00    +0.000 C 
ATOM     10  O   UNL     1     -11.531   5.782 131.345  0.00  0.00    +0.000 OA
ENDBRANCH   7  10
ENDBRANCH   1   7
TORSDOF 2
ENDMDL
MODEL 2
REMARK VINA RESULT:      -4.9      2.512      3.912
REMARK  Name = Methyl nicotinate
REMARK  3 active torsions:
REMARK  status: ('A' for Active; 'I' for Inactive)
REMARK    1  A    between atoms: C_1  and  O_2
REMARK    2  A    between atoms: O_2  and  C_3
REMARK    3  A    between atoms: C_3  and  C_5
REMARK                            x       y       z     vdW  Elec       q    Type
REMARK                         _______ _______ _______ _____ _____    ______ ____
ROOT
ATOM      1  C   UNL     1     -11.358   7.661 129.705  0.00  0.00    +0.000 A 
ATOM      2  C   UNL     1     -12.392   7.305 130.562  0.00  0.00    +0.000 A 
ATOM      3  N   UNL     1     -12.222   6.592 131.707  0.00  0.00    +0.000 NA
ATOM      4  C   UNL     1     -10.957   6.238 132.020  0.00  0.00    +0.000 A 
ATOM      5  C   UNL     1      -9.859   6.551 131.232  0.00  0.00    +0.000 A 
ATOM      6  C   UNL     1     -10.064   7.273 130.052  0.00  0.00    +0.000 A 
ENDROOT
BRANCH   1   7
ATOM      7  C   UNL     1     -11.667   8.503 128.532  0.00  0.00    +0.000 C 
ATOM      8  O   UNL     1     -12.709   9.136 128.433  0.00  0.00    +0.000 OA
BRANCH   7  10
ATOM      9  C   UNL     1     -11.017   7.638 126.452  0.00  0.00    +0.000 C 
ATOM     10  O   UNL     1     -10.684   8.438 127.599  0.00  0.00    +0.000 OA
ENDBRANCH   7  10
ENDBRANCH   1   7
TORSDOF 2
ENDMDL
MODEL 3
REMARK VINA RESULT:      -4.7      1.890      2.370
REMARK  Name = Methyl nicotinate
REMARK  3 active torsions:
REMARK  status: ('A' for Active; 'I' for Inactive)
REMARK    1  A    between atoms: C_1  and  O_2
REMARK    2  A    between atoms: O_2  and  C_3
REMARK    3  A    between atoms: C_3  and  C_5
REMARK                            x       y       z     vdW  Elec       q    Type
REMARK                         _______ _______ _______ _____ _____    ______ ____
ROOT
ATOM      1  C   UNL     1     -10.335   7.238 129.575  0.00  0.00    +0.000 A 
ATOM      2  C   UNL     1     -11.386   6.329 129.599  0.00  0.00    +0.000 A 
ATOM      3  N   UNL     1     -12.397   6.307 128.691  0.00  0.00    +0.000 NA
ATOM      4  C   UNL     1     -12.344   7.224 127.701  0.00  0.00    +0.000 A 
ATOM      5  C   UNL     1     -11.335   8.170 127.588  0.00  0.00    +0.000 A 
ATOM      6  C   UNL     1     -10.315   8.179 128.544  0.00  0.00    +0.000 A 
ENDROOT
BRANCH   1   7
ATOM      7  C   UNL     1      -9.258   7.106 130.576  0.00  0.00    +0.000 C 
ATOM      8  O   UNL     1      -8.088   7.350 130.319  0.00  0.00    +0.000 OA
BRANCH   7  10
ATOM      9  C   UNL     1      -8.754   5.970 132.564  0.00  0.00    +0.000 C 
ATOM     10  O   UNL     1      -9.734   6.649 131.762  0.00  0.00    +0.000 OA
ENDBRANCH   7  10
ENDBRANCH   1   7
TORSDOF 2
ENDMDL
MODEL 4
REMARK VINA RESULT:      -4.7      2.190      3.728
REMARK  Name = Methyl nicotinate
REMARK  3 active torsions:
REMARK  status: ('A' for Active; 'I' for Inactive)
REMARK    1  A    between atoms: C_1  and  O_2
REMARK    2  A    between atoms: O_2  and  C_3
REMARK    3  A    between atoms: C_3  and  C_5
REMARK                            x       y       z     vdW  Elec       q    Type
REMARK                         _______ _______ _______ _____ _____    ______ ____
ROOT
ATOM      1  C   UNL     1     -10.768   6.696 131.014  0.00  0.00    +0.000 A 
ATOM      2  C   UNL     1      -9.895   7.251 130.087  0.00  0.00    +0.000 A 
ATOM      3  N   UNL     1      -8.542   7.252 130.220  0.00  0.00    +0.000 NA
ATOM      4  C   UNL     1      -8.039   6.654 131.321  0.00  0.00    +0.000 A 
ATOM      5  C   UNL     1      -8.829   6.067 132.300  0.00  0.00    +0.000 A 
ATOM      6  C   UNL     1     -10.218   6.092 132.145  0.00  0.00    +0.000 A 
ENDROOT
BRANCH   1   7
ATOM      7  C   UNL     1     -12.214   6.692 130.713  0.00  0.00    +0.000 C 
ATOM      8  O   UNL     1     -13.054   7.064 131.520  0.00  0.00    +0.000 OA
BRANCH   7  10
ATOM      9  C   UNL     1     -13.367   6.995 128.695  0.00  0.00    +0.000 C 
ATOM     10  O   UNL     1     -12.464   6.195 129.476  0.00  0.00    +0.000 OA
ENDBRANCH   7  10
ENDBRANCH   1   7
TORSDOF 2
ENDMDL
MODEL 5
REMARK VINA RESULT:      -4.5      2.125      2.736
REMARK  Name = Methyl nicotinate
REMARK  3 active torsions:
REMARK  status: ('A' for Active; 'I' for Inactive)
REMARK    1  A    between atoms: C_1  and  O_2
REMARK    2  A    between atoms: O_2  and  C_3
REMARK    3  A    between atoms: C_3  and  C_5
REMARK                            x       y       z     vdW  Elec       q    Type
REMARK                         _______ _______ _______ _____ _____    ______ ____
ROOT
ATOM      1  C   UNL     1     -10.657   7.350 129.928  0.00  0.00    +0.000 A 
ATOM      2  C   UNL     1     -10.342   8.045 128.766  0.00  0.00    +0.000 A 
ATOM      3  N   UNL     1     -11.264   8.522 127.889  0.00  0.00    +0.000 NA
ATOM      4  C   UNL     1     -12.562   8.312 128.198  0.00  0.00    +0.000 A 
ATOM      5  C   UNL     1     -12.977   7.635 129.336  0.00  0.00    +0.000 A 
ATOM      6  C   UNL     1     -12.007   7.142 130.214  0.00  0.00    +0.000 A 
ENDROOT
BRANCH   1   7
ATOM      7  C   UNL     1      -9.563   6.952 130.836  0.00  0.00    +0.000 C 
ATOM      8  O   UNL     1      -9.765   6.559 131.976  0.00  0.00    +0.000 OA
BRANCH   7  10
ATOM      9  C   UNL     1      -7.239   6.852 131.130  0.00  0.00    +0.000 C 
ATOM     10  O   UNL     1      -8.348   7.123 130.256  0.00  0.00    +0.000 OA
ENDBRANCH   7  10
ENDBRANCH   1   7
TORSDOF 2
ENDMDL
MODEL 6
REMARK VINA RESULT:      -4.5      2.613      3.895
REMARK  Name = Methyl nicotinate
REMARK  3 active torsions:
REMARK  status: ('A' for Active; 'I' for Inactive)
REMARK    1  A    between atoms: C_1  and  O_2
REMARK    2  A    between atoms: O_2  and  C_3
REMARK    3  A    between atoms: C_3  and  C_5
REMARK                            x       y       z     vdW  Elec       q    Type
REMARK                         _______ _______ _______ _____ _____    ______ ____
ROOT
ATOM      1  C   UNL     1     -11.024   6.770 130.409  0.00  0.00    +0.000 A 
ATOM      2  C   UNL     1     -11.183   6.326 131.716  0.00  0.00    +0.000 A 
ATOM      3  N   UNL     1     -10.155   6.114 132.580  0.00  0.00    +0.000 NA
ATOM      4  C   UNL     1      -8.912   6.377 132.121  0.00  0.00    +0.000 A 
ATOM      5  C   UNL     1      -8.652   6.829 130.835  0.00  0.00    +0.000 A 
ATOM      6  C   UNL     1      -9.727   7.025 129.963  0.00  0.00    +0.000 A 
ENDROOT
BRANCH   1   7
ATOM      7  C   UNL     1     -12.230   7.034 129.598  0.00  0.00    +0.000 C 
ATOM      8  O   UNL     1     -12.655   6.236 128.774  0.00  0.00    +0.000 OA
BRANCH   7  10
ATOM      9  C   UNL     1     -12.974   9.062 128.688  0.00  0.00    +0.000 C 
ATOM     10  O   UNL     1     -12.747   8.260 129.859  0.00  0.00    +0.000 OA
ENDBRANCH   7  10
ENDBRANCH   1   7
TORSDOF 2
ENDMDL
MODEL 7
REMARK VINA RESULT:      -4.4      1.834      2.394
REMARK  Name = Methyl nicotinate
REMARK  3 active torsions:
REMARK  status: ('A' for Active; 'I' for Inactive)
REMARK    1  A    between atoms: C_1  and  O_2
REMARK    2  A    between atoms: O_2  and  C_3
REMARK    3  A    between atoms: C_3  and  C_5
REMARK                            x       y       z     vdW  Elec       q    Type
REMARK                         _______ _______ _______ _____ _____    ______ ____
ROOT
ATOM      1  C   UNL     1     -10.981   7.066 130.392  0.00  0.00    +0.000 A 
ATOM      2  C   UNL     1     -10.189   7.563 129.364  0.00  0.00    +0.000 A 
ATOM      3  N   UNL     1     -10.634   8.414 128.402  0.00  0.00    +0.000 NA
ATOM      4  C   UNL     1     -11.925   8.801 128.483  0.00  0.00    +0.000 A 
ATOM      5  C   UNL     1     -12.793   8.365 129.474  0.00  0.00    +0.000 A 
ATOM      6  C   UNL     1     -12.313   7.479 130.443  0.00  0.00    +0.000 A 
ENDROOT
BRANCH   1   7
ATOM      7  C   UNL     1     -10.355   6.209 131.419  0.00  0.00    +0.000 C 
ATOM      8  O   UNL     1     -10.423   6.460 132.614  0.00  0.00    +0.000 OA
BRANCH   7  10
ATOM      9  C   UNL     1     -10.501   4.015 130.607  0.00  0.00    +0.000 C 
ATOM     10  O   UNL     1      -9.685   5.171 130.860  0.00  0.00    +0.000 OA
ENDBRANCH   7  10
ENDBRANCH   1   7
TORSDOF 2
ENDMDL
MODEL 8
REMARK VINA RESULT:      -4.3      2.684      3.570
REMARK  Name = Methyl nicotinate
REMARK  3 active torsions:
REMARK  status: ('A' for Active; 'I' for Inactive)
REMARK    1  A    between atoms: C_1  and  O_2
REMARK    2  A    between atoms: O_2  and  C_3
REMARK    3  A    between atoms: C_3  and  C_5
REMARK                            x       y       z     vdW  Elec       q    Type
REMARK                         _______ _______ _______ _____ _____    ______ ____
ROOT
ATOM      1  C   UNL     1     -10.228   6.838 130.834  0.00  0.00    +0.000 A 
ATOM      2  C   UNL     1     -11.236   6.476 131.719  0.00  0.00    +0.000 A 
ATOM      3  N   UNL     1     -12.541   6.830 131.576  0.00  0.00    +0.000 NA
ATOM      4  C   UNL     1     -12.855   7.563 130.486  0.00  0.00    +0.000 A 
ATOM      5  C   UNL     1     -11.922   7.969 129.543  0.00  0.00    +0.000 A 
ATOM      6  C   UNL     1     -10.584   7.602 129.722  0.00  0.00    +0.000 A 
ENDROOT
BRANCH   1   7
ATOM      7  C   UNL     1      -8.863   6.323 131.063  0.00  0.00    +0.000 C 
ATOM      8  O   UNL     1      -8.648   5.268 131.643  0.00  0.00    +0.000 OA
BRANCH   7  10
ATOM      9  C   UNL     1      -6.607   6.955 131.126  0.00  0.00    +0.000 C 
ATOM     10  O   UNL     1      -7.922   7.179 130.592  0.00  0.00    +0.000 OA
ENDBRANCH   7  10
ENDBRANCH   1   7
TORSDOF 2
ENDMDL
MODEL 9
REMARK VINA RESULT:      -4.1     10.462     11.379
REMARK  Name = Methyl nicotinate
REMARK  3 active torsions:
REMARK  status: ('A' for Active; 'I' for Inactive)
REMARK    1  A    between atoms: C_1  and  O_2
REMARK    2  A    between atoms: O_2  and  C_3
REMARK    3  A    between atoms: C_3  and  C_5
REMARK                            x       y       z     vdW  Elec       q    Type
REMARK                         _______ _______ _______ _____ _____    ______ ____
ROOT
ATOM      1  C   UNL     1      -8.562  -2.362 126.558  0.00  0.00    +0.000 A 
ATOM      2  C   UNL     1      -7.851  -1.552 127.436  0.00  0.00    +0.000 A 
ATOM      3  N   UNL     1      -7.609  -1.866 128.736  0.00  0.00    +0.000 NA
ATOM      4  C   UNL     1      -8.083  -3.053 129.173  0.00  0.00    +0.000 A 
ATOM      5  C   UNL     1      -8.799  -3.931 128.372  0.00  0.00    +0.000 A 
ATOM      6  C   UNL     1      -9.045  -3.577 127.042  0.00  0.00    +0.000 A 
ENDROOT
BRANCH   1   7
ATOM      7  C   UNL     1      -8.688  -1.940 125.148  0.00  0.00    +0.000 C 
ATOM      8  O   UNL     1      -7.938  -1.120 124.638  0.00  0.00    +0.000 OA
BRANCH   7  10
ATOM      9  C   UNL     1      -9.419  -3.174 123.294  0.00  0.00    +0.000 C 
ATOM     10  O   UNL     1      -9.744  -2.539 124.542  0.00  0.00    +0.000 OA
ENDBRANCH   7  10
ENDBRANCH   1   7
TORSDOF 2
ENDMDL
