MODEL 1
REMARK VINA RESULT:      -6.9      0.000      0.000
REMARK  Name = Methdilazine
REMARK  3 active torsions:
REMARK  status: ('A' for Active; 'I' for Inactive)
REMARK    1  A    between atoms: C_1  and  N_2
REMARK    2  A    between atoms: C_5  and  C_6
REMARK    3  A    between atoms: C_6  and  N_7
REMARK                            x       y       z     vdW  Elec       q    Type
REMARK                         _______ _______ _______ _____ _____    ______ ____
ROOT
ATOM      1  N   UNL     1      -8.068  -1.849 126.715  0.00  0.00    +0.000 N 
ATOM      2  C   UNL     1      -8.269  -0.488 126.366  0.00  0.00    +0.000 A 
ATOM      3  C   UNL     1      -9.459  -0.026 125.826  0.00  0.00    +0.000 A 
ATOM      4  C   UNL     1      -9.521   1.177 125.134  0.00  0.00    +0.000 A 
ATOM      5  C   UNL     1      -8.505   2.105 125.270  0.00  0.00    +0.000 A 
ATOM      6  C   UNL     1      -7.435   1.791 126.091  0.00  0.00    +0.000 A 
ATOM      7  C   UNL     1      -7.285   0.495 126.605  0.00  0.00    +0.000 A 
ATOM      8  S   UNL     1      -5.888   0.115 127.643  0.00  0.00    +0.000 S 
ATOM      9  C   UNL     1      -6.645  -1.194 128.614  0.00  0.00    +0.000 A 
ATOM     10  C   UNL     1      -6.324  -1.268 129.973  0.00  0.00    +0.000 A 
ATOM     11  C   UNL     1      -6.885  -2.261 130.773  0.00  0.00    +0.000 A 
ATOM     12  C   UNL     1      -7.759  -3.187 130.215  0.00  0.00    +0.000 A 
ATOM     13  C   UNL     1      -8.105  -3.101 128.867  0.00  0.00    +0.000 A 
ATOM     14  C   UNL     1      -7.584  -2.092 128.039  0.00  0.00    +0.000 A 
ENDROOT
BRANCH   1  15
ATOM     15  C   UNL     1      -8.988  -2.875 126.129  0.00  0.00    +0.000 C 
BRANCH  15  20
ATOM     16  C   UNL     1      -6.445  -1.437 122.816  0.00  0.00    +0.000 C 
ATOM     17  N   UNL     1      -7.513  -2.091 123.544  0.00  0.00    +0.000 NA
ATOM     18  C   UNL     1      -8.633  -2.488 122.706  0.00  0.00    +0.000 C 
ATOM     19  C   UNL     1      -9.476  -3.317 123.684  0.00  0.00    +0.000 C 
ATOM     20  C   UNL     1      -8.525  -3.675 124.865  0.00  0.00    +0.000 C 
ATOM     21  C   UNL     1      -7.176  -3.346 124.227  0.00  0.00    +0.000 C 
ENDBRANCH  15  20
ENDBRANCH   1  15
TORSDOF 2
ENDMDL
MODEL 2
REMARK VINA RESULT:      -6.8      1.902      4.285
REMARK  Name = Methdilazine
REMARK  3 active torsions:
REMARK  status: ('A' for Active; 'I' for Inactive)
REMARK    1  A    between atoms: C_1  and  N_2
REMARK    2  A    between atoms: C_5  and  C_6
REMARK    3  A    between atoms: C_6  and  N_7
REMARK                            x       y       z     vdW  Elec       q    Type
REMARK                         _______ _______ _______ _____ _____    ______ ____
ROOT
ATOM      1  N   UNL     1      -7.094  -0.799 126.245  0.00  0.00    +0.000 N 
ATOM      2  C   UNL     1      -7.232  -1.430 124.980  0.00  0.00    +0.000 A 
ATOM      3  C   UNL     1      -6.263  -1.339 123.993  0.00  0.00    +0.000 A 
ATOM      4  C   UNL     1      -6.558  -1.606 122.662  0.00  0.00    +0.000 A 
ATOM      5  C   UNL     1      -7.707  -2.304 122.335  0.00  0.00    +0.000 A 
ATOM      6  C   UNL     1      -8.544  -2.706 123.363  0.00  0.00    +0.000 A 
ATOM      7  C   UNL     1      -8.343  -2.242 124.671  0.00  0.00    +0.000 A 
ATOM      8  S   UNL     1      -9.450  -2.760 125.968  0.00  0.00    +0.000 S 
ATOM      9  C   UNL     1      -8.296  -2.645 127.341  0.00  0.00    +0.000 A 
ATOM     10  C   UNL     1      -8.374  -3.619 128.343  0.00  0.00    +0.000 A 
ATOM     11  C   UNL     1      -7.502  -3.580 129.428  0.00  0.00    +0.000 A 
ATOM     12  C   UNL     1      -6.559  -2.562 129.522  0.00  0.00    +0.000 A 
ATOM     13  C   UNL     1      -6.459  -1.604 128.513  0.00  0.00    +0.000 A 
ATOM     14  C   UNL     1      -7.300  -1.633 127.387  0.00  0.00    +0.000 A 
ENDROOT
BRANCH   1  15
ATOM     15  C   UNL     1      -6.092   0.305 126.380  0.00  0.00    +0.000 C 
BRANCH  15  20
ATOM     16  C   UNL     1      -8.452   2.378 123.276  0.00  0.00    +0.000 C 
ATOM     17  N   UNL     1      -7.453   2.106 124.289  0.00  0.00    +0.000 NA
ATOM     18  C   UNL     1      -6.353   3.056 124.294  0.00  0.00    +0.000 C 
ATOM     19  C   UNL     1      -5.595   2.650 125.565  0.00  0.00    +0.000 C 
ATOM     20  C   UNL     1      -6.593   1.788 126.395  0.00  0.00    +0.000 C 
ATOM     21  C   UNL     1      -7.900   2.140 125.686  0.00  0.00    +0.000 C 
ENDBRANCH  15  20
ENDBRANCH   1  15
TORSDOF 2
ENDMDL
MODEL 3
REMARK VINA RESULT:      -6.6      1.920      5.260
REMARK  Name = Methdilazine
REMARK  3 active torsions:
REMARK  status: ('A' for Active; 'I' for Inactive)
REMARK    1  A    between atoms: C_1  and  N_2
REMARK    2  A    between atoms: C_5  and  C_6
REMARK    3  A    between atoms: C_6  and  N_7
REMARK                            x       y       z     vdW  Elec       q    Type
REMARK                         _______ _______ _______ _____ _____    ______ ____
ROOT
ATOM      1  N   UNL     1      -7.390  -0.801 126.524  0.00  0.00    +0.000 N 
ATOM      2  C   UNL     1      -6.655   0.322 126.059  0.00  0.00    +0.000 A 
ATOM      3  C   UNL     1      -5.329   0.538 126.401  0.00  0.00    +0.000 A 
ATOM      4  C   UNL     1      -4.746   1.793 126.284  0.00  0.00    +0.000 A 
ATOM      5  C   UNL     1      -5.346   2.763 125.501  0.00  0.00    +0.000 A 
ATOM      6  C   UNL     1      -6.535   2.449 124.864  0.00  0.00    +0.000 A 
ATOM      7  C   UNL     1      -7.215   1.260 125.166  0.00  0.00    +0.000 A 
ATOM      8  S   UNL     1      -8.753   0.892 124.345  0.00  0.00    +0.000 S 
ATOM      9  C   UNL     1      -8.650  -0.901 124.413  0.00  0.00    +0.000 A 
ATOM     10  C   UNL     1      -9.117  -1.624 123.310  0.00  0.00    +0.000 A 
ATOM     11  C   UNL     1      -9.058  -3.015 123.308  0.00  0.00    +0.000 A 
ATOM     12  C   UNL     1      -8.543  -3.688 124.411  0.00  0.00    +0.000 A 
ATOM     13  C   UNL     1      -8.052  -2.972 125.502  0.00  0.00    +0.000 A 
ATOM     14  C   UNL     1      -8.065  -1.566 125.523  0.00  0.00    +0.000 A 
ENDROOT
BRANCH   1  15
ATOM     15  C   UNL     1      -6.868  -1.545 127.714  0.00  0.00    +0.000 C 
BRANCH  15  20
ATOM     16  C   UNL     1      -5.458  -2.020 131.873  0.00  0.00    +0.000 C 
ATOM     17  N   UNL     1      -6.239  -2.169 130.661  0.00  0.00    +0.000 NA
ATOM     18  C   UNL     1      -7.130  -3.317 130.677  0.00  0.00    +0.000 C 
ATOM     19  C   UNL     1      -7.949  -3.095 129.399  0.00  0.00    +0.000 C 
ATOM     20  C   UNL     1      -7.737  -1.600 129.015  0.00  0.00    +0.000 C 
ATOM     21  C   UNL     1      -7.153  -1.071 130.324  0.00  0.00    +0.000 C 
ENDBRANCH  15  20
ENDBRANCH   1  15
TORSDOF 2
ENDMDL
MODEL 4
REMARK VINA RESULT:      -6.5      2.067      4.689
REMARK  Name = Methdilazine
REMARK  3 active torsions:
REMARK  status: ('A' for Active; 'I' for Inactive)
REMARK    1  A    between atoms: C_1  and  N_2
REMARK    2  A    between atoms: C_5  and  C_6
REMARK    3  A    between atoms: C_6  and  N_7
REMARK                            x       y       z     vdW  Elec       q    Type
REMARK                         _______ _______ _______ _____ _____    ______ ____
ROOT
ATOM      1  N   UNL     1      -6.537  -1.082 126.106  0.00  0.00    +0.000 N 
ATOM      2  C   UNL     1      -6.886  -1.634 124.845  0.00  0.00    +0.000 A 
ATOM      3  C   UNL     1      -5.964  -1.797 123.823  0.00  0.00    +0.000 A 
ATOM      4  C   UNL     1      -6.367  -1.954 122.503  0.00  0.00    +0.000 A 
ATOM      5  C   UNL     1      -7.673  -2.306 122.216  0.00  0.00    +0.000 A 
ATOM      6  C   UNL     1      -8.553  -2.478 123.272  0.00  0.00    +0.000 A 
ATOM      7  C   UNL     1      -8.187  -2.105 124.574  0.00  0.00    +0.000 A 
ATOM      8  S   UNL     1      -9.348  -2.319 125.909  0.00  0.00    +0.000 S 
ATOM      9  C   UNL     1      -8.160  -2.544 127.239  0.00  0.00    +0.000 A 
ATOM     10  C   UNL     1      -8.467  -3.474 128.239  0.00  0.00    +0.000 A 
ATOM     11  C   UNL     1      -7.581  -3.690 129.291  0.00  0.00    +0.000 A 
ATOM     12  C   UNL     1      -6.392  -2.971 129.354  0.00  0.00    +0.000 A 
ATOM     13  C   UNL     1      -6.068  -2.063 128.346  0.00  0.00    +0.000 A 
ATOM     14  C   UNL     1      -6.924  -1.845 127.252  0.00  0.00    +0.000 A 
ENDROOT
BRANCH   1  15
ATOM     15  C   UNL     1      -5.266  -0.297 126.209  0.00  0.00    +0.000 C 
BRANCH  15  20
ATOM     16  C   UNL     1      -6.444   2.036 129.770  0.00  0.00    +0.000 C 
ATOM     17  N   UNL     1      -6.327   1.590 128.396  0.00  0.00    +0.000 NA
ATOM     18  C   UNL     1      -7.321   2.168 127.508  0.00  0.00    +0.000 C 
ATOM     19  C   UNL     1      -6.826   1.696 126.135  0.00  0.00    +0.000 C 
ATOM     20  C   UNL     1      -5.345   1.260 126.346  0.00  0.00    +0.000 C 
ATOM     21  C   UNL     1      -5.071   1.905 127.704  0.00  0.00    +0.000 C 
ENDBRANCH  15  20
ENDBRANCH   1  15
TORSDOF 2
ENDMDL
MODEL 5
REMARK VINA RESULT:      -6.5      2.152      4.344
REMARK  Name = Methdilazine
REMARK  3 active torsions:
REMARK  status: ('A' for Active; 'I' for Inactive)
REMARK    1  A    between atoms: C_1  and  N_2
REMARK    2  A    between atoms: C_5  and  C_6
REMARK    3  A    between atoms: C_6  and  N_7
REMARK                            x       y       z     vdW  Elec       q    Type
REMARK                         _______ _______ _______ _____ _____    ______ ____
ROOT
ATOM      1  N   UNL     1      -6.252  -1.574 127.593  0.00  0.00    +0.000 N 
ATOM      2  C   UNL     1      -7.173  -2.194 126.708  0.00  0.00    +0.000 A 
ATOM      3  C   UNL     1      -7.000  -2.194 125.332  0.00  0.00    +0.000 A 
ATOM      4  C   UNL     1      -8.060  -2.437 124.469  0.00  0.00    +0.000 A 
ATOM      5  C   UNL     1      -9.216  -3.029 124.945  0.00  0.00    +0.000 A 
ATOM      6  C   UNL     1      -9.283  -3.351 126.290  0.00  0.00    +0.000 A 
ATOM      7  C   UNL     1      -8.297  -2.903 127.181  0.00  0.00    +0.000 A 
ATOM      8  S   UNL     1      -8.420  -3.315 128.910  0.00  0.00    +0.000 S 
ATOM      9  C   UNL     1      -6.665  -3.301 129.297  0.00  0.00    +0.000 A 
ATOM     10  C   UNL     1      -6.186  -4.260 130.195  0.00  0.00    +0.000 A 
ATOM     11  C   UNL     1      -4.835  -4.296 130.528  0.00  0.00    +0.000 A 
ATOM     12  C   UNL     1      -3.960  -3.368 129.973  0.00  0.00    +0.000 A 
ATOM     13  C   UNL     1      -4.427  -2.426 129.056  0.00  0.00    +0.000 A 
ATOM     14  C   UNL     1      -5.779  -2.383 128.672  0.00  0.00    +0.000 A 
ENDROOT
BRANCH   1  15
ATOM     15  C   UNL     1      -5.299  -0.565 127.031  0.00  0.00    +0.000 C 
BRANCH  15  20
ATOM     16  C   UNL     1      -8.432   1.962 125.211  0.00  0.00    +0.000 C 
ATOM     17  N   UNL     1      -7.152   1.515 125.722  0.00  0.00    +0.000 NA
ATOM     18  C   UNL     1      -6.034   2.346 125.305  0.00  0.00    +0.000 C 
ATOM     19  C   UNL     1      -4.887   1.772 126.147  0.00  0.00    +0.000 C 
ATOM     20  C   UNL     1      -5.566   0.956 127.288  0.00  0.00    +0.000 C 
ATOM     21  C   UNL     1      -6.994   1.491 127.181  0.00  0.00    +0.000 C 
ENDBRANCH  15  20
ENDBRANCH   1  15
TORSDOF 2
ENDMDL
MODEL 6
REMARK VINA RESULT:      -6.3      2.583      5.330
REMARK  Name = Methdilazine
REMARK  3 active torsions:
REMARK  status: ('A' for Active; 'I' for Inactive)
REMARK    1  A    between atoms: C_1  and  N_2
REMARK    2  A    between atoms: C_5  and  C_6
REMARK    3  A    between atoms: C_6  and  N_7
REMARK                            x       y       z     vdW  Elec       q    Type
REMARK                         _______ _______ _______ _____ _____    ______ ____
ROOT
ATOM      1  N   UNL     1      -7.439  -2.090 129.244  0.00  0.00    +0.000 N 
ATOM      2  C   UNL     1      -7.918  -2.206 127.912  0.00  0.00    +0.000 A 
ATOM      3  C   UNL     1      -8.620  -3.316 127.468  0.00  0.00    +0.000 A 
ATOM      4  C   UNL     1      -8.736  -3.606 126.115  0.00  0.00    +0.000 A 
ATOM      5  C   UNL     1      -8.471  -2.627 125.174  0.00  0.00    +0.000 A 
ATOM      6  C   UNL     1      -8.078  -1.376 125.621  0.00  0.00    +0.000 A 
ATOM      7  C   UNL     1      -7.759  -1.168 126.971  0.00  0.00    +0.000 A 
ATOM      8  S   UNL     1      -7.236   0.447 127.513  0.00  0.00    +0.000 S 
ATOM      9  C   UNL     1      -7.820   0.342 129.210  0.00  0.00    +0.000 A 
ATOM     10  C   UNL     1      -8.364   1.495 129.786  0.00  0.00    +0.000 A 
ATOM     11  C   UNL     1      -8.834   1.468 131.096  0.00  0.00    +0.000 A 
ATOM     12  C   UNL     1      -8.751   0.295 131.838  0.00  0.00    +0.000 A 
ATOM     13  C   UNL     1      -8.235  -0.864 131.260  0.00  0.00    +0.000 A 
ATOM     14  C   UNL     1      -7.782  -0.883 129.929  0.00  0.00    +0.000 A 
ENDROOT
BRANCH   1  15
ATOM     15  C   UNL     1      -7.332  -3.334 130.070  0.00  0.00    +0.000 C 
BRANCH  15  20
ATOM     16  C   UNL     1      -4.180  -2.836 133.124  0.00  0.00    +0.000 C 
ATOM     17  N   UNL     1      -4.840  -2.998 131.844  0.00  0.00    +0.000 NA
ATOM     18  C   UNL     1      -3.988  -2.696 130.706  0.00  0.00    +0.000 C 
ATOM     19  C   UNL     1      -4.865  -3.150 129.531  0.00  0.00    +0.000 C 
ATOM     20  C   UNL     1      -5.955  -4.075 130.150  0.00  0.00    +0.000 C 
ATOM     21  C   UNL     1      -5.330  -4.342 131.518  0.00  0.00    +0.000 C 
ENDBRANCH  15  20
ENDBRANCH   1  15
TORSDOF 2
ENDMDL
MODEL 7
REMARK VINA RESULT:      -6.2      2.701      5.559
REMARK  Name = Methdilazine
REMARK  3 active torsions:
REMARK  status: ('A' for Active; 'I' for Inactive)
REMARK    1  A    between atoms: C_1  and  N_2
REMARK    2  A    between atoms: C_5  and  C_6
REMARK    3  A    between atoms: C_6  and  N_7
REMARK                            x       y       z     vdW  Elec       q    Type
REMARK                         _______ _______ _______ _____ _____    ______ ____
ROOT
ATOM      1  N   UNL     1      -8.143   0.370 125.796  0.00  0.00    +0.000 N 
ATOM      2  C   UNL     1      -7.570   1.281 124.870  0.00  0.00    +0.000 A 
ATOM      3  C   UNL     1      -6.373   1.936 125.113  0.00  0.00    +0.000 A 
ATOM      4  C   UNL     1      -6.023   3.088 124.420  0.00  0.00    +0.000 A 
ATOM      5  C   UNL     1      -6.672   3.408 123.241  0.00  0.00    +0.000 A 
ATOM      6  C   UNL     1      -7.674   2.563 122.793  0.00  0.00    +0.000 A 
ATOM      7  C   UNL     1      -8.158   1.531 123.612  0.00  0.00    +0.000 A 
ATOM      8  S   UNL     1      -9.462   0.473 123.017  0.00  0.00    +0.000 S 
ATOM      9  C   UNL     1      -9.037  -0.999 123.956  0.00  0.00    +0.000 A 
ATOM     10  C   UNL     1      -9.193  -2.241 123.330  0.00  0.00    +0.000 A 
ATOM     11  C   UNL     1      -8.876  -3.413 124.011  0.00  0.00    +0.000 A 
ATOM     12  C   UNL     1      -8.413  -3.350 125.321  0.00  0.00    +0.000 A 
ATOM     13  C   UNL     1      -8.230  -2.114 125.940  0.00  0.00    +0.000 A 
ATOM     14  C   UNL     1      -8.508  -0.909 125.272  0.00  0.00    +0.000 A 
ENDROOT
BRANCH   1  15
ATOM     15  C   UNL     1      -7.672   0.413 127.216  0.00  0.00    +0.000 C 
BRANCH  15  20
ATOM     16  C   UNL     1      -6.068   4.011 129.215  0.00  0.00    +0.000 C 
ATOM     17  N   UNL     1      -6.761   2.759 128.988  0.00  0.00    +0.000 NA
ATOM     18  C   UNL     1      -7.125   2.063 130.211  0.00  0.00    +0.000 C 
ATOM     19  C   UNL     1      -8.003   0.925 129.674  0.00  0.00    +0.000 C 
ATOM     20  C   UNL     1      -8.410   1.350 128.231  0.00  0.00    +0.000 C 
ATOM     21  C   UNL     1      -8.044   2.833 128.279  0.00  0.00    +0.000 C 
ENDBRANCH  15  20
ENDBRANCH   1  15
TORSDOF 2
ENDMDL
MODEL 8
REMARK VINA RESULT:      -6.0      1.860      4.983
REMARK  Name = Methdilazine
REMARK  3 active torsions:
REMARK  status: ('A' for Active; 'I' for Inactive)
REMARK    1  A    between atoms: C_1  and  N_2
REMARK    2  A    between atoms: C_5  and  C_6
REMARK    3  A    between atoms: C_6  and  N_7
REMARK                            x       y       z     vdW  Elec       q    Type
REMARK                         _______ _______ _______ _____ _____    ______ ____
ROOT
ATOM      1  N   UNL     1      -7.601  -1.285 127.154  0.00  0.00    +0.000 N 
ATOM      2  C   UNL     1      -8.145  -1.697 125.909  0.00  0.00    +0.000 A 
ATOM      3  C   UNL     1      -9.142  -2.655 125.813  0.00  0.00    +0.000 A 
ATOM      4  C   UNL     1      -9.387  -3.330 124.624  0.00  0.00    +0.000 A 
ATOM      5  C   UNL     1      -8.899  -2.826 123.431  0.00  0.00    +0.000 A 
ATOM      6  C   UNL     1      -8.160  -1.655 123.467  0.00  0.00    +0.000 A 
ATOM      7  C   UNL     1      -7.743  -1.111 124.690  0.00  0.00    +0.000 A 
ATOM      8  S   UNL     1      -6.775   0.385 124.704  0.00  0.00    +0.000 S 
ATOM      9  C   UNL     1      -7.298   1.007 126.307  0.00  0.00    +0.000 A 
ATOM     10  C   UNL     1      -7.481   2.387 126.445  0.00  0.00    +0.000 A 
ATOM     11  C   UNL     1      -7.888   2.921 127.665  0.00  0.00    +0.000 A 
ATOM     12  C   UNL     1      -8.102   2.081 128.752  0.00  0.00    +0.000 A 
ATOM     13  C   UNL     1      -7.948   0.702 128.613  0.00  0.00    +0.000 A 
ATOM     14  C   UNL     1      -7.571   0.125 127.388  0.00  0.00    +0.000 A 
ENDROOT
BRANCH   1  15
ATOM     15  C   UNL     1      -7.807  -2.168 128.345  0.00  0.00    +0.000 C 
BRANCH  15  20
ATOM     16  C   UNL     1      -5.224  -1.876 131.916  0.00  0.00    +0.000 C 
ATOM     17  N   UNL     1      -5.662  -2.080 130.550  0.00  0.00    +0.000 NA
ATOM     18  C   UNL     1      -4.575  -2.107 129.585  0.00  0.00    +0.000 C 
ATOM     19  C   UNL     1      -5.303  -2.539 128.306  0.00  0.00    +0.000 C 
ATOM     20  C   UNL     1      -6.660  -3.143 128.775  0.00  0.00    +0.000 C 
ATOM     21  C   UNL     1      -6.364  -3.336 130.261  0.00  0.00    +0.000 C 
ENDBRANCH  15  20
ENDBRANCH   1  15
TORSDOF 2
ENDMDL
MODEL 9
REMARK VINA RESULT:      -6.0      2.269      3.302
REMARK  Name = Methdilazine
REMARK  3 active torsions:
REMARK  status: ('A' for Active; 'I' for Inactive)
REMARK    1  A    between atoms: C_1  and  N_2
REMARK    2  A    between atoms: C_5  and  C_6
REMARK    3  A    between atoms: C_6  and  N_7
REMARK                            x       y       z     vdW  Elec       q    Type
REMARK                         _______ _______ _______ _____ _____    ______ ____
ROOT
ATOM      1  N   UNL     1      -8.007   0.836 125.804  0.00  0.00    +0.000 N 
ATOM      2  C   UNL     1      -8.052   1.710 124.686  0.00  0.00    +0.000 A 
ATOM      3  C   UNL     1      -9.161   1.805 123.859  0.00  0.00    +0.000 A 
ATOM      4  C   UNL     1      -9.067   2.336 122.579  0.00  0.00    +0.000 A 
ATOM      5  C   UNL     1      -7.969   3.101 122.228  0.00  0.00    +0.000 A 
ATOM      6  C   UNL     1      -6.978   3.301 123.176  0.00  0.00    +0.000 A 
ATOM      7  C   UNL     1      -6.986   2.582 124.380  0.00  0.00    +0.000 A 
ATOM      8  S   UNL     1      -5.687   2.844 125.570  0.00  0.00    +0.000 S 
ATOM      9  C   UNL     1      -6.621   2.442 127.053  0.00  0.00    +0.000 A 
ATOM     10  C   UNL     1      -6.375   3.196 128.205  0.00  0.00    +0.000 A 
ATOM     11  C   UNL     1      -7.073   2.929 129.380  0.00  0.00    +0.000 A 
ATOM     12  C   UNL     1      -8.009   1.900 129.410  0.00  0.00    +0.000 A 
ATOM     13  C   UNL     1      -8.277   1.163 128.258  0.00  0.00    +0.000 A 
ATOM     14  C   UNL     1      -7.616   1.428 127.046  0.00  0.00    +0.000 A 
ENDROOT
BRANCH   1  15
ATOM     15  C   UNL     1      -8.997  -0.286 125.868  0.00  0.00    +0.000 C 
BRANCH  15  20
ATOM     16  C   UNL     1      -6.026  -2.825 123.809  0.00  0.00    +0.000 C 
ATOM     17  N   UNL     1      -7.218  -2.403 124.516  0.00  0.00    +0.000 NA
ATOM     18  C   UNL     1      -8.290  -3.384 124.492  0.00  0.00    +0.000 C 
ATOM     19  C   UNL     1      -9.300  -2.768 125.469  0.00  0.00    +0.000 C 
ATOM     20  C   UNL     1      -8.503  -1.710 126.290  0.00  0.00    +0.000 C 
ATOM     21  C   UNL     1      -7.074  -2.135 125.952  0.00  0.00    +0.000 C 
ENDBRANCH  15  20
ENDBRANCH   1  15
TORSDOF 2
ENDMDL
