MODEL 1
REMARK VINA RESULT:      -7.7      0.000      0.000
REMARK  Name = Methysergide
REMARK  8 active torsions:
REMARK  status: ('A' for Active; 'I' for Inactive)
REMARK    1  A    between atoms: N_6  and  C_7
REMARK    2  A    between atoms: C_16  and  C_20
REMARK    3  A    between atoms: N_18  and  C_19
REMARK    4  A    between atoms: N_22  and  CA_23
REMARK    5  A    between atoms: CA_23  and  C_24
REMARK    6  A    between atoms: CA_23  and  C_26
REMARK    7  A    between atoms: C_24  and  C_25
REMARK    8  A    between atoms: C_26  and  O_27
REMARK                            x       y       z     vdW  Elec       q    Type
REMARK                         _______ _______ _______ _____ _____    ______ ____
ROOT
ATOM      1  C   UNL     1      -7.280   6.070 131.823  0.00  0.00    +0.000 C 
ATOM      2  C   UNL     1      -6.805   7.176 130.907  0.00  0.00    +0.000 C 
ATOM      3  C   UNL     1      -5.393   6.970 130.970  0.00  0.00    +0.000 A 
ATOM      4  C   UNL     1      -4.498   6.993 129.954  0.00  0.00    +0.000 A 
ATOM      5  N   UNL     1      -3.355   6.443 130.445  0.00  0.00    +0.000 N 
ATOM      6  C   UNL     1      -2.205   6.310 129.572  0.00  0.00    +0.000 C 
ATOM      7  C   UNL     1      -3.549   6.032 131.773  0.00  0.00    +0.000 A 
ATOM      8  C   UNL     1      -4.873   6.365 132.151  0.00  0.00    +0.000 A 
ATOM      9  C   UNL     1      -5.653   5.871 133.361  0.00  0.00    +0.000 A 
ATOM     10  C   UNL     1      -4.725   5.209 134.225  0.00  0.00    +0.000 A 
ATOM     11  C   UNL     1      -3.322   4.978 133.874  0.00  0.00    +0.000 A 
ATOM     12  C   UNL     1      -2.727   5.327 132.640  0.00  0.00    +0.000 A 
ATOM     13  C   UNL     1      -7.471   5.688 133.224  0.00  0.00    +0.000 C 
ATOM     14  C   UNL     1      -8.955   5.817 132.891  0.00  0.00    +0.000 C 
ATOM     15  C   UNL     1      -9.576   4.995 131.382  0.00  0.00    +0.000 C 
ATOM     16  C   UNL     1      -8.333   4.458 130.603  0.00  0.00    +0.000 C 
ATOM     17  N   UNL     1      -7.264   4.627 131.509  0.00  0.00    +0.000 NA
ATOM     18  C   UNL     1      -6.059   3.911 131.186  0.00  0.00    +0.000 C 
ENDROOT
BRANCH  15  19
ATOM     19  C   UNL     1     -10.497   5.392 130.035  0.00  0.00    +0.000 C 
ATOM     20  O   UNL     1     -11.573   4.866 129.820  0.00  0.00    +0.000 OA
ATOM     21  N   UNL     1     -10.153   6.497 129.255  0.00  0.00    +0.000 N 
ATOM     22  H   UNL     1      -9.204   6.825 129.281  0.00  0.00    +0.000 HD
BRANCH  21  23
ATOM     23  CA  UNL     1     -11.117   7.173 128.295  0.00  0.00    +0.000 C 
BRANCH  23  24
ATOM     24  C   UNL     1     -11.540   8.611 128.725  0.00  0.00    +0.000 C 
ATOM     25  C   UNL     1     -12.660   8.652 129.744  0.00  0.00    +0.000 C 
ENDBRANCH  23  24
BRANCH  23  26
ATOM     26  C   UNL     1     -10.515   7.283 126.864  0.00  0.00    +0.000 C 
BRANCH  26  27
ATOM     27  O   UNL     1      -9.656   6.194 126.525  0.00  0.00    +0.000 OA
ATOM     28  H   UNL     1     -10.080   5.363 126.802  0.00  0.00    +0.000 HD
ENDBRANCH  26  27
ENDBRANCH  23  26
ENDBRANCH  21  23
ENDBRANCH  15  19
TORSDOF 5
ENDMDL
MODEL 2
REMARK VINA RESULT:      -7.3      7.186      9.635
REMARK  Name = Methysergide
REMARK  8 active torsions:
REMARK  status: ('A' for Active; 'I' for Inactive)
REMARK    1  A    between atoms: N_6  and  C_7
REMARK    2  A    between atoms: C_16  and  C_20
REMARK    3  A    between atoms: N_18  and  C_19
REMARK    4  A    between atoms: N_22  and  CA_23
REMARK    5  A    between atoms: CA_23  and  C_24
REMARK    6  A    between atoms: CA_23  and  C_26
REMARK    7  A    between atoms: C_24  and  C_25
REMARK    8  A    between atoms: C_26  and  O_27
REMARK                            x       y       z     vdW  Elec       q    Type
REMARK                         _______ _______ _______ _____ _____    ______ ____
ROOT
ATOM      1  C   UNL     1      -6.914   0.454 126.273  0.00  0.00    +0.000 C 
ATOM      2  C   UNL     1      -5.582  -0.198 126.572  0.00  0.00    +0.000 C 
ATOM      3  C   UNL     1      -5.749  -1.442 125.890  0.00  0.00    +0.000 A 
ATOM      4  C   UNL     1      -4.856  -2.094 125.108  0.00  0.00    +0.000 A 
ATOM      5  N   UNL     1      -5.561  -3.049 124.444  0.00  0.00    +0.000 N 
ATOM      6  C   UNL     1      -4.871  -3.908 123.502  0.00  0.00    +0.000 C 
ATOM      7  C   UNL     1      -6.922  -2.966 124.782  0.00  0.00    +0.000 A 
ATOM      8  C   UNL     1      -7.080  -1.926 125.731  0.00  0.00    +0.000 A 
ATOM      9  C   UNL     1      -8.371  -1.254 126.175  0.00  0.00    +0.000 A 
ATOM     10  C   UNL     1      -9.456  -2.038 125.671  0.00  0.00    +0.000 A 
ATOM     11  C   UNL     1      -9.272  -3.191 124.787  0.00  0.00    +0.000 A 
ATOM     12  C   UNL     1      -8.029  -3.639 124.286  0.00  0.00    +0.000 A 
ATOM     13  C   UNL     1      -8.324   0.511 126.666  0.00  0.00    +0.000 C 
ATOM     14  C   UNL     1      -7.956   1.896 127.193  0.00  0.00    +0.000 C 
ATOM     15  C   UNL     1      -7.026   3.019 126.093  0.00  0.00    +0.000 C 
ATOM     16  C   UNL     1      -6.613   2.195 124.832  0.00  0.00    +0.000 C 
ATOM     17  N   UNL     1      -7.335   0.988 124.962  0.00  0.00    +0.000 NA
ATOM     18  C   UNL     1      -7.409   0.179 123.776  0.00  0.00    +0.000 C 
ENDROOT
BRANCH  15  19
ATOM     19  C   UNL     1      -5.646   3.975 126.164  0.00  0.00    +0.000 C 
ATOM     20  O   UNL     1      -5.712   5.181 126.307  0.00  0.00    +0.000 OA
ATOM     21  N   UNL     1      -4.390   3.378 126.288  0.00  0.00    +0.000 N 
ATOM     22  H   UNL     1      -4.280   2.426 125.989  0.00  0.00    +0.000 HD
BRANCH  21  23
ATOM     23  CA  UNL     1      -3.156   4.125 126.765  0.00  0.00    +0.000 C 
BRANCH  23  24
ATOM     24  C   UNL     1      -3.005   4.178 128.316  0.00  0.00    +0.000 C 
ATOM     25  C   UNL     1      -2.597   5.534 128.854  0.00  0.00    +0.000 C 
ENDBRANCH  23  24
BRANCH  23  26
ATOM     26  C   UNL     1      -1.851   3.492 126.201  0.00  0.00    +0.000 C 
BRANCH  26  27
ATOM     27  O   UNL     1      -1.388   2.375 126.961  0.00  0.00    +0.000 OA
ATOM     28  H   UNL     1      -0.644   2.663 127.518  0.00  0.00    +0.000 HD
ENDBRANCH  26  27
ENDBRANCH  23  26
ENDBRANCH  21  23
ENDBRANCH  15  19
TORSDOF 5
ENDMDL
MODEL 3
REMARK VINA RESULT:      -7.3      7.892      9.938
REMARK  Name = Methysergide
REMARK  8 active torsions:
REMARK  status: ('A' for Active; 'I' for Inactive)
REMARK    1  A    between atoms: N_6  and  C_7
REMARK    2  A    between atoms: C_16  and  C_20
REMARK    3  A    between atoms: N_18  and  C_19
REMARK    4  A    between atoms: N_22  and  CA_23
REMARK    5  A    between atoms: CA_23  and  C_24
REMARK    6  A    between atoms: CA_23  and  C_26
REMARK    7  A    between atoms: C_24  and  C_25
REMARK    8  A    between atoms: C_26  and  O_27
REMARK                            x       y       z     vdW  Elec       q    Type
REMARK                         _______ _______ _______ _____ _____    ______ ____
ROOT
ATOM      1  C   UNL     1      -6.484   0.360 125.115  0.00  0.00    +0.000 C 
ATOM      2  C   UNL     1      -6.305  -0.403 123.821  0.00  0.00    +0.000 C 
ATOM      3  C   UNL     1      -7.159  -1.522 124.065  0.00  0.00    +0.000 A 
ATOM      4  C   UNL     1      -8.042  -2.101 123.217  0.00  0.00    +0.000 A 
ATOM      5  N   UNL     1      -8.827  -2.907 123.982  0.00  0.00    +0.000 N 
ATOM      6  C   UNL     1      -9.895  -3.656 123.350  0.00  0.00    +0.000 C 
ATOM      7  C   UNL     1      -8.458  -2.799 125.333  0.00  0.00    +0.000 A 
ATOM      8  C   UNL     1      -7.365  -1.902 125.423  0.00  0.00    +0.000 A 
ATOM      9  C   UNL     1      -6.806  -1.231 126.669  0.00  0.00    +0.000 A 
ATOM     10  C   UNL     1      -7.401  -1.871 127.802  0.00  0.00    +0.000 A 
ATOM     11  C   UNL     1      -8.448  -2.890 127.692  0.00  0.00    +0.000 A 
ATOM     12  C   UNL     1      -9.029  -3.328 126.481  0.00  0.00    +0.000 A 
ATOM     13  C   UNL     1      -6.063   0.437 126.516  0.00  0.00    +0.000 C 
ATOM     14  C   UNL     1      -5.345   1.707 126.065  0.00  0.00    +0.000 C 
ATOM     15  C   UNL     1      -6.284   2.925 125.080  0.00  0.00    +0.000 C 
ATOM     16  C   UNL     1      -7.659   2.274 124.726  0.00  0.00    +0.000 C 
ATOM     17  N   UNL     1      -7.695   1.103 125.516  0.00  0.00    +0.000 NA
ATOM     18  C   UNL     1      -8.985   0.482 125.645  0.00  0.00    +0.000 C 
ENDROOT
BRANCH  15  19
ATOM     19  C   UNL     1      -6.098   3.781 123.647  0.00  0.00    +0.000 C 
ATOM     20  O   UNL     1      -5.733   4.942 123.640  0.00  0.00    +0.000 OA
ATOM     21  N   UNL     1      -6.137   3.110 122.424  0.00  0.00    +0.000 N 
ATOM     22  H   UNL     1      -6.610   2.226 122.377  0.00  0.00    +0.000 HD
BRANCH  21  23
ATOM     23  CA  UNL     1      -5.584   3.693 121.135  0.00  0.00    +0.000 C 
BRANCH  23  24
ATOM     24  C   UNL     1      -6.674   4.246 120.167  0.00  0.00    +0.000 C 
ATOM     25  C   UNL     1      -8.091   3.864 120.542  0.00  0.00    +0.000 C 
ENDBRANCH  23  24
BRANCH  23  26
ATOM     26  C   UNL     1      -4.589   4.857 121.414  0.00  0.00    +0.000 C 
BRANCH  26  27
ATOM     27  O   UNL     1      -4.719   5.946 120.498  0.00  0.00    +0.000 OA
ATOM     28  H   UNL     1      -4.322   6.739 120.897  0.00  0.00    +0.000 HD
ENDBRANCH  26  27
ENDBRANCH  23  26
ENDBRANCH  21  23
ENDBRANCH  15  19
TORSDOF 5
ENDMDL
MODEL 4
REMARK VINA RESULT:      -7.2      2.422      3.525
REMARK  Name = Methysergide
REMARK  8 active torsions:
REMARK  status: ('A' for Active; 'I' for Inactive)
REMARK    1  A    between atoms: N_6  and  C_7
REMARK    2  A    between atoms: C_16  and  C_20
REMARK    3  A    between atoms: N_18  and  C_19
REMARK    4  A    between atoms: N_22  and  CA_23
REMARK    5  A    between atoms: CA_23  and  C_24
REMARK    6  A    between atoms: CA_23  and  C_26
REMARK    7  A    between atoms: C_24  and  C_25
REMARK    8  A    between atoms: C_26  and  O_27
REMARK                            x       y       z     vdW  Elec       q    Type
REMARK                         _______ _______ _______ _____ _____    ______ ____
ROOT
ATOM      1  C   UNL     1      -7.877   4.837 131.502  0.00  0.00    +0.000 C 
ATOM      2  C   UNL     1      -7.621   3.700 130.537  0.00  0.00    +0.000 C 
ATOM      3  C   UNL     1      -7.073   2.728 131.428  0.00  0.00    +0.000 A 
ATOM      4  C   UNL     1      -7.341   1.402 131.489  0.00  0.00    +0.000 A 
ATOM      5  N   UNL     1      -6.830   0.966 132.672  0.00  0.00    +0.000 N 
ATOM      6  C   UNL     1      -6.982  -0.430 133.034  0.00  0.00    +0.000 C 
ATOM      7  C   UNL     1      -6.272   2.041 133.381  0.00  0.00    +0.000 A 
ATOM      8  C   UNL     1      -6.410   3.211 132.594  0.00  0.00    +0.000 A 
ATOM      9  C   UNL     1      -6.241   4.659 133.033  0.00  0.00    +0.000 A 
ATOM     10  C   UNL     1      -5.643   4.644 134.332  0.00  0.00    +0.000 A 
ATOM     11  C   UNL     1      -5.391   3.415 135.088  0.00  0.00    +0.000 A 
ATOM     12  C   UNL     1      -5.744   2.115 134.663  0.00  0.00    +0.000 A 
ATOM     13  C   UNL     1      -7.251   5.952 132.217  0.00  0.00    +0.000 C 
ATOM     14  C   UNL     1      -8.058   6.816 131.250  0.00  0.00    +0.000 C 
ATOM     15  C   UNL     1      -9.833   6.442 131.035  0.00  0.00    +0.000 C 
ATOM     16  C   UNL     1     -10.121   5.108 131.795  0.00  0.00    +0.000 C 
ATOM     17  N   UNL     1      -8.937   4.872 132.528  0.00  0.00    +0.000 NA
ATOM     18  C   UNL     1      -9.043   3.892 133.576  0.00  0.00    +0.000 C 
ENDROOT
BRANCH  15  19
ATOM     19  C   UNL     1     -10.910   6.185 129.772  0.00  0.00    +0.000 C 
ATOM     20  O   UNL     1     -11.569   5.166 129.692  0.00  0.00    +0.000 OA
ATOM     21  N   UNL     1     -11.237   7.234 128.911  0.00  0.00    +0.000 N 
ATOM     22  H   UNL     1     -10.595   8.002 128.824  0.00  0.00    +0.000 HD
BRANCH  21  23
ATOM     23  CA  UNL     1     -12.470   7.230 128.023  0.00  0.00    +0.000 C 
BRANCH  23  24
ATOM     24  C   UNL     1     -13.377   8.488 128.189  0.00  0.00    +0.000 C 
ATOM     25  C   UNL     1     -12.951   9.420 129.304  0.00  0.00    +0.000 C 
ENDBRANCH  23  24
BRANCH  23  26
ATOM     26  C   UNL     1     -12.091   7.137 126.517  0.00  0.00    +0.000 C 
BRANCH  26  27
ATOM     27  O   UNL     1     -10.817   6.531 126.290  0.00  0.00    +0.000 OA
ATOM     28  H   UNL     1     -10.170   7.229 126.089  0.00  0.00    +0.000 HD
ENDBRANCH  26  27
ENDBRANCH  23  26
ENDBRANCH  21  23
ENDBRANCH  15  19
TORSDOF 5
ENDMDL
MODEL 5
REMARK VINA RESULT:      -7.2      7.073      8.597
REMARK  Name = Methysergide
REMARK  8 active torsions:
REMARK  status: ('A' for Active; 'I' for Inactive)
REMARK    1  A    between atoms: N_6  and  C_7
REMARK    2  A    between atoms: C_16  and  C_20
REMARK    3  A    between atoms: N_18  and  C_19
REMARK    4  A    between atoms: N_22  and  CA_23
REMARK    5  A    between atoms: CA_23  and  C_24
REMARK    6  A    between atoms: CA_23  and  C_26
REMARK    7  A    between atoms: C_24  and  C_25
REMARK    8  A    between atoms: C_26  and  O_27
REMARK                            x       y       z     vdW  Elec       q    Type
REMARK                         _______ _______ _______ _____ _____    ______ ____
ROOT
ATOM      1  C   UNL     1      -7.670  -2.291 128.724  0.00  0.00    +0.000 C 
ATOM      2  C   UNL     1      -7.967  -1.023 129.494  0.00  0.00    +0.000 C 
ATOM      3  C   UNL     1      -6.880  -1.029 130.421  0.00  0.00    +0.000 A 
ATOM      4  C   UNL     1      -6.100   0.010 130.803  0.00  0.00    +0.000 A 
ATOM      5  N   UNL     1      -5.031  -0.535 131.443  0.00  0.00    +0.000 N 
ATOM      6  C   UNL     1      -3.995   0.340 131.957  0.00  0.00    +0.000 C 
ATOM      7  C   UNL     1      -5.121  -1.936 131.425  0.00  0.00    +0.000 A 
ATOM      8  C   UNL     1      -6.323  -2.295 130.766  0.00  0.00    +0.000 A 
ATOM      9  C   UNL     1      -6.725  -3.662 130.233  0.00  0.00    +0.000 A 
ATOM     10  C   UNL     1      -5.792  -4.614 130.752  0.00  0.00    +0.000 A 
ATOM     11  C   UNL     1      -4.615  -4.240 131.540  0.00  0.00    +0.000 A 
ATOM     12  C   UNL     1      -4.229  -2.914 131.841  0.00  0.00    +0.000 A 
ATOM     13  C   UNL     1      -7.793  -3.751 128.747  0.00  0.00    +0.000 C 
ATOM     14  C   UNL     1      -8.822  -3.522 127.642  0.00  0.00    +0.000 C 
ATOM     15  C   UNL     1      -8.365  -2.431 126.250  0.00  0.00    +0.000 C 
ATOM     16  C   UNL     1      -6.996  -1.769 126.610  0.00  0.00    +0.000 C 
ATOM     17  N   UNL     1      -6.569  -2.473 127.757  0.00  0.00    +0.000 NA
ATOM     18  C   UNL     1      -5.185  -2.304 128.108  0.00  0.00    +0.000 C 
ENDROOT
BRANCH  15  19
ATOM     19  C   UNL     1      -9.013  -1.112 125.435  0.00  0.00    +0.000 C 
ATOM     20  O   UNL     1      -9.995  -0.526 125.848  0.00  0.00    +0.000 OA
ATOM     21  N   UNL     1      -8.301  -0.522 124.388  0.00  0.00    +0.000 N 
ATOM     22  H   UNL     1      -7.611  -1.071 123.908  0.00  0.00    +0.000 HD
BRANCH  21  23
ATOM     23  CA  UNL     1      -8.585   0.879 123.874  0.00  0.00    +0.000 C 
BRANCH  23  24
ATOM     24  C   UNL     1      -7.347   1.589 123.247  0.00  0.00    +0.000 C 
ATOM     25  C   UNL     1      -7.646   2.947 122.646  0.00  0.00    +0.000 C 
ENDBRANCH  23  24
BRANCH  23  26
ATOM     26  C   UNL     1      -9.704   0.876 122.793  0.00  0.00    +0.000 C 
BRANCH  26  27
ATOM     27  O   UNL     1     -11.023   0.837 123.342  0.00  0.00    +0.000 OA
ATOM     28  H   UNL     1     -11.204  -0.066 123.655  0.00  0.00    +0.000 HD
ENDBRANCH  26  27
ENDBRANCH  23  26
ENDBRANCH  21  23
ENDBRANCH  15  19
TORSDOF 5
ENDMDL
MODEL 6
REMARK VINA RESULT:      -7.0      7.006      8.584
REMARK  Name = Methysergide
REMARK  8 active torsions:
REMARK  status: ('A' for Active; 'I' for Inactive)
REMARK    1  A    between atoms: N_6  and  C_7
REMARK    2  A    between atoms: C_16  and  C_20
REMARK    3  A    between atoms: N_18  and  C_19
REMARK    4  A    between atoms: N_22  and  CA_23
REMARK    5  A    between atoms: CA_23  and  C_24
REMARK    6  A    between atoms: CA_23  and  C_26
REMARK    7  A    between atoms: C_24  and  C_25
REMARK    8  A    between atoms: C_26  and  O_27
REMARK                            x       y       z     vdW  Elec       q    Type
REMARK                         _______ _______ _______ _____ _____    ______ ____
ROOT
ATOM      1  C   UNL     1      -8.064  -1.608 127.086  0.00  0.00    +0.000 C 
ATOM      2  C   UNL     1      -8.122  -0.210 127.661  0.00  0.00    +0.000 C 
ATOM      3  C   UNL     1      -7.172  -0.332 128.722  0.00  0.00    +0.000 A 
ATOM      4  C   UNL     1      -6.207   0.546 129.086  0.00  0.00    +0.000 A 
ATOM      5  N   UNL     1      -5.376  -0.132 129.922  0.00  0.00    +0.000 N 
ATOM      6  C   UNL     1      -4.218   0.547 130.469  0.00  0.00    +0.000 C 
ATOM      7  C   UNL     1      -5.801  -1.465 130.050  0.00  0.00    +0.000 A 
ATOM      8  C   UNL     1      -6.979  -1.629 129.279  0.00  0.00    +0.000 A 
ATOM      9  C   UNL     1      -7.644  -2.930 128.854  0.00  0.00    +0.000 A 
ATOM     10  C   UNL     1      -7.029  -3.986 129.598  0.00  0.00    +0.000 A 
ATOM     11  C   UNL     1      -5.886  -3.783 130.491  0.00  0.00    +0.000 A 
ATOM     12  C   UNL     1      -5.222  -2.551 130.690  0.00  0.00    +0.000 A 
ATOM     13  C   UNL     1      -8.540  -2.983 127.257  0.00  0.00    +0.000 C 
ATOM     14  C   UNL     1      -9.361  -2.685 126.004  0.00  0.00    +0.000 C 
ATOM     15  C   UNL     1      -8.510  -1.934 124.573  0.00  0.00    +0.000 C 
ATOM     16  C   UNL     1      -7.066  -1.558 125.037  0.00  0.00    +0.000 C 
ATOM     17  N   UNL     1      -6.946  -2.171 126.304  0.00  0.00    +0.000 NA
ATOM     18  C   UNL     1      -5.606  -2.273 126.817  0.00  0.00    +0.000 C 
ENDROOT
BRANCH  15  19
ATOM     19  C   UNL     1      -8.728  -0.632 123.534  0.00  0.00    +0.000 C 
ATOM     20  O   UNL     1      -9.753  -0.491 122.894  0.00  0.00    +0.000 OA
ATOM     21  N   UNL     1      -7.830   0.436 123.557  0.00  0.00    +0.000 N 
ATOM     22  H   UNL     1      -6.904   0.277 123.913  0.00  0.00    +0.000 HD
BRANCH  21  23
ATOM     23  CA  UNL     1      -8.148   1.806 122.982  0.00  0.00    +0.000 C 
BRANCH  23  24
ATOM     24  C   UNL     1      -8.856   2.768 123.984  0.00  0.00    +0.000 C 
ATOM     25  C   UNL     1      -8.221   2.811 125.359  0.00  0.00    +0.000 C 
ENDBRANCH  23  24
BRANCH  23  26
ATOM     26  C   UNL     1      -6.864   2.530 122.484  0.00  0.00    +0.000 C 
BRANCH  26  27
ATOM     27  O   UNL     1      -7.116   3.836 121.962  0.00  0.00    +0.000 OA
ATOM     28  H   UNL     1      -6.291   4.184 121.581  0.00  0.00    +0.000 HD
ENDBRANCH  26  27
ENDBRANCH  23  26
ENDBRANCH  21  23
ENDBRANCH  15  19
TORSDOF 5
ENDMDL
MODEL 7
REMARK VINA RESULT:      -6.8      1.966      2.822
REMARK  Name = Methysergide
REMARK  8 active torsions:
REMARK  status: ('A' for Active; 'I' for Inactive)
REMARK    1  A    between atoms: N_6  and  C_7
REMARK    2  A    between atoms: C_16  and  C_20
REMARK    3  A    between atoms: N_18  and  C_19
REMARK    4  A    between atoms: N_22  and  CA_23
REMARK    5  A    between atoms: CA_23  and  C_24
REMARK    6  A    between atoms: CA_23  and  C_26
REMARK    7  A    between atoms: C_24  and  C_25
REMARK    8  A    between atoms: C_26  and  O_27
REMARK                            x       y       z     vdW  Elec       q    Type
REMARK                         _______ _______ _______ _____ _____    ______ ____
ROOT
ATOM      1  C   UNL     1      -6.310   5.005 130.850  0.00  0.00    +0.000 C 
ATOM      2  C   UNL     1      -5.989   4.220 129.597  0.00  0.00    +0.000 C 
ATOM      3  C   UNL     1      -5.108   3.232 130.134  0.00  0.00    +0.000 A 
ATOM      4  C   UNL     1      -5.080   1.904 129.871  0.00  0.00    +0.000 A 
ATOM      5  N   UNL     1      -4.298   1.345 130.833  0.00  0.00    +0.000 N 
ATOM      6  C   UNL     1      -4.093  -0.091 130.829  0.00  0.00    +0.000 C 
ATOM      7  C   UNL     1      -3.865   2.329 131.736  0.00  0.00    +0.000 A 
ATOM      8  C   UNL     1      -4.374   3.579 131.305  0.00  0.00    +0.000 A 
ATOM      9  C   UNL     1      -4.439   4.882 132.089  0.00  0.00    +0.000 A 
ATOM     10  C   UNL     1      -3.641   4.714 133.264  0.00  0.00    +0.000 A 
ATOM     11  C   UNL     1      -3.014   3.443 133.636  0.00  0.00    +0.000 A 
ATOM     12  C   UNL     1      -3.156   2.231 132.924  0.00  0.00    +0.000 A 
ATOM     13  C   UNL     1      -5.819   6.043 131.760  0.00  0.00    +0.000 C 
ATOM     14  C   UNL     1      -6.939   6.882 131.151  0.00  0.00    +0.000 C 
ATOM     15  C   UNL     1      -8.608   6.147 131.043  0.00  0.00    +0.000 C 
ATOM     16  C   UNL     1      -8.479   4.644 131.451  0.00  0.00    +0.000 C 
ATOM     17  N   UNL     1      -7.166   4.541 131.960  0.00  0.00    +0.000 NA
ATOM     18  C   UNL     1      -6.887   3.351 132.717  0.00  0.00    +0.000 C 
ENDROOT
BRANCH  15  19
ATOM     19  C   UNL     1      -9.805   5.934 129.883  0.00  0.00    +0.000 C 
ATOM     20  O   UNL     1     -10.241   4.832 129.612  0.00  0.00    +0.000 OA
ATOM     21  N   UNL     1     -10.484   7.042 129.371  0.00  0.00    +0.000 N 
ATOM     22  H   UNL     1     -10.040   7.941 129.420  0.00  0.00    +0.000 HD
BRANCH  21  23
ATOM     23  CA  UNL     1     -11.820   6.942 128.656  0.00  0.00    +0.000 C 
BRANCH  23  24
ATOM     24  C   UNL     1     -13.010   7.576 129.440  0.00  0.00    +0.000 C 
ATOM     25  C   UNL     1     -12.869   7.508 130.947  0.00  0.00    +0.000 C 
ENDBRANCH  23  24
BRANCH  23  26
ATOM     26  C   UNL     1     -11.775   7.630 127.261  0.00  0.00    +0.000 C 
BRANCH  26  27
ATOM     27  O   UNL     1     -11.884   6.711 126.172  0.00  0.00    +0.000 OA
ATOM     28  H   UNL     1     -11.342   7.037 125.434  0.00  0.00    +0.000 HD
ENDBRANCH  26  27
ENDBRANCH  23  26
ENDBRANCH  21  23
ENDBRANCH  15  19
TORSDOF 5
ENDMDL
MODEL 8
REMARK VINA RESULT:      -6.7      2.161      3.255
REMARK  Name = Methysergide
REMARK  8 active torsions:
REMARK  status: ('A' for Active; 'I' for Inactive)
REMARK    1  A    between atoms: N_6  and  C_7
REMARK    2  A    between atoms: C_16  and  C_20
REMARK    3  A    between atoms: N_18  and  C_19
REMARK    4  A    between atoms: N_22  and  CA_23
REMARK    5  A    between atoms: CA_23  and  C_24
REMARK    6  A    between atoms: CA_23  and  C_26
REMARK    7  A    between atoms: C_24  and  C_25
REMARK    8  A    between atoms: C_26  and  O_27
REMARK                            x       y       z     vdW  Elec       q    Type
REMARK                         _______ _______ _______ _____ _____    ______ ____
ROOT
ATOM      1  C   UNL     1      -5.140   6.016 133.134  0.00  0.00    +0.000 C 
ATOM      2  C   UNL     1      -5.565   6.803 131.914  0.00  0.00    +0.000 C 
ATOM      3  C   UNL     1      -4.314   6.916 131.235  0.00  0.00    +0.000 A 
ATOM      4  C   UNL     1      -4.061   6.758 129.914  0.00  0.00    +0.000 A 
ATOM      5  N   UNL     1      -2.710   6.653 129.797  0.00  0.00    +0.000 N 
ATOM      6  C   UNL     1      -2.129   6.453 128.483  0.00  0.00    +0.000 C 
ATOM      7  C   UNL     1      -2.111   6.702 131.066  0.00  0.00    +0.000 A 
ATOM      8  C   UNL     1      -3.132   6.878 132.032  0.00  0.00    +0.000 A 
ATOM      9  C   UNL     1      -3.035   6.694 133.539  0.00  0.00    +0.000 A 
ATOM     10  C   UNL     1      -1.648   6.573 133.866  0.00  0.00    +0.000 A 
ATOM     11  C   UNL     1      -0.586   6.516 132.859  0.00  0.00    +0.000 A 
ATOM     12  C   UNL     1      -0.793   6.522 131.461  0.00  0.00    +0.000 A 
ATOM     13  C   UNL     1      -4.515   6.118 134.455  0.00  0.00    +0.000 C 
ATOM     14  C   UNL     1      -5.923   5.826 134.967  0.00  0.00    +0.000 C 
ATOM     15  C   UNL     1      -6.835   4.423 134.235  0.00  0.00    +0.000 C 
ATOM     16  C   UNL     1      -5.993   3.905 133.025  0.00  0.00    +0.000 C 
ATOM     17  N   UNL     1      -4.763   4.588 133.149  0.00  0.00    +0.000 NA
ATOM     18  C   UNL     1      -3.679   4.058 132.367  0.00  0.00    +0.000 C 
ENDROOT
BRANCH  15  19
ATOM     19  C   UNL     1      -8.346   4.132 133.562  0.00  0.00    +0.000 C 
ATOM     20  O   UNL     1      -9.279   3.736 134.234  0.00  0.00    +0.000 OA
ATOM     21  N   UNL     1      -8.623   4.557 132.261  0.00  0.00    +0.000 N 
ATOM     22  H   UNL     1      -7.855   4.703 131.631  0.00  0.00    +0.000 HD
BRANCH  21  23
ATOM     23  CA  UNL     1     -10.033   4.716 131.719  0.00  0.00    +0.000 C 
BRANCH  23  24
ATOM     24  C   UNL     1     -10.450   6.195 131.453  0.00  0.00    +0.000 C 
ATOM     25  C   UNL     1      -9.520   6.945 130.521  0.00  0.00    +0.000 C 
ENDBRANCH  23  24
BRANCH  23  26
ATOM     26  C   UNL     1     -10.223   3.942 130.382  0.00  0.00    +0.000 C 
BRANCH  26  27
ATOM     27  O   UNL     1     -11.593   3.713 130.049  0.00  0.00    +0.000 OA
ATOM     28  H   UNL     1     -11.692   3.760 129.083  0.00  0.00    +0.000 HD
ENDBRANCH  26  27
ENDBRANCH  23  26
ENDBRANCH  21  23
ENDBRANCH  15  19
TORSDOF 5
ENDMDL
MODEL 9
REMARK VINA RESULT:      -6.6      7.265      8.800
REMARK  Name = Methysergide
REMARK  8 active torsions:
REMARK  status: ('A' for Active; 'I' for Inactive)
REMARK    1  A    between atoms: N_6  and  C_7
REMARK    2  A    between atoms: C_16  and  C_20
REMARK    3  A    between atoms: N_18  and  C_19
REMARK    4  A    between atoms: N_22  and  CA_23
REMARK    5  A    between atoms: CA_23  and  C_24
REMARK    6  A    between atoms: CA_23  and  C_26
REMARK    7  A    between atoms: C_24  and  C_25
REMARK    8  A    between atoms: C_26  and  O_27
REMARK                            x       y       z     vdW  Elec       q    Type
REMARK                         _______ _______ _______ _____ _____    ______ ____
ROOT
ATOM      1  C   UNL     1      -7.528  -1.911 129.801  0.00  0.00    +0.000 C 
ATOM      2  C   UNL     1      -7.850  -0.448 130.008  0.00  0.00    +0.000 C 
ATOM      3  C   UNL     1      -6.943  -0.135 131.066  0.00  0.00    +0.000 A 
ATOM      4  C   UNL     1      -6.159   0.962 131.201  0.00  0.00    +0.000 A 
ATOM      5  N   UNL     1      -5.263   0.668 132.181  0.00  0.00    +0.000 N 
ATOM      6  C   UNL     1      -4.264   1.655 132.542  0.00  0.00    +0.000 C 
ATOM      7  C   UNL     1      -5.460  -0.645 132.637  0.00  0.00    +0.000 A 
ATOM      8  C   UNL     1      -6.556  -1.200 131.931  0.00  0.00    +0.000 A 
ATOM      9  C   UNL     1      -6.969  -2.662 131.844  0.00  0.00    +0.000 A 
ATOM     10  C   UNL     1      -6.218  -3.377 132.830  0.00  0.00    +0.000 A 
ATOM     11  C   UNL     1      -5.168  -2.761 133.644  0.00  0.00    +0.000 A 
ATOM     12  C   UNL     1      -4.734  -1.421 133.529  0.00  0.00    +0.000 A 
ATOM     13  C   UNL     1      -7.769  -3.264 130.310  0.00  0.00    +0.000 C 
ATOM     14  C   UNL     1      -8.572  -3.433 129.021  0.00  0.00    +0.000 C 
ATOM     15  C   UNL     1      -7.797  -2.919 127.449  0.00  0.00    +0.000 C 
ATOM     16  C   UNL     1      -6.462  -2.191 127.806  0.00  0.00    +0.000 C 
ATOM     17  N   UNL     1      -6.296  -2.443 129.186  0.00  0.00    +0.000 NA
ATOM     18  C   UNL     1      -4.983  -2.177 129.710  0.00  0.00    +0.000 C 
ENDROOT
BRANCH  15  19
ATOM     19  C   UNL     1      -8.187  -1.972 126.117  0.00  0.00    +0.000 C 
ATOM     20  O   UNL     1      -8.538  -0.814 126.238  0.00  0.00    +0.000 OA
ATOM     21  N   UNL     1      -7.897  -2.427 124.830  0.00  0.00    +0.000 N 
ATOM     22  H   UNL     1      -7.794  -3.415 124.682  0.00  0.00    +0.000 HD
BRANCH  21  23
ATOM     23  CA  UNL     1      -7.824  -1.512 123.619  0.00  0.00    +0.000 C 
BRANCH  23  24
ATOM     24  C   UNL     1      -6.673  -1.860 122.627  0.00  0.00    +0.000 C 
ATOM     25  C   UNL     1      -5.537  -2.649 123.244  0.00  0.00    +0.000 C 
ENDBRANCH  23  24
BRANCH  23  26
ATOM     26  C   UNL     1      -9.150  -1.535 122.804  0.00  0.00    +0.000 C 
BRANCH  26  27
ATOM     27  O   UNL     1     -10.054  -2.559 123.221  0.00  0.00    +0.000 OA
ATOM     28  H   UNL     1     -10.319  -3.078 122.442  0.00  0.00    +0.000 HD
ENDBRANCH  26  27
ENDBRANCH  23  26
ENDBRANCH  21  23
ENDBRANCH  15  19
TORSDOF 5
ENDMDL
