MODEL 1
REMARK VINA RESULT:      -8.1      0.000      0.000
REMARK  Name = Methotrexate
REMARK  12 active torsions:
REMARK  status: ('A' for Active; 'I' for Inactive)
REMARK    1  A    between atoms: C_1  and  N_2
REMARK    2  A    between atoms: N_2  and  C_3
REMARK    3  A    between atoms: N_2  and  C_16
REMARK    4  A    between atoms: C_3  and  C_4
REMARK    5  A    between atoms: C_19  and  C_22
REMARK    6  A    between atoms: N_24  and  CA_25
REMARK    7  A    between atoms: CA_25  and  CB_26
REMARK    8  A    between atoms: CA_25  and  C_31
REMARK    9  A    between atoms: CB_26  and  CG_27
REMARK   10  A    between atoms: CG_27  and  CD_28
REMARK   11  A    between atoms: CD_28  and  OE1_29
REMARK   12  A    between atoms: C_31  and  O_32
REMARK                            x       y       z     vdW  Elec       q    Type
REMARK                         _______ _______ _______ _____ _____    ______ ____
ROOT
ATOM      1  C   UNK A   0      -5.238   5.021 131.421  0.00  0.00    +0.000 A 
ATOM      2  C   UNK A   0      -5.519   6.382 131.545  0.00  0.00    +0.000 A 
ATOM      3  C   UNK A   0      -6.800   6.867 131.257  0.00  0.00    +0.000 A 
ATOM      4  C   UNK A   0      -7.878   5.981 131.137  0.00  0.00    +0.000 A 
ATOM      5  C   UNK A   0      -7.624   4.617 131.075  0.00  0.00    +0.000 A 
ATOM      6  C   UNK A   0      -6.314   4.160 131.152  0.00  0.00    +0.000 A 
ENDROOT
BRANCH   4   7
ATOM      7  C   UNK A   0      -9.258   6.526 131.222  0.00  0.00    +0.000 C 
ATOM      8  O   UNK A   0      -9.825   6.521 132.310  0.00  0.00    +0.000 OA
ATOM      9  N   GLU A   1      -9.847   6.992 130.057  0.00  0.00    +0.000 N 
ATOM     10  H   GLU A   1      -9.368   6.802 129.203  0.00  0.00    +0.000 HD
BRANCH   9  11
ATOM     11  CA  GLU A   1     -11.157   7.666 130.021  0.00  0.00    +0.000 C 
BRANCH  11  12
ATOM     12  C   GLU A   1     -12.402   6.736 130.075  0.00  0.00    +0.000 C 
ATOM     13  OXT GLU A   1     -12.524   5.755 129.350  0.00  0.00    +0.000 OA
BRANCH  12  14
ATOM     14  O   GLU A   1     -13.346   7.002 131.002  0.00  0.00    +0.000 OA
ATOM     15  H   GLU A   1     -14.277   7.013 130.740  0.00  0.00    +0.000 HD
ENDBRANCH  12  14
ENDBRANCH  11  12
BRANCH  11  16
ATOM     16  CB  GLU A   1     -11.320   8.523 128.741  0.00  0.00    +0.000 C 
BRANCH  16  17
ATOM     17  CG  GLU A   1     -10.512   8.029 127.546  0.00  0.00    +0.000 C 
BRANCH  17  18
ATOM     18  CD  GLU A   1     -11.223   7.584 126.305  0.00  0.00    +0.000 C 
ATOM     19  OE2 GLU A   1     -12.186   6.817 126.353  0.00  0.00    +0.000 OA
BRANCH  18  20
ATOM     20  OE1 GLU A   1     -10.808   8.119 125.148  0.00  0.00    +0.000 OA
ATOM     21  HE1 GLU A   1     -11.437   8.069 124.409  0.00  0.00    +0.000 HD
ENDBRANCH  18  20
ENDBRANCH  17  18
ENDBRANCH  16  17
ENDBRANCH  11  16
ENDBRANCH   9  11
ENDBRANCH   4   7
BRANCH   1  23
ATOM     22  C   UNK A   0      -3.660   3.677 132.600  0.00  0.00    +0.000 C 
ATOM     23  N   UNK A   0      -3.943   4.514 131.440  0.00  0.00    +0.000 N 
BRANCH  23  24
ATOM     24  C   UNK A   0      -2.985   4.770 130.340  0.00  0.00    +0.000 C 
BRANCH  24  25
ATOM     25  C   UNK A   0      -3.556   4.710 128.923  0.00  0.00    +0.000 A 
ATOM     26  C   UNK A   0      -3.925   5.838 128.221  0.00  0.00    +0.000 A 
ATOM     27  N   UNK A   0      -4.541   5.785 127.003  0.00  0.00    +0.000 NA
ATOM     28  C   UNK A   0      -4.835   4.576 126.475  0.00  0.00    +0.000 A 
ATOM     29  N   UNK A   0      -5.485   4.491 125.310  0.00  0.00    +0.000 NA
ATOM     30  C   UNK A   0      -5.794   3.277 124.848  0.00  0.00    +0.000 A 
ATOM     31  N   UNK A   0      -6.401   3.195 123.629  0.00  0.00    +0.000 N 
ATOM     32  N   UNK A   0      -5.551   2.134 125.488  0.00  0.00    +0.000 NA
ATOM     33  C   UNK A   0      -4.890   2.233 126.649  0.00  0.00    +0.000 A 
ATOM     34  N   UNK A   0      -4.667   1.047 127.342  0.00  0.00    +0.000 N 
ATOM     35  C   UNK A   0      -4.447   3.442 127.178  0.00  0.00    +0.000 A 
ATOM     36  N   UNK A   0      -3.729   3.507 128.331  0.00  0.00    +0.000 NA
ATOM     37  H   UNK A   0      -6.561   4.046 123.118  0.00  0.00    +0.000 HD
ATOM     38  H   UNK A   0      -6.620   2.287 123.256  0.00  0.00    +0.000 HD
ATOM     39  H   UNK A   0      -4.998   0.178 126.955  0.00  0.00    +0.000 HD
ATOM     40  H   UNK A   0      -4.218   1.094 128.246  0.00  0.00    +0.000 HD
ENDBRANCH  24  25
ENDBRANCH  23  24
ENDBRANCH   1  23
TORSDOF 11
ENDMDL
MODEL 2
REMARK VINA RESULT:      -8.0      3.589      4.889
REMARK  Name = Methotrexate
REMARK  12 active torsions:
REMARK  status: ('A' for Active; 'I' for Inactive)
REMARK    1  A    between atoms: C_1  and  N_2
REMARK    2  A    between atoms: N_2  and  C_3
REMARK    3  A    between atoms: N_2  and  C_16
REMARK    4  A    between atoms: C_3  and  C_4
REMARK    5  A    between atoms: C_19  and  C_22
REMARK    6  A    between atoms: N_24  and  CA_25
REMARK    7  A    between atoms: CA_25  and  CB_26
REMARK    8  A    between atoms: CA_25  and  C_31
REMARK    9  A    between atoms: CB_26  and  CG_27
REMARK   10  A    between atoms: CG_27  and  CD_28
REMARK   11  A    between atoms: CD_28  and  OE1_29
REMARK   12  A    between atoms: C_31  and  O_32
REMARK                            x       y       z     vdW  Elec       q    Type
REMARK                         _______ _______ _______ _____ _____    ______ ____
ROOT
ATOM      1  C   UNK A   0      -7.459   2.480 129.368  0.00  0.00    +0.000 A 
ATOM      2  C   UNK A   0      -8.740   2.197 129.843  0.00  0.00    +0.000 A 
ATOM      3  C   UNK A   0      -9.493   3.192 130.477  0.00  0.00    +0.000 A 
ATOM      4  C   UNK A   0      -9.111   4.535 130.378  0.00  0.00    +0.000 A 
ATOM      5  C   UNK A   0      -7.864   4.843 129.850  0.00  0.00    +0.000 A 
ATOM      6  C   UNK A   0      -7.033   3.818 129.413  0.00  0.00    +0.000 A 
ENDROOT
BRANCH   4   7
ATOM      7  C   UNK A   0     -10.110   5.584 130.713  0.00  0.00    +0.000 C 
ATOM      8  O   UNK A   0     -10.545   5.634 131.860  0.00  0.00    +0.000 OA
ATOM      9  N   GLU A   1     -10.519   6.440 129.703  0.00  0.00    +0.000 N 
ATOM     10  H   GLU A   1     -10.230   6.213 128.777  0.00  0.00    +0.000 HD
BRANCH   9  11
ATOM     11  CA  GLU A   1     -11.407   7.595 129.927  0.00  0.00    +0.000 C 
BRANCH  11  12
ATOM     12  C   GLU A   1     -12.916   7.267 130.110  0.00  0.00    +0.000 C 
ATOM     13  OXT GLU A   1     -13.675   7.104 129.162  0.00  0.00    +0.000 OA
BRANCH  12  14
ATOM     14  O   GLU A   1     -13.375   7.103 131.369  0.00  0.00    +0.000 OA
ATOM     15  H   GLU A   1     -13.104   7.725 132.057  0.00  0.00    +0.000 HD
ENDBRANCH  12  14
ENDBRANCH  11  12
BRANCH  11  16
ATOM     16  CB  GLU A   1     -11.329   8.606 128.755  0.00  0.00    +0.000 C 
BRANCH  16  17
ATOM     17  CG  GLU A   1     -10.502   8.130 127.567  0.00  0.00    +0.000 C 
BRANCH  17  18
ATOM     18  CD  GLU A   1     -11.191   7.573 126.360  0.00  0.00    +0.000 C 
ATOM     19  OE2 GLU A   1     -10.946   7.990 125.226  0.00  0.00    +0.000 OA
BRANCH  18  20
ATOM     20  OE1 GLU A   1     -12.033   6.550 126.564  0.00  0.00    +0.000 OA
ATOM     21  HE1 GLU A   1     -12.963   6.714 126.333  0.00  0.00    +0.000 HD
ENDBRANCH  18  20
ENDBRANCH  17  18
ENDBRANCH  16  17
ENDBRANCH  11  16
ENDBRANCH   9  11
ENDBRANCH   4   7
BRANCH   1  23
ATOM     22  C   UNK A   0      -5.457   1.995 128.166  0.00  0.00    +0.000 C 
ATOM     23  N   UNK A   0      -6.568   1.491 128.967  0.00  0.00    +0.000 N 
BRANCH  23  24
ATOM     24  C   UNK A   0      -6.726   0.078 129.381  0.00  0.00    +0.000 C 
BRANCH  24  25
ATOM     25  C   UNK A   0      -7.453  -0.835 128.394  0.00  0.00    +0.000 A 
ATOM     26  C   UNK A   0      -7.579  -2.194 128.593  0.00  0.00    +0.000 A 
ATOM     27  N   UNK A   0      -8.126  -3.031 127.662  0.00  0.00    +0.000 NA
ATOM     28  C   UNK A   0      -8.528  -2.516 126.479  0.00  0.00    +0.000 A 
ATOM     29  N   UNK A   0      -9.017  -3.317 125.527  0.00  0.00    +0.000 NA
ATOM     30  C   UNK A   0      -9.360  -2.770 124.359  0.00  0.00    +0.000 A 
ATOM     31  N   UNK A   0      -9.917  -3.583 123.414  0.00  0.00    +0.000 N 
ATOM     32  N   UNK A   0      -9.203  -1.486 124.043  0.00  0.00    +0.000 NA
ATOM     33  C   UNK A   0      -8.722  -0.692 125.009  0.00  0.00    +0.000 A 
ATOM     34  N   UNK A   0      -8.518   0.643 124.676  0.00  0.00    +0.000 N 
ATOM     35  C   UNK A   0      -8.413  -1.144 126.289  0.00  0.00    +0.000 A 
ATOM     36  N   UNK A   0      -7.978  -0.305 127.268  0.00  0.00    +0.000 NA
ATOM     37  H   UNK A   0     -10.074  -4.548 123.649  0.00  0.00    +0.000 HD
ATOM     38  H   UNK A   0     -10.203  -3.183 122.537  0.00  0.00    +0.000 HD
ATOM     39  H   UNK A   0      -8.738   0.960 123.745  0.00  0.00    +0.000 HD
ATOM     40  H   UNK A   0      -8.107   1.256 125.366  0.00  0.00    +0.000 HD
ENDBRANCH  24  25
ENDBRANCH  23  24
ENDBRANCH   1  23
TORSDOF 11
ENDMDL
MODEL 3
REMARK VINA RESULT:      -8.0      5.468      8.611
REMARK  Name = Methotrexate
REMARK  12 active torsions:
REMARK  status: ('A' for Active; 'I' for Inactive)
REMARK    1  A    between atoms: C_1  and  N_2
REMARK    2  A    between atoms: N_2  and  C_3
REMARK    3  A    between atoms: N_2  and  C_16
REMARK    4  A    between atoms: C_3  and  C_4
REMARK    5  A    between atoms: C_19  and  C_22
REMARK    6  A    between atoms: N_24  and  CA_25
REMARK    7  A    between atoms: CA_25  and  CB_26
REMARK    8  A    between atoms: CA_25  and  C_31
REMARK    9  A    between atoms: CB_26  and  CG_27
REMARK   10  A    between atoms: CG_27  and  CD_28
REMARK   11  A    between atoms: CD_28  and  OE1_29
REMARK   12  A    between atoms: C_31  and  O_32
REMARK                            x       y       z     vdW  Elec       q    Type
REMARK                         _______ _______ _______ _____ _____    ______ ____
ROOT
ATOM      1  C   UNK A   0      -8.907   3.953 131.852  0.00  0.00    +0.000 A 
ATOM      2  C   UNK A   0      -8.040   5.044 131.794  0.00  0.00    +0.000 A 
ATOM      3  C   UNK A   0      -7.668   5.713 132.967  0.00  0.00    +0.000 A 
ATOM      4  C   UNK A   0      -7.907   5.128 134.217  0.00  0.00    +0.000 A 
ATOM      5  C   UNK A   0      -8.718   4.003 134.289  0.00  0.00    +0.000 A 
ATOM      6  C   UNK A   0      -9.256   3.470 133.124  0.00  0.00    +0.000 A 
ENDROOT
BRANCH   4   7
ATOM      7  C   UNK A   0      -7.173   5.652 135.398  0.00  0.00    +0.000 C 
ATOM      8  O   UNK A   0      -5.946   5.648 135.374  0.00  0.00    +0.000 OA
ATOM      9  N   GLU A   1      -7.914   6.098 136.481  0.00  0.00    +0.000 N 
ATOM     10  H   GLU A   1      -8.892   5.908 136.465  0.00  0.00    +0.000 HD
BRANCH   9  11
ATOM     11  CA  GLU A   1      -7.318   6.751 137.660  0.00  0.00    +0.000 C 
BRANCH  11  12
ATOM     12  C   GLU A   1      -6.743   5.799 138.746  0.00  0.00    +0.000 C 
ATOM     13  OXT GLU A   1      -7.282   5.641 139.836  0.00  0.00    +0.000 OA
BRANCH  12  14
ATOM     14  O   GLU A   1      -5.641   5.085 138.438  0.00  0.00    +0.000 OA
ATOM     15  H   GLU A   1      -5.709   4.355 137.807  0.00  0.00    +0.000 HD
ENDBRANCH  12  14
ENDBRANCH  11  12
BRANCH  11  16
ATOM     16  CB  GLU A   1      -8.343   7.657 138.386  0.00  0.00    +0.000 C 
BRANCH  16  17
ATOM     17  CG  GLU A   1      -9.019   8.687 137.488  0.00  0.00    +0.000 C 
BRANCH  17  18
ATOM     18  CD  GLU A   1     -10.252   9.391 137.966  0.00  0.00    +0.000 C 
ATOM     19  OE2 GLU A   1     -10.188  10.369 138.713  0.00  0.00    +0.000 OA
BRANCH  18  20
ATOM     20  OE1 GLU A   1     -11.423   8.951 137.484  0.00  0.00    +0.000 OA
ATOM     21  HE1 GLU A   1     -11.993   8.482 138.117  0.00  0.00    +0.000 HD
ENDBRANCH  18  20
ENDBRANCH  17  18
ENDBRANCH  16  17
ENDBRANCH  11  16
ENDBRANCH   9  11
ENDBRANCH   4   7
BRANCH   1  23
ATOM     22  C   UNK A   0      -8.641   2.533 129.955  0.00  0.00    +0.000 C 
ATOM     23  N   UNK A   0      -9.514   3.412 130.724  0.00  0.00    +0.000 N 
BRANCH  23  24
ATOM     24  C   UNK A   0     -10.934   3.674 130.396  0.00  0.00    +0.000 C 
BRANCH  24  25
ATOM     25  C   UNK A   0     -11.349   5.144 130.328  0.00  0.00    +0.000 A 
ATOM     26  C   UNK A   0     -11.622   5.892 131.455  0.00  0.00    +0.000 A 
ATOM     27  N   UNK A   0     -12.103   7.170 131.397  0.00  0.00    +0.000 NA
ATOM     28  C   UNK A   0     -12.356   7.716 130.187  0.00  0.00    +0.000 A 
ATOM     29  N   UNK A   0     -12.878   8.943 130.099  0.00  0.00    +0.000 NA
ATOM     30  C   UNK A   0     -13.153   9.425 128.884  0.00  0.00    +0.000 A 
ATOM     31  N   UNK A   0     -13.626  10.703 128.797  0.00  0.00    +0.000 N 
ATOM     32  N   UNK A   0     -12.999   8.752 127.745  0.00  0.00    +0.000 NA
ATOM     33  C   UNK A   0     -12.466   7.527 127.846  0.00  0.00    +0.000 A 
ATOM     34  N   UNK A   0     -12.337   6.803 126.666  0.00  0.00    +0.000 N 
ATOM     35  C   UNK A   0     -12.064   6.964 129.055  0.00  0.00    +0.000 A 
ATOM     36  N   UNK A   0     -11.475   5.741 129.123  0.00  0.00    +0.000 NA
ATOM     37  H   UNK A   0     -13.716  11.236 129.645  0.00  0.00    +0.000 HD
ATOM     38  H   UNK A   0     -13.817  11.089 127.888  0.00  0.00    +0.000 HD
ATOM     39  H   UNK A   0     -12.637   7.216 125.797  0.00  0.00    +0.000 HD
ATOM     40  H   UNK A   0     -11.988   5.857 126.715  0.00  0.00    +0.000 HD
ENDBRANCH  24  25
ENDBRANCH  23  24
ENDBRANCH   1  23
TORSDOF 11
ENDMDL
MODEL 4
REMARK VINA RESULT:      -8.0      4.093      5.275
REMARK  Name = Methotrexate
REMARK  12 active torsions:
REMARK  status: ('A' for Active; 'I' for Inactive)
REMARK    1  A    between atoms: C_1  and  N_2
REMARK    2  A    between atoms: N_2  and  C_3
REMARK    3  A    between atoms: N_2  and  C_16
REMARK    4  A    between atoms: C_3  and  C_4
REMARK    5  A    between atoms: C_19  and  C_22
REMARK    6  A    between atoms: N_24  and  CA_25
REMARK    7  A    between atoms: CA_25  and  CB_26
REMARK    8  A    between atoms: CA_25  and  C_31
REMARK    9  A    between atoms: CB_26  and  CG_27
REMARK   10  A    between atoms: CG_27  and  CD_28
REMARK   11  A    between atoms: CD_28  and  OE1_29
REMARK   12  A    between atoms: C_31  and  O_32
REMARK                            x       y       z     vdW  Elec       q    Type
REMARK                         _______ _______ _______ _____ _____    ______ ____
ROOT
ATOM      1  C   UNK A   0      -7.951   1.028 130.764  0.00  0.00    +0.000 A 
ATOM      2  C   UNK A   0      -7.269   1.910 129.924  0.00  0.00    +0.000 A 
ATOM      3  C   UNK A   0      -7.893   3.081 129.476  0.00  0.00    +0.000 A 
ATOM      4  C   UNK A   0      -9.069   3.531 130.088  0.00  0.00    +0.000 A 
ATOM      5  C   UNK A   0      -9.730   2.692 130.975  0.00  0.00    +0.000 A 
ATOM      6  C   UNK A   0      -9.203   1.436 131.252  0.00  0.00    +0.000 A 
ENDROOT
BRANCH   4   7
ATOM      7  C   UNK A   0      -9.487   4.941 129.870  0.00  0.00    +0.000 C 
ATOM      8  O   UNK A   0      -8.662   5.737 129.434  0.00  0.00    +0.000 OA
ATOM      9  N   GLU A   1     -10.788   5.292 130.196  0.00  0.00    +0.000 N 
ATOM     10  H   GLU A   1     -11.326   4.615 130.693  0.00  0.00    +0.000 HD
BRANCH   9  11
ATOM     11  CA  GLU A   1     -11.366   6.619 129.917  0.00  0.00    +0.000 C 
BRANCH  11  12
ATOM     12  C   GLU A   1     -12.303   7.196 131.015  0.00  0.00    +0.000 C 
ATOM     13  OXT GLU A   1     -12.911   8.251 130.874  0.00  0.00    +0.000 OA
BRANCH  12  14
ATOM     14  O   GLU A   1     -12.486   6.465 132.135  0.00  0.00    +0.000 OA
ATOM     15  H   GLU A   1     -11.853   6.544 132.861  0.00  0.00    +0.000 HD
ENDBRANCH  12  14
ENDBRANCH  11  12
BRANCH  11  16
ATOM     16  CB  GLU A   1     -12.194   6.614 128.608  0.00  0.00    +0.000 C 
BRANCH  16  17
ATOM     17  CG  GLU A   1     -11.816   7.712 127.621  0.00  0.00    +0.000 C 
BRANCH  17  18
ATOM     18  CD  GLU A   1     -10.833   7.419 126.529  0.00  0.00    +0.000 C 
ATOM     19  OE2 GLU A   1     -10.854   8.033 125.460  0.00  0.00    +0.000 OA
BRANCH  18  20
ATOM     20  OE1 GLU A   1      -9.884   6.512 126.799  0.00  0.00    +0.000 OA
ATOM     21  HE1 GLU A   1      -9.748   6.308 127.740  0.00  0.00    +0.000 HD
ENDBRANCH  18  20
ENDBRANCH  17  18
ENDBRANCH  16  17
ENDBRANCH  11  16
ENDBRANCH   9  11
ENDBRANCH   4   7
BRANCH   1  23
ATOM     22  C   UNK A   0      -7.910  -0.761 132.340  0.00  0.00    +0.000 C 
ATOM     23  N   UNK A   0      -7.496  -0.258 131.035  0.00  0.00    +0.000 N 
BRANCH  23  24
ATOM     24  C   UNK A   0      -6.720  -1.039 130.046  0.00  0.00    +0.000 C 
BRANCH  24  25
ATOM     25  C   UNK A   0      -7.520  -1.664 128.903  0.00  0.00    +0.000 A 
ATOM     26  C   UNK A   0      -8.105  -2.910 128.997  0.00  0.00    +0.000 A 
ATOM     27  N   UNK A   0      -8.722  -3.520 127.943  0.00  0.00    +0.000 NA
ATOM     28  C   UNK A   0      -8.732  -2.896 126.744  0.00  0.00    +0.000 A 
ATOM     29  N   UNK A   0      -9.281  -3.492 125.681  0.00  0.00    +0.000 NA
ATOM     30  C   UNK A   0      -9.229  -2.857 124.507  0.00  0.00    +0.000 A 
ATOM     31  N   UNK A   0      -9.846  -3.441 123.439  0.00  0.00    +0.000 N 
ATOM     32  N   UNK A   0      -8.620  -1.691 124.298  0.00  0.00    +0.000 NA
ATOM     33  C   UNK A   0      -8.083  -1.101 125.374  0.00  0.00    +0.000 A 
ATOM     34  N   UNK A   0      -7.412   0.099 125.157  0.00  0.00    +0.000 N 
ATOM     35  C   UNK A   0      -8.156  -1.635 126.658  0.00  0.00    +0.000 A 
ATOM     36  N   UNK A   0      -7.651  -0.987 127.741  0.00  0.00    +0.000 NA
ATOM     37  H   UNK A   0     -10.339  -4.305 123.588  0.00  0.00    +0.000 HD
ATOM     38  H   UNK A   0      -9.836  -2.966 122.553  0.00  0.00    +0.000 HD
ATOM     39  H   UNK A   0      -7.358   0.474 124.224  0.00  0.00    +0.000 HD
ATOM     40  H   UNK A   0      -6.951   0.542 125.939  0.00  0.00    +0.000 HD
ENDBRANCH  24  25
ENDBRANCH  23  24
ENDBRANCH   1  23
TORSDOF 11
ENDMDL
MODEL 5
REMARK VINA RESULT:      -7.8      3.346      4.470
REMARK  Name = Methotrexate
REMARK  12 active torsions:
REMARK  status: ('A' for Active; 'I' for Inactive)
REMARK    1  A    between atoms: C_1  and  N_2
REMARK    2  A    between atoms: N_2  and  C_3
REMARK    3  A    between atoms: N_2  and  C_16
REMARK    4  A    between atoms: C_3  and  C_4
REMARK    5  A    between atoms: C_19  and  C_22
REMARK    6  A    between atoms: N_24  and  CA_25
REMARK    7  A    between atoms: CA_25  and  CB_26
REMARK    8  A    between atoms: CA_25  and  C_31
REMARK    9  A    between atoms: CB_26  and  CG_27
REMARK   10  A    between atoms: CG_27  and  CD_28
REMARK   11  A    between atoms: CD_28  and  OE1_29
REMARK   12  A    between atoms: C_31  and  O_32
REMARK                            x       y       z     vdW  Elec       q    Type
REMARK                         _______ _______ _______ _____ _____    ______ ____
ROOT
ATOM      1  C   UNK A   0      -6.686   2.674 128.913  0.00  0.00    +0.000 A 
ATOM      2  C   UNK A   0      -8.005   2.442 129.304  0.00  0.00    +0.000 A 
ATOM      3  C   UNK A   0      -8.683   3.380 130.092  0.00  0.00    +0.000 A 
ATOM      4  C   UNK A   0      -8.169   4.674 130.244  0.00  0.00    +0.000 A 
ATOM      5  C   UNK A   0      -6.879   4.942 129.804  0.00  0.00    +0.000 A 
ATOM      6  C   UNK A   0      -6.135   3.932 129.207  0.00  0.00    +0.000 A 
ENDROOT
BRANCH   4   7
ATOM      7  C   UNK A   0      -9.074   5.743 130.743  0.00  0.00    +0.000 C 
ATOM      8  O   UNK A   0      -8.798   6.297 131.803  0.00  0.00    +0.000 OA
ATOM      9  N   GLU A   1     -10.201   6.045 129.995  0.00  0.00    +0.000 N 
ATOM     10  H   GLU A   1     -10.418   5.430 129.240  0.00  0.00    +0.000 HD
BRANCH   9  11
ATOM     11  CA  GLU A   1     -11.111   7.160 130.310  0.00  0.00    +0.000 C 
BRANCH  11  12
ATOM     12  C   GLU A   1     -12.216   6.859 131.362  0.00  0.00    +0.000 C 
ATOM     13  OXT GLU A   1     -13.339   7.344 131.295  0.00  0.00    +0.000 OA
BRANCH  12  14
ATOM     14  O   GLU A   1     -11.924   5.984 132.347  0.00  0.00    +0.000 OA
ATOM     15  H   GLU A   1     -11.735   5.063 132.122  0.00  0.00    +0.000 HD
ENDBRANCH  12  14
ENDBRANCH  11  12
BRANCH  11  16
ATOM     16  CB  GLU A   1     -11.852   7.662 129.045  0.00  0.00    +0.000 C 
BRANCH  16  17
ATOM     17  CG  GLU A   1     -10.948   8.304 128.000  0.00  0.00    +0.000 C 
BRANCH  17  18
ATOM     18  CD  GLU A   1     -10.573   7.534 126.771  0.00  0.00    +0.000 C 
ATOM     19  OE2 GLU A   1     -10.871   7.932 125.644  0.00  0.00    +0.000 OA
BRANCH  18  20
ATOM     20  OE1 GLU A   1      -9.835   6.430 126.953  0.00  0.00    +0.000 OA
ATOM     21  HE1 GLU A   1      -9.133   6.495 127.623  0.00  0.00    +0.000 HD
ENDBRANCH  18  20
ENDBRANCH  17  18
ENDBRANCH  16  17
ENDBRANCH  11  16
ENDBRANCH   9  11
ENDBRANCH   4   7
BRANCH   1  23
ATOM     22  C   UNK A   0      -5.357   0.740 129.337  0.00  0.00    +0.000 C 
ATOM     23  N   UNK A   0      -5.880   1.686 128.358  0.00  0.00    +0.000 N 
BRANCH  23  24
ATOM     24  C   UNK A   0      -5.643   1.595 126.899  0.00  0.00    +0.000 C 
BRANCH  24  25
ATOM     25  C   UNK A   0      -6.666   0.786 126.100  0.00  0.00    +0.000 A 
ATOM     26  C   UNK A   0      -7.984   1.173 125.972  0.00  0.00    +0.000 A 
ATOM     27  N   UNK A   0      -8.926   0.398 125.358  0.00  0.00    +0.000 NA
ATOM     28  C   UNK A   0      -8.565  -0.816 124.886  0.00  0.00    +0.000 A 
ATOM     29  N   UNK A   0      -9.476  -1.620 124.329  0.00  0.00    +0.000 NA
ATOM     30  C   UNK A   0      -9.082  -2.827 123.917  0.00  0.00    +0.000 A 
ATOM     31  N   UNK A   0     -10.002  -3.618 123.292  0.00  0.00    +0.000 N 
ATOM     32  N   UNK A   0      -7.854  -3.321 124.068  0.00  0.00    +0.000 NA
ATOM     33  C   UNK A   0      -6.949  -2.502 124.618  0.00  0.00    +0.000 A 
ATOM     34  N   UNK A   0      -5.674  -3.023 124.814  0.00  0.00    +0.000 N 
ATOM     35  C   UNK A   0      -7.233  -1.194 125.004  0.00  0.00    +0.000 A 
ATOM     36  N   UNK A   0      -6.280  -0.366 125.509  0.00  0.00    +0.000 NA
ATOM     37  H   UNK A   0     -10.924  -3.248 123.140  0.00  0.00    +0.000 HD
ATOM     38  H   UNK A   0      -9.717  -4.522 122.955  0.00  0.00    +0.000 HD
ATOM     39  H   UNK A   0      -5.479  -3.972 124.538  0.00  0.00    +0.000 HD
ATOM     40  H   UNK A   0      -4.983  -2.447 125.275  0.00  0.00    +0.000 HD
ENDBRANCH  24  25
ENDBRANCH  23  24
ENDBRANCH   1  23
TORSDOF 11
ENDMDL
MODEL 6
REMARK VINA RESULT:      -7.7      4.309      5.434
REMARK  Name = Methotrexate
REMARK  12 active torsions:
REMARK  status: ('A' for Active; 'I' for Inactive)
REMARK    1  A    between atoms: C_1  and  N_2
REMARK    2  A    between atoms: N_2  and  C_3
REMARK    3  A    between atoms: N_2  and  C_16
REMARK    4  A    between atoms: C_3  and  C_4
REMARK    5  A    between atoms: C_19  and  C_22
REMARK    6  A    between atoms: N_24  and  CA_25
REMARK    7  A    between atoms: CA_25  and  CB_26
REMARK    8  A    between atoms: CA_25  and  C_31
REMARK    9  A    between atoms: CB_26  and  CG_27
REMARK   10  A    between atoms: CG_27  and  CD_28
REMARK   11  A    between atoms: CD_28  and  OE1_29
REMARK   12  A    between atoms: C_31  and  O_32
REMARK                            x       y       z     vdW  Elec       q    Type
REMARK                         _______ _______ _______ _____ _____    ______ ____
ROOT
ATOM      1  C   UNK A   0      -8.212  -0.003 130.696  0.00  0.00    +0.000 A 
ATOM      2  C   UNK A   0      -7.861   0.908 129.698  0.00  0.00    +0.000 A 
ATOM      3  C   UNK A   0      -8.491   2.156 129.629  0.00  0.00    +0.000 A 
ATOM      4  C   UNK A   0      -9.247   2.624 130.711  0.00  0.00    +0.000 A 
ATOM      5  C   UNK A   0      -9.554   1.750 131.745  0.00  0.00    +0.000 A 
ATOM      6  C   UNK A   0      -9.092   0.441 131.696  0.00  0.00    +0.000 A 
ENDROOT
BRANCH   4   7
ATOM      7  C   UNK A   0      -9.571   4.074 130.775  0.00  0.00    +0.000 C 
ATOM      8  O   UNK A   0      -8.716   4.847 131.195  0.00  0.00    +0.000 OA
ATOM      9  N   GLU A   1     -10.837   4.476 130.381  0.00  0.00    +0.000 N 
ATOM     10  H   GLU A   1     -11.506   3.756 130.213  0.00  0.00    +0.000 HD
BRANCH   9  11
ATOM     11  CA  GLU A   1     -11.247   5.888 130.281  0.00  0.00    +0.000 C 
BRANCH  11  12
ATOM     12  C   GLU A   1     -11.754   6.544 131.596  0.00  0.00    +0.000 C 
ATOM     13  OXT GLU A   1     -11.051   6.647 132.595  0.00  0.00    +0.000 OA
BRANCH  12  14
ATOM     14  O   GLU A   1     -12.999   7.064 131.600  0.00  0.00    +0.000 OA
ATOM     15  H   GLU A   1     -13.324   7.510 132.393  0.00  0.00    +0.000 HD
ENDBRANCH  12  14
ENDBRANCH  11  12
BRANCH  11  16
ATOM     16  CB  GLU A   1     -12.382   6.078 129.244  0.00  0.00    +0.000 C 
BRANCH  16  17
ATOM     17  CG  GLU A   1     -12.031   7.008 128.089  0.00  0.00    +0.000 C 
BRANCH  17  18
ATOM     18  CD  GLU A   1     -11.378   8.326 128.372  0.00  0.00    +0.000 C 
ATOM     19  OE2 GLU A   1     -10.159   8.477 128.273  0.00  0.00    +0.000 OA
BRANCH  18  20
ATOM     20  OE1 GLU A   1     -12.191   9.351 128.665  0.00  0.00    +0.000 OA
ATOM     21  HE1 GLU A   1     -11.927  10.216 128.309  0.00  0.00    +0.000 HD
ENDBRANCH  18  20
ENDBRANCH  17  18
ENDBRANCH  16  17
ENDBRANCH  11  16
ENDBRANCH   9  11
ENDBRANCH   4   7
BRANCH   1  23
ATOM     22  C   UNK A   0      -6.925  -1.703 131.763  0.00  0.00    +0.000 C 
ATOM     23  N   UNK A   0      -7.820  -1.337 130.671  0.00  0.00    +0.000 N 
BRANCH  23  24
ATOM     24  C   UNK A   0      -8.329  -2.284 129.653  0.00  0.00    +0.000 C 
BRANCH  24  25
ATOM     25  C   UNK A   0      -7.553  -2.340 128.337  0.00  0.00    +0.000 A 
ATOM     26  C   UNK A   0      -6.236  -1.944 128.233  0.00  0.00    +0.000 A 
ATOM     27  N   UNK A   0      -5.573  -1.883 127.040  0.00  0.00    +0.000 NA
ATOM     28  C   UNK A   0      -6.243  -2.189 125.907  0.00  0.00    +0.000 A 
ATOM     29  N   UNK A   0      -5.637  -2.087 124.719  0.00  0.00    +0.000 NA
ATOM     30  C   UNK A   0      -6.351  -2.356 123.624  0.00  0.00    +0.000 A 
ATOM     31  N   UNK A   0      -5.710  -2.312 122.419  0.00  0.00    +0.000 N 
ATOM     32  N   UNK A   0      -7.646  -2.669 123.615  0.00  0.00    +0.000 NA
ATOM     33  C   UNK A   0      -8.237  -2.778 124.812  0.00  0.00    +0.000 A 
ATOM     34  N   UNK A   0      -9.598  -3.066 124.811  0.00  0.00    +0.000 N 
ATOM     35  C   UNK A   0      -7.564  -2.602 126.018  0.00  0.00    +0.000 A 
ATOM     36  N   UNK A   0      -8.177  -2.774 127.220  0.00  0.00    +0.000 NA
ATOM     37  H   UNK A   0      -4.725  -2.110 122.411  0.00  0.00    +0.000 HD
ATOM     38  H   UNK A   0      -6.227  -2.534 121.585  0.00  0.00    +0.000 HD
ATOM     39  H   UNK A   0     -10.079  -3.185 123.933  0.00  0.00    +0.000 HD
ATOM     40  H   UNK A   0     -10.085  -3.103 125.696  0.00  0.00    +0.000 HD
ENDBRANCH  24  25
ENDBRANCH  23  24
ENDBRANCH   1  23
TORSDOF 11
ENDMDL
MODEL 7
REMARK VINA RESULT:      -7.7      5.488      8.917
REMARK  Name = Methotrexate
REMARK  12 active torsions:
REMARK  status: ('A' for Active; 'I' for Inactive)
REMARK    1  A    between atoms: C_1  and  N_2
REMARK    2  A    between atoms: N_2  and  C_3
REMARK    3  A    between atoms: N_2  and  C_16
REMARK    4  A    between atoms: C_3  and  C_4
REMARK    5  A    between atoms: C_19  and  C_22
REMARK    6  A    between atoms: N_24  and  CA_25
REMARK    7  A    between atoms: CA_25  and  CB_26
REMARK    8  A    between atoms: CA_25  and  C_31
REMARK    9  A    between atoms: CB_26  and  CG_27
REMARK   10  A    between atoms: CG_27  and  CD_28
REMARK   11  A    between atoms: CD_28  and  OE1_29
REMARK   12  A    between atoms: C_31  and  O_32
REMARK                            x       y       z     vdW  Elec       q    Type
REMARK                         _______ _______ _______ _____ _____    ______ ____
ROOT
ATOM      1  C   UNK A   0      -8.266   1.165 129.997  0.00  0.00    +0.000 A 
ATOM      2  C   UNK A   0      -7.871  -0.119 130.374  0.00  0.00    +0.000 A 
ATOM      3  C   UNK A   0      -7.700  -1.117 129.408  0.00  0.00    +0.000 A 
ATOM      4  C   UNK A   0      -7.628  -0.779 128.051  0.00  0.00    +0.000 A 
ATOM      5  C   UNK A   0      -7.959   0.513 127.661  0.00  0.00    +0.000 A 
ATOM      6  C   UNK A   0      -8.332   1.444 128.623  0.00  0.00    +0.000 A 
ENDROOT
BRANCH   4   7
ATOM      7  C   UNK A   0      -7.068  -1.774 127.099  0.00  0.00    +0.000 C 
ATOM      8  O   UNK A   0      -5.956  -2.239 127.325  0.00  0.00    +0.000 OA
ATOM      9  N   GLU A   1      -7.825  -2.109 125.987  0.00  0.00    +0.000 N 
ATOM     10  H   GLU A   1      -8.636  -1.558 125.812  0.00  0.00    +0.000 HD
BRANCH   9  11
ATOM     11  CA  GLU A   1      -7.444  -3.167 125.034  0.00  0.00    +0.000 C 
BRANCH  11  12
ATOM     12  C   GLU A   1      -6.102  -2.950 124.279  0.00  0.00    +0.000 C 
ATOM     13  OXT GLU A   1      -5.458  -3.877 123.801  0.00  0.00    +0.000 OA
BRANCH  12  14
ATOM     14  O   GLU A   1      -5.675  -1.682 124.106  0.00  0.00    +0.000 OA
ATOM     15  H   GLU A   1      -4.730  -1.488 124.162  0.00  0.00    +0.000 HD
ENDBRANCH  12  14
ENDBRANCH  11  12
BRANCH  11  16
ATOM     16  CB  GLU A   1      -8.523  -3.360 123.939  0.00  0.00    +0.000 C 
BRANCH  16  17
ATOM     17  CG  GLU A   1      -8.475  -2.326 122.820  0.00  0.00    +0.000 C 
BRANCH  17  18
ATOM     18  CD  GLU A   1      -9.077  -0.972 123.036  0.00  0.00    +0.000 C 
ATOM     19  OE2 GLU A   1     -10.186  -0.679 122.587  0.00  0.00    +0.000 OA
BRANCH  18  20
ATOM     20  OE1 GLU A   1      -8.383  -0.120 123.804  0.00  0.00    +0.000 OA
ATOM     21  HE1 GLU A   1      -8.340  -0.341 124.750  0.00  0.00    +0.000 HD
ENDBRANCH  18  20
ENDBRANCH  17  18
ENDBRANCH  16  17
ENDBRANCH  11  16
ENDBRANCH   9  11
ENDBRANCH   4   7
BRANCH   1  23
ATOM     22  C   UNK A   0      -9.666   1.609 131.875  0.00  0.00    +0.000 C 
ATOM     23  N   UNK A   0      -8.698   2.120 130.912  0.00  0.00    +0.000 N 
BRANCH  23  24
ATOM     24  C   UNK A   0      -8.161   3.500 130.917  0.00  0.00    +0.000 C 
BRANCH  24  25
ATOM     25  C   UNK A   0      -8.986   4.546 130.168  0.00  0.00    +0.000 A 
ATOM     26  C   UNK A   0      -8.627   5.027 128.926  0.00  0.00    +0.000 A 
ATOM     27  N   UNK A   0      -9.296   6.043 128.304  0.00  0.00    +0.000 NA
ATOM     28  C   UNK A   0     -10.331   6.629 128.944  0.00  0.00    +0.000 A 
ATOM     29  N   UNK A   0     -10.971   7.661 128.384  0.00  0.00    +0.000 NA
ATOM     30  C   UNK A   0     -11.959   8.237 129.073  0.00  0.00    +0.000 A 
ATOM     31  N   UNK A   0     -12.649   9.249 128.470  0.00  0.00    +0.000 N 
ATOM     32  N   UNK A   0     -12.327   7.898 130.307  0.00  0.00    +0.000 NA
ATOM     33  C   UNK A   0     -11.685   6.856 130.852  0.00  0.00    +0.000 A 
ATOM     34  N   UNK A   0     -12.036   6.519 132.155  0.00  0.00    +0.000 N 
ATOM     35  C   UNK A   0     -10.699   6.131 130.188  0.00  0.00    +0.000 A 
ATOM     36  N   UNK A   0     -10.103   5.043 130.744  0.00  0.00    +0.000 NA
ATOM     37  H   UNK A   0     -12.407   9.495 127.526  0.00  0.00    +0.000 HD
ATOM     38  H   UNK A   0     -13.412   9.679 128.965  0.00  0.00    +0.000 HD
ATOM     39  H   UNK A   0     -12.746   7.054 132.630  0.00  0.00    +0.000 HD
ATOM     40  H   UNK A   0     -11.534   5.772 132.613  0.00  0.00    +0.000 HD
ENDBRANCH  24  25
ENDBRANCH  23  24
ENDBRANCH   1  23
TORSDOF 11
ENDMDL
MODEL 8
REMARK VINA RESULT:      -7.7      2.156      3.123
REMARK  Name = Methotrexate
REMARK  12 active torsions:
REMARK  status: ('A' for Active; 'I' for Inactive)
REMARK    1  A    between atoms: C_1  and  N_2
REMARK    2  A    between atoms: N_2  and  C_3
REMARK    3  A    between atoms: N_2  and  C_16
REMARK    4  A    between atoms: C_3  and  C_4
REMARK    5  A    between atoms: C_19  and  C_22
REMARK    6  A    between atoms: N_24  and  CA_25
REMARK    7  A    between atoms: CA_25  and  CB_26
REMARK    8  A    between atoms: CA_25  and  C_31
REMARK    9  A    between atoms: CB_26  and  CG_27
REMARK   10  A    between atoms: CG_27  and  CD_28
REMARK   11  A    between atoms: CD_28  and  OE1_29
REMARK   12  A    between atoms: C_31  and  O_32
REMARK                            x       y       z     vdW  Elec       q    Type
REMARK                         _______ _______ _______ _____ _____    ______ ____
ROOT
ATOM      1  C   UNK A   0      -6.763   2.595 129.689  0.00  0.00    +0.000 A 
ATOM      2  C   UNK A   0      -6.748   3.957 129.383  0.00  0.00    +0.000 A 
ATOM      3  C   UNK A   0      -7.949   4.662 129.240  0.00  0.00    +0.000 A 
ATOM      4  C   UNK A   0      -9.151   4.102 129.690  0.00  0.00    +0.000 A 
ATOM      5  C   UNK A   0      -9.174   2.764 130.059  0.00  0.00    +0.000 A 
ATOM      6  C   UNK A   0      -8.005   2.015 129.994  0.00  0.00    +0.000 A 
ENDROOT
BRANCH   4   7
ATOM      7  C   UNK A   0     -10.321   4.998 129.886  0.00  0.00    +0.000 C 
ATOM      8  O   UNK A   0     -11.445   4.504 129.881  0.00  0.00    +0.000 OA
ATOM      9  N   GLU A   1     -10.085   6.355 130.040  0.00  0.00    +0.000 N 
ATOM     10  H   GLU A   1      -9.155   6.672 129.866  0.00  0.00    +0.000 HD
BRANCH   9  11
ATOM     11  CA  GLU A   1     -11.139   7.333 130.362  0.00  0.00    +0.000 C 
BRANCH  11  12
ATOM     12  C   GLU A   1     -12.187   6.879 131.417  0.00  0.00    +0.000 C 
ATOM     13  OXT GLU A   1     -13.355   7.252 131.388  0.00  0.00    +0.000 OA
BRANCH  12  14
ATOM     14  O   GLU A   1     -11.791   5.998 132.358  0.00  0.00    +0.000 OA
ATOM     15  H   GLU A   1     -12.247   5.977 133.210  0.00  0.00    +0.000 HD
ENDBRANCH  12  14
ENDBRANCH  11  12
BRANCH  11  16
ATOM     16  CB  GLU A   1     -11.947   7.731 129.101  0.00  0.00    +0.000 C 
BRANCH  16  17
ATOM     17  CG  GLU A   1     -11.093   8.185 127.924  0.00  0.00    +0.000 C 
BRANCH  17  18
ATOM     18  CD  GLU A   1     -11.316   7.582 126.571  0.00  0.00    +0.000 C 
ATOM     19  OE2 GLU A   1     -10.710   7.985 125.577  0.00  0.00    +0.000 OA
BRANCH  18  20
ATOM     20  OE1 GLU A   1     -12.151   6.536 126.508  0.00  0.00    +0.000 OA
ATOM     21  HE1 GLU A   1     -11.954   5.800 127.112  0.00  0.00    +0.000 HD
ENDBRANCH  18  20
ENDBRANCH  17  18
ENDBRANCH  16  17
ENDBRANCH  11  16
ENDBRANCH   9  11
ENDBRANCH   4   7
BRANCH   1  23
ATOM     22  C   UNK A   0      -4.737   1.900 130.736  0.00  0.00    +0.000 C 
ATOM     23  N   UNK A   0      -5.636   1.788 129.593  0.00  0.00    +0.000 N 
BRANCH  23  24
ATOM     24  C   UNK A   0      -5.426   0.867 128.452  0.00  0.00    +0.000 C 
BRANCH  24  25
ATOM     25  C   UNK A   0      -5.761   1.423 127.068  0.00  0.00    +0.000 A 
ATOM     26  C   UNK A   0      -4.939   2.309 126.403  0.00  0.00    +0.000 A 
ATOM     27  N   UNK A   0      -5.287   2.896 125.220  0.00  0.00    +0.000 NA
ATOM     28  C   UNK A   0      -6.502   2.628 124.692  0.00  0.00    +0.000 A 
ATOM     29  N   UNK A   0      -6.892   3.229 123.563  0.00  0.00    +0.000 NA
ATOM     30  C   UNK A   0      -8.118   2.968 123.103  0.00  0.00    +0.000 A 
ATOM     31  N   UNK A   0      -8.487   3.535 121.917  0.00  0.00    +0.000 N 
ATOM     32  N   UNK A   0      -9.011   2.191 123.713  0.00  0.00    +0.000 NA
ATOM     33  C   UNK A   0      -8.604   1.587 124.836  0.00  0.00    +0.000 A 
ATOM     34  N   UNK A   0      -9.543   0.804 125.500  0.00  0.00    +0.000 N 
ATOM     35  C   UNK A   0      -7.319   1.723 125.357  0.00  0.00    +0.000 A 
ATOM     36  N   UNK A   0      -6.915   1.054 126.470  0.00  0.00    +0.000 NA
ATOM     37  H   UNK A   0      -7.812   4.097 121.427  0.00  0.00    +0.000 HD
ATOM     38  H   UNK A   0      -9.398   3.331 121.544  0.00  0.00    +0.000 HD
ATOM     39  H   UNK A   0     -10.472   0.717 125.120  0.00  0.00    +0.000 HD
ATOM     40  H   UNK A   0      -9.283   0.378 126.378  0.00  0.00    +0.000 HD
ENDBRANCH  24  25
ENDBRANCH  23  24
ENDBRANCH   1  23
TORSDOF 11
ENDMDL
MODEL 9
REMARK VINA RESULT:      -7.6      1.547      2.431
REMARK  Name = Methotrexate
REMARK  12 active torsions:
REMARK  status: ('A' for Active; 'I' for Inactive)
REMARK    1  A    between atoms: C_1  and  N_2
REMARK    2  A    between atoms: N_2  and  C_3
REMARK    3  A    between atoms: N_2  and  C_16
REMARK    4  A    between atoms: C_3  and  C_4
REMARK    5  A    between atoms: C_19  and  C_22
REMARK    6  A    between atoms: N_24  and  CA_25
REMARK    7  A    between atoms: CA_25  and  CB_26
REMARK    8  A    between atoms: CA_25  and  C_31
REMARK    9  A    between atoms: CB_26  and  CG_27
REMARK   10  A    between atoms: CG_27  and  CD_28
REMARK   11  A    between atoms: CD_28  and  OE1_29
REMARK   12  A    between atoms: C_31  and  O_32
REMARK                            x       y       z     vdW  Elec       q    Type
REMARK                         _______ _______ _______ _____ _____    ______ ____
ROOT
ATOM      1  C   UNK A   0      -4.888   6.567 131.945  0.00  0.00    +0.000 A 
ATOM      2  C   UNK A   0      -5.507   7.182 130.856  0.00  0.00    +0.000 A 
ATOM      3  C   UNK A   0      -6.874   6.990 130.621  0.00  0.00    +0.000 A 
ATOM      4  C   UNK A   0      -7.690   6.442 131.618  0.00  0.00    +0.000 A 
ATOM      5  C   UNK A   0      -7.095   5.880 132.740  0.00  0.00    +0.000 A 
ATOM      6  C   UNK A   0      -5.711   5.892 132.861  0.00  0.00    +0.000 A 
ENDROOT
BRANCH   4   7
ATOM      7  C   UNK A   0      -9.163   6.607 131.501  0.00  0.00    +0.000 C 
ATOM      8  O   UNK A   0      -9.854   6.423 132.497  0.00  0.00    +0.000 OA
ATOM      9  N   GLU A   1      -9.684   6.938 130.260  0.00  0.00    +0.000 N 
ATOM     10  H   GLU A   1      -9.058   6.905 129.485  0.00  0.00    +0.000 HD
BRANCH   9  11
ATOM     11  CA  GLU A   1     -11.106   7.249 130.033  0.00  0.00    +0.000 C 
BRANCH  11  12
ATOM     12  C   GLU A   1     -12.017   6.043 129.667  0.00  0.00    +0.000 C 
ATOM     13  OXT GLU A   1     -11.695   4.882 129.894  0.00  0.00    +0.000 OA
BRANCH  12  14
ATOM     14  O   GLU A   1     -13.226   6.308 129.131  0.00  0.00    +0.000 OA
ATOM     15  H   GLU A   1     -13.922   6.676 129.692  0.00  0.00    +0.000 HD
ENDBRANCH  12  14
ENDBRANCH  11  12
BRANCH  11  16
ATOM     16  CB  GLU A   1     -11.287   8.282 128.892  0.00  0.00    +0.000 C 
BRANCH  16  17
ATOM     17  CG  GLU A   1     -10.439   8.007 127.655  0.00  0.00    +0.000 C 
BRANCH  17  18
ATOM     18  CD  GLU A   1     -11.106   7.615 126.373  0.00  0.00    +0.000 C 
ATOM     19  OE2 GLU A   1     -10.755   8.089 125.291  0.00  0.00    +0.000 OA
BRANCH  18  20
ATOM     20  OE1 GLU A   1     -12.053   6.668 126.450  0.00  0.00    +0.000 OA
ATOM     21  HE1 GLU A   1     -12.675   6.751 127.193  0.00  0.00    +0.000 HD
ENDBRANCH  18  20
ENDBRANCH  17  18
ENDBRANCH  16  17
ENDBRANCH  11  16
ENDBRANCH   9  11
ENDBRANCH   4   7
BRANCH   1  23
ATOM     22  C   UNK A   0      -3.001   7.279 133.217  0.00  0.00    +0.000 C 
ATOM     23  N   UNK A   0      -3.506   6.504 132.090  0.00  0.00    +0.000 N 
BRANCH  23  24
ATOM     24  C   UNK A   0      -2.663   5.670 131.203  0.00  0.00    +0.000 C 
BRANCH  24  25
ATOM     25  C   UNK A   0      -3.338   4.445 130.587  0.00  0.00    +0.000 A 
ATOM     26  C   UNK A   0      -3.651   3.320 131.322  0.00  0.00    +0.000 A 
ATOM     27  N   UNK A   0      -4.149   2.181 130.756  0.00  0.00    +0.000 NA
ATOM     28  C   UNK A   0      -4.311   2.137 129.415  0.00  0.00    +0.000 A 
ATOM     29  N   UNK A   0      -4.744   1.018 128.826  0.00  0.00    +0.000 NA
ATOM     30  C   UNK A   0      -4.846   1.006 127.495  0.00  0.00    +0.000 A 
ATOM     31  N   UNK A   0      -5.350  -0.118 126.905  0.00  0.00    +0.000 N 
ATOM     32  N   UNK A   0      -4.496   2.011 126.695  0.00  0.00    +0.000 NA
ATOM     33  C   UNK A   0      -4.072   3.130 127.298  0.00  0.00    +0.000 A 
ATOM     34  N   UNK A   0      -3.667   4.171 126.469  0.00  0.00    +0.000 N 
ATOM     35  C   UNK A   0      -4.009   3.277 128.682  0.00  0.00    +0.000 A 
ATOM     36  N   UNK A   0      -3.628   4.444 129.268  0.00  0.00    +0.000 NA
ATOM     37  H   UNK A   0      -5.651  -0.872 127.497  0.00  0.00    +0.000 HD
ATOM     38  H   UNK A   0      -5.455  -0.135 125.905  0.00  0.00    +0.000 HD
ATOM     39  H   UNK A   0      -3.710   4.052 125.469  0.00  0.00    +0.000 HD
ATOM     40  H   UNK A   0      -3.294   5.008 126.893  0.00  0.00    +0.000 HD
ENDBRANCH  24  25
ENDBRANCH  23  24
ENDBRANCH   1  23
TORSDOF 11
ENDMDL
