MODEL 1
REMARK VINA RESULT:      -3.5      0.000      0.000
REMARK  Name = Methimazole
REMARK  1 active torsions:
REMARK  status: ('A' for Active; 'I' for Inactive)
REMARK    1  A    between atoms: C_1  and  N_2
REMARK                            x       y       z     vdW  Elec       q    Type
REMARK                         _______ _______ _______ _____ _____    ______ ____
ROOT
ATOM      1  C   UNL     1     -11.555   5.971 129.752  0.00  0.00    +0.000 C 
ATOM      2  N   UNL     1     -11.995   7.312 129.456  0.00  0.00    +0.000 N 
ATOM      3  C   UNL     1     -12.668   8.140 130.333  0.00  0.00    +0.000 A 
ATOM      4  C   UNL     1     -12.860   9.329 129.747  0.00  0.00    +0.000 A 
ATOM      5  N   UNL     1     -12.317   9.292 128.488  0.00  0.00    +0.000 N 
ATOM      6  C   UNL     1     -11.756   8.025 128.263  0.00  0.00    +0.000 A 
ATOM      7  S   UNL     1     -10.990   7.553 126.876  0.00  0.00    +0.000 S 
ATOM      8  H   UNL     1     -12.299  10.047 127.818  0.00  0.00    +0.000 HD
ENDROOT
TORSDOF 0
ENDMDL
MODEL 2
REMARK VINA RESULT:      -3.4      2.031      2.573
REMARK  Name = Methimazole
REMARK  1 active torsions:
REMARK  status: ('A' for Active; 'I' for Inactive)
REMARK    1  A    between atoms: C_1  and  N_2
REMARK                            x       y       z     vdW  Elec       q    Type
REMARK                         _______ _______ _______ _____ _____    ______ ____
ROOT
ATOM      1  C   UNL     1     -12.928   7.562 131.416  0.00  0.00    +0.000 C 
ATOM      2  N   UNL     1     -12.432   7.922 130.111  0.00  0.00    +0.000 N 
ATOM      3  C   UNL     1     -11.745   7.079 129.261  0.00  0.00    +0.000 A 
ATOM      4  C   UNL     1     -11.498   7.726 128.113  0.00  0.00    +0.000 A 
ATOM      5  N   UNL     1     -12.019   8.992 128.201  0.00  0.00    +0.000 N 
ATOM      6  C   UNL     1     -12.624   9.158 129.458  0.00  0.00    +0.000 A 
ATOM      7  S   UNL     1     -13.381  10.532 129.977  0.00  0.00    +0.000 S 
ATOM      8  H   UNL     1     -11.996   9.702 127.484  0.00  0.00    +0.000 HD
ENDROOT
TORSDOF 0
ENDMDL
MODEL 3
REMARK VINA RESULT:      -3.4      1.191      2.433
REMARK  Name = Methimazole
REMARK  1 active torsions:
REMARK  status: ('A' for Active; 'I' for Inactive)
REMARK    1  A    between atoms: C_1  and  N_2
REMARK                            x       y       z     vdW  Elec       q    Type
REMARK                         _______ _______ _______ _____ _____    ______ ____
ROOT
ATOM      1  C   UNL     1     -13.056   9.646 129.469  0.00  0.00    +0.000 C 
ATOM      2  N   UNL     1     -12.450   8.412 129.906  0.00  0.00    +0.000 N 
ATOM      3  C   UNL     1     -12.798   7.716 131.047  0.00  0.00    +0.000 A 
ATOM      4  C   UNL     1     -12.077   6.588 131.104  0.00  0.00    +0.000 A 
ATOM      5  N   UNL     1     -11.256   6.535 130.007  0.00  0.00    +0.000 N 
ATOM      6  C   UNL     1     -11.462   7.678 129.218  0.00  0.00    +0.000 A 
ATOM      7  S   UNL     1     -10.682   8.011 127.799  0.00  0.00    +0.000 S 
ATOM      8  H   UNL     1     -10.608   5.795 129.776  0.00  0.00    +0.000 HD
ENDROOT
TORSDOF 0
ENDMDL
MODEL 4
REMARK VINA RESULT:      -3.3      1.657      1.946
REMARK  Name = Methimazole
REMARK  1 active torsions:
REMARK  status: ('A' for Active; 'I' for Inactive)
REMARK    1  A    between atoms: C_1  and  N_2
REMARK                            x       y       z     vdW  Elec       q    Type
REMARK                         _______ _______ _______ _____ _____    ______ ____
ROOT
ATOM      1  C   UNL     1      -9.495   6.388 130.601  0.00  0.00    +0.000 C 
ATOM      2  N   UNL     1     -10.837   6.915 130.565  0.00  0.00    +0.000 N 
ATOM      3  C   UNL     1     -11.799   6.708 131.534  0.00  0.00    +0.000 A 
ATOM      4  C   UNL     1     -12.900   7.398 131.207  0.00  0.00    +0.000 A 
ATOM      5  N   UNL     1     -12.670   8.060 130.028  0.00  0.00    +0.000 N 
ATOM      6  C   UNL     1     -11.368   7.780 129.585  0.00  0.00    +0.000 A 
ATOM      7  S   UNL     1     -10.679   8.380 128.208  0.00  0.00    +0.000 S 
ATOM      8  H   UNL     1     -13.316   8.668 129.544  0.00  0.00    +0.000 HD
ENDROOT
TORSDOF 0
ENDMDL
MODEL 5
REMARK VINA RESULT:      -3.3      2.082      2.362
REMARK  Name = Methimazole
REMARK  1 active torsions:
REMARK  status: ('A' for Active; 'I' for Inactive)
REMARK    1  A    between atoms: C_1  and  N_2
REMARK                            x       y       z     vdW  Elec       q    Type
REMARK                         _______ _______ _______ _____ _____    ______ ____
ROOT
ATOM      1  C   UNL     1     -12.577   7.192 131.319  0.00  0.00    +0.000 C 
ATOM      2  N   UNL     1     -11.928   7.593 130.095  0.00  0.00    +0.000 N 
ATOM      3  C   UNL     1     -12.544   8.248 129.047  0.00  0.00    +0.000 A 
ATOM      4  C   UNL     1     -11.628   8.520 128.107  0.00  0.00    +0.000 A 
ATOM      5  N   UNL     1     -10.411   8.049 128.530  0.00  0.00    +0.000 N 
ATOM      6  C   UNL     1     -10.558   7.452 129.792  0.00  0.00    +0.000 A 
ATOM      7  S   UNL     1      -9.338   6.763 130.669  0.00  0.00    +0.000 S 
ATOM      8  H   UNL     1      -9.533   8.122 128.036  0.00  0.00    +0.000 HD
ENDROOT
TORSDOF 0
ENDMDL
MODEL 6
REMARK VINA RESULT:      -3.3      2.237      2.685
REMARK  Name = Methimazole
REMARK  1 active torsions:
REMARK  status: ('A' for Active; 'I' for Inactive)
REMARK    1  A    between atoms: C_1  and  N_2
REMARK                            x       y       z     vdW  Elec       q    Type
REMARK                         _______ _______ _______ _____ _____    ______ ____
ROOT
ATOM      1  C   UNL     1      -9.489   7.137 130.317  0.00  0.00    +0.000 C 
ATOM      2  N   UNL     1     -10.577   7.630 129.508  0.00  0.00    +0.000 N 
ATOM      3  C   UNL     1     -10.463   8.067 128.203  0.00  0.00    +0.000 A 
ATOM      4  C   UNL     1     -11.681   8.390 127.745  0.00  0.00    +0.000 A 
ATOM      5  N   UNL     1     -12.598   8.168 128.742  0.00  0.00    +0.000 N 
ATOM      6  C   UNL     1     -11.937   7.684 129.881  0.00  0.00    +0.000 A 
ATOM      7  S   UNL     1     -12.666   7.279 131.308  0.00  0.00    +0.000 S 
ATOM      8  H   UNL     1     -13.596   8.310 128.682  0.00  0.00    +0.000 HD
ENDROOT
TORSDOF 0
ENDMDL
MODEL 7
REMARK VINA RESULT:      -3.3      2.136      2.901
REMARK  Name = Methimazole
REMARK  1 active torsions:
REMARK  status: ('A' for Active; 'I' for Inactive)
REMARK    1  A    between atoms: C_1  and  N_2
REMARK                            x       y       z     vdW  Elec       q    Type
REMARK                         _______ _______ _______ _____ _____    ______ ____
ROOT
ATOM      1  C   UNL     1     -10.584   8.344 128.426  0.00  0.00    +0.000 C 
ATOM      2  N   UNL     1     -11.248   7.813 129.592  0.00  0.00    +0.000 N 
ATOM      3  C   UNL     1     -12.598   7.929 129.859  0.00  0.00    +0.000 A 
ATOM      4  C   UNL     1     -12.875   7.264 130.989  0.00  0.00    +0.000 A 
ATOM      5  N   UNL     1     -11.715   6.709 131.469  0.00  0.00    +0.000 N 
ATOM      6  C   UNL     1     -10.655   7.035 130.608  0.00  0.00    +0.000 A 
ATOM      7  S   UNL     1      -9.084   6.562 130.808  0.00  0.00    +0.000 S 
ATOM      8  H   UNL     1     -11.618   6.142 132.299  0.00  0.00    +0.000 HD
ENDROOT
TORSDOF 0
ENDMDL
MODEL 8
REMARK VINA RESULT:      -3.2      2.034      2.971
REMARK  Name = Methimazole
REMARK  1 active torsions:
REMARK  status: ('A' for Active; 'I' for Inactive)
REMARK    1  A    between atoms: C_1  and  N_2
REMARK                            x       y       z     vdW  Elec       q    Type
REMARK                         _______ _______ _______ _____ _____    ______ ____
ROOT
ATOM      1  C   UNL     1     -10.511   8.486 128.094  0.00  0.00    +0.000 C 
ATOM      2  N   UNL     1     -10.805   7.547 129.149  0.00  0.00    +0.000 N 
ATOM      3  C   UNL     1      -9.933   7.183 130.156  0.00  0.00    +0.000 A 
ATOM      4  C   UNL     1     -10.561   6.346 130.993  0.00  0.00    +0.000 A 
ATOM      5  N   UNL     1     -11.844   6.156 130.544  0.00  0.00    +0.000 N 
ATOM      6  C   UNL     1     -12.041   6.904 129.372  0.00  0.00    +0.000 A 
ATOM      7  S   UNL     1     -13.447   6.969 128.507  0.00  0.00    +0.000 S 
ATOM      8  H   UNL     1     -12.555   5.586 130.979  0.00  0.00    +0.000 HD
ENDROOT
TORSDOF 0
ENDMDL
MODEL 9
REMARK VINA RESULT:      -3.1      4.531      5.147
REMARK  Name = Methimazole
REMARK  1 active torsions:
REMARK  status: ('A' for Active; 'I' for Inactive)
REMARK    1  A    between atoms: C_1  and  N_2
REMARK                            x       y       z     vdW  Elec       q    Type
REMARK                         _______ _______ _______ _____ _____    ______ ____
ROOT
ATOM      1  C   UNL     1      -7.623   6.868 130.971  0.00  0.00    +0.000 C 
ATOM      2  N   UNL     1      -8.915   6.537 131.518  0.00  0.00    +0.000 N 
ATOM      3  C   UNL     1     -10.123   6.727 130.877  0.00  0.00    +0.000 A 
ATOM      4  C   UNL     1     -11.106   6.247 131.650  0.00  0.00    +0.000 A 
ATOM      5  N   UNL     1     -10.554   5.741 132.800  0.00  0.00    +0.000 N 
ATOM      6  C   UNL     1      -9.160   5.905 132.756  0.00  0.00    +0.000 A 
ATOM      7  S   UNL     1      -8.106   5.427 133.935  0.00  0.00    +0.000 S 
ATOM      8  H   UNL     1     -11.050   5.303 133.563  0.00  0.00    +0.000 HD
ENDROOT
TORSDOF 0
ENDMDL
