MODEL 1
REMARK VINA RESULT:      -8.3      0.000      0.000
REMARK  Name = Methylprednisone
REMARK  7 active torsions:
REMARK  status: ('A' for Active; 'I' for Inactive)
REMARK    1  A    between atoms: C_1  and  C_2
REMARK    2  A    between atoms: C_8  and  O_9
REMARK    3  A    between atoms: C_8  and  C_10
REMARK    4  A    between atoms: C_10  and  C_12
REMARK    5  A    between atoms: C_12  and  O_13
REMARK    6  A    between atoms: C_14  and  C_15
REMARK    7  A    between atoms: C_20  and  C_21
REMARK                            x       y       z     vdW  Elec       q    Type
REMARK                         _______ _______ _______ _____ _____    ______ ____
ROOT
ATOM      1  C   UNL     1      -4.082   8.877 129.985  0.00  0.00    +0.000 C 
ATOM      2  C   UNL     1      -4.222   7.368 130.274  0.00  0.00    +0.000 C 
ATOM      3  C   UNL     1      -5.813   7.075 130.825  0.00  0.00    +0.000 C 
ATOM      4  C   UNL     1      -6.184   5.534 131.176  0.00  0.00    +0.000 C 
ATOM      5  C   UNL     1      -7.800   4.669 131.170  0.00  0.00    +0.000 C 
ATOM      6  C   UNL     1      -8.759   2.847 131.253  0.00  0.00    +0.000 C 
ATOM      7  C   UNL     1      -9.460   2.622 132.588  0.00  0.00    +0.000 C 
ATOM      8  C   UNL     1      -9.213   4.025 132.467  0.00  0.00    +0.000 C 
ATOM      9  C   UNL     1      -7.473   3.700 132.121  0.00  0.00    +0.000 C 
ATOM     10  C   UNL     1      -6.582   3.606 133.310  0.00  0.00    +0.000 C 
ATOM     11  C   UNL     1      -6.844   2.913 130.585  0.00  0.00    +0.000 C 
ATOM     12  C   UNL     1      -5.528   3.378 130.560  0.00  0.00    +0.000 C 
ATOM     13  O   UNL     1      -4.717   2.616 130.966  0.00  0.00    +0.000 OA
ATOM     14  C   UNL     1      -5.505   4.818 130.117  0.00  0.00    +0.000 C 
ATOM     15  C   UNL     1      -4.092   4.961 129.820  0.00  0.00    +0.000 C 
ATOM     16  C   UNL     1      -3.103   4.700 131.004  0.00  0.00    +0.000 C 
ATOM     17  C   UNL     1      -4.344   4.101 128.553  0.00  0.00    +0.000 C 
ATOM     18  C   UNL     1      -3.487   3.134 128.467  0.00  0.00    +0.000 C 
ATOM     19  C   UNL     1      -2.571   4.096 127.798  0.00  0.00    +0.000 C 
ATOM     20  O   UNL     1      -2.135   3.623 126.757  0.00  0.00    +0.000 OA
ATOM     21  C   UNL     1      -2.750   5.850 128.243  0.00  0.00    +0.000 C 
ATOM     22  C   UNL     1      -3.566   6.227 129.314  0.00  0.00    +0.000 C 
ENDROOT
BRANCH   8  23
ATOM     23  O   UNL     1      -9.461   4.723 133.638  0.00  0.00    +0.000 OA
ATOM     24  H   UNL     1     -10.430   4.773 133.688  0.00  0.00    +0.000 HD
ENDBRANCH   8  23
BRANCH   8  25
ATOM     25  C   UNL     1     -10.194   4.552 131.029  0.00  0.00    +0.000 C 
ATOM     26  O   UNL     1     -10.580   3.832 130.091  0.00  0.00    +0.000 OA
BRANCH  25  27
ATOM     27  C   UNL     1     -10.751   5.921 131.121  0.00  0.00    +0.000 C 
BRANCH  27  28
ATOM     28  O   UNL     1     -11.896   5.863 131.959  0.00  0.00    +0.000 OA
ATOM     29  H   UNL     1     -11.612   6.217 132.829  0.00  0.00    +0.000 HD
ENDBRANCH  27  28
ENDBRANCH  25  27
ENDBRANCH   8  25
TORSDOF 4
ENDMDL
MODEL 2
REMARK VINA RESULT:      -8.1      5.335      8.368
REMARK  Name = Methylprednisone
REMARK  7 active torsions:
REMARK  status: ('A' for Active; 'I' for Inactive)
REMARK    1  A    between atoms: C_1  and  C_2
REMARK    2  A    between atoms: C_8  and  O_9
REMARK    3  A    between atoms: C_8  and  C_10
REMARK    4  A    between atoms: C_10  and  C_12
REMARK    5  A    between atoms: C_12  and  O_13
REMARK    6  A    between atoms: C_14  and  C_15
REMARK    7  A    between atoms: C_20  and  C_21
REMARK                            x       y       z     vdW  Elec       q    Type
REMARK                         _______ _______ _______ _____ _____    ______ ____
ROOT
ATOM      1  C   UNL     1      -5.570  -3.170 124.007  0.00  0.00    +0.000 C 
ATOM      2  C   UNL     1      -6.386  -2.041 124.669  0.00  0.00    +0.000 C 
ATOM      3  C   UNL     1      -5.298  -0.987 125.459  0.00  0.00    +0.000 C 
ATOM      4  C   UNL     1      -5.951   0.292 126.216  0.00  0.00    +0.000 C 
ATOM      5  C   UNL     1      -5.235   1.933 126.613  0.00  0.00    +0.000 C 
ATOM      6  C   UNL     1      -5.624   3.854 127.250  0.00  0.00    +0.000 C 
ATOM      7  C   UNL     1      -5.136   4.101 128.673  0.00  0.00    +0.000 C 
ATOM      8  C   UNL     1      -4.459   2.940 128.186  0.00  0.00    +0.000 C 
ATOM      9  C   UNL     1      -6.037   2.199 127.725  0.00  0.00    +0.000 C 
ATOM     10  C   UNL     1      -6.714   1.405 128.787  0.00  0.00    +0.000 C 
ATOM     11  C   UNL     1      -7.113   2.799 126.363  0.00  0.00    +0.000 C 
ATOM     12  C   UNL     1      -7.848   1.648 126.070  0.00  0.00    +0.000 C 
ATOM     13  O   UNL     1      -8.930   1.606 126.550  0.00  0.00    +0.000 OA
ATOM     14  C   UNL     1      -6.993   0.683 125.290  0.00  0.00    +0.000 C 
ATOM     15  C   UNL     1      -8.020  -0.217 124.802  0.00  0.00    +0.000 C 
ATOM     16  C   UNL     1      -8.880  -0.945 125.888  0.00  0.00    +0.000 C 
ATOM     17  C   UNL     1      -8.441   0.911 123.821  0.00  0.00    +0.000 C 
ATOM     18  C   UNL     1      -9.718   1.121 123.872  0.00  0.00    +0.000 C 
ATOM     19  C   UNL     1      -9.870   0.019 122.885  0.00  0.00    +0.000 C 
ATOM     20  O   UNL     1     -10.570   0.375 121.946  0.00  0.00    +0.000 OA
ATOM     21  C   UNL     1      -8.607  -1.288 122.909  0.00  0.00    +0.000 C 
ATOM     22  C   UNL     1      -7.670  -1.347 123.944  0.00  0.00    +0.000 C 
ENDROOT
BRANCH   8  23
ATOM     23  O   UNL     1      -3.757   2.267 129.173  0.00  0.00    +0.000 OA
ATOM     24  H   UNL     1      -3.817   1.332 128.916  0.00  0.00    +0.000 HD
ENDBRANCH   8  23
BRANCH   8  25
ATOM     25  C   UNL     1      -3.455   3.533 126.790  0.00  0.00    +0.000 C 
ATOM     26  O   UNL     1      -3.880   3.979 125.710  0.00  0.00    +0.000 OA
BRANCH  25  27
ATOM     27  C   UNL     1      -2.011   3.688 127.080  0.00  0.00    +0.000 C 
BRANCH  27  28
ATOM     28  O   UNL     1      -1.397   2.422 126.886  0.00  0.00    +0.000 OA
ATOM     29  H   UNL     1      -1.951   1.776 127.375  0.00  0.00    +0.000 HD
ENDBRANCH  27  28
ENDBRANCH  25  27
ENDBRANCH   8  25
TORSDOF 4
ENDMDL
MODEL 3
REMARK VINA RESULT:      -8.0      5.915      7.870
REMARK  Name = Methylprednisone
REMARK  7 active torsions:
REMARK  status: ('A' for Active; 'I' for Inactive)
REMARK    1  A    between atoms: C_1  and  C_2
REMARK    2  A    between atoms: C_8  and  O_9
REMARK    3  A    between atoms: C_8  and  C_10
REMARK    4  A    between atoms: C_10  and  C_12
REMARK    5  A    between atoms: C_12  and  O_13
REMARK    6  A    between atoms: C_14  and  C_15
REMARK    7  A    between atoms: C_20  and  C_21
REMARK                            x       y       z     vdW  Elec       q    Type
REMARK                         _______ _______ _______ _____ _____    ______ ____
ROOT
ATOM      1  C   UNL     1      -5.387   4.286 122.337  0.00  0.00    +0.000 C 
ATOM      2  C   UNL     1      -5.987   3.656 123.611  0.00  0.00    +0.000 C 
ATOM      3  C   UNL     1      -6.586   2.107 123.211  0.00  0.00    +0.000 C 
ATOM      4  C   UNL     1      -7.254   1.255 124.420  0.00  0.00    +0.000 C 
ATOM      5  C   UNL     1      -7.429  -0.557 124.643  0.00  0.00    +0.000 C 
ATOM      6  C   UNL     1      -7.894  -2.076 125.956  0.00  0.00    +0.000 C 
ATOM      7  C   UNL     1      -9.246  -2.710 125.651  0.00  0.00    +0.000 C 
ATOM      8  C   UNL     1      -8.833  -2.005 124.479  0.00  0.00    +0.000 C 
ATOM      9  C   UNL     1      -8.564  -0.514 125.458  0.00  0.00    +0.000 C 
ATOM     10  C   UNL     1      -9.746   0.375 125.622  0.00  0.00    +0.000 C 
ATOM     11  C   UNL     1      -7.228  -0.310 126.701  0.00  0.00    +0.000 C 
ATOM     12  C   UNL     1      -7.106   1.080 126.745  0.00  0.00    +0.000 C 
ATOM     13  O   UNL     1      -7.664   1.607 127.648  0.00  0.00    +0.000 OA
ATOM     14  C   UNL     1      -6.370   1.566 125.523  0.00  0.00    +0.000 C 
ATOM     15  C   UNL     1      -6.050   2.915 125.948  0.00  0.00    +0.000 C 
ATOM     16  C   UNL     1      -7.263   3.838 126.302  0.00  0.00    +0.000 C 
ATOM     17  C   UNL     1      -4.992   2.289 126.897  0.00  0.00    +0.000 C 
ATOM     18  C   UNL     1      -5.112   2.752 128.100  0.00  0.00    +0.000 C 
ATOM     19  C   UNL     1      -4.256   3.891 127.675  0.00  0.00    +0.000 C 
ATOM     20  O   UNL     1      -3.337   4.060 128.466  0.00  0.00    +0.000 OA
ATOM     21  C   UNL     1      -4.322   4.360 125.919  0.00  0.00    +0.000 C 
ATOM     22  C   UNL     1      -5.289   3.806 125.075  0.00  0.00    +0.000 C 
ENDROOT
BRANCH   8  23
ATOM     23  O   UNL     1      -9.831  -1.910 123.522  0.00  0.00    +0.000 OA
ATOM     24  H   UNL     1     -10.364  -2.712 123.649  0.00  0.00    +0.000 HD
ENDBRANCH   8  23
BRANCH   8  25
ATOM     25  C   UNL     1      -7.316  -2.847 123.934  0.00  0.00    +0.000 C 
ATOM     26  O   UNL     1      -6.946  -3.990 124.258  0.00  0.00    +0.000 OA
BRANCH  25  27
ATOM     27  C   UNL     1      -6.584  -2.170 122.839  0.00  0.00    +0.000 C 
BRANCH  27  28
ATOM     28  O   UNL     1      -5.263  -2.691 122.819  0.00  0.00    +0.000 OA
ATOM     29  H   UNL     1      -5.287  -3.508 123.363  0.00  0.00    +0.000 HD
ENDBRANCH  27  28
ENDBRANCH  25  27
ENDBRANCH   8  25
TORSDOF 4
ENDMDL
MODEL 4
REMARK VINA RESULT:      -8.0      6.739      8.994
REMARK  Name = Methylprednisone
REMARK  7 active torsions:
REMARK  status: ('A' for Active; 'I' for Inactive)
REMARK    1  A    between atoms: C_1  and  C_2
REMARK    2  A    between atoms: C_8  and  O_9
REMARK    3  A    between atoms: C_8  and  C_10
REMARK    4  A    between atoms: C_10  and  C_12
REMARK    5  A    between atoms: C_12  and  O_13
REMARK    6  A    between atoms: C_14  and  C_15
REMARK    7  A    between atoms: C_20  and  C_21
REMARK                            x       y       z     vdW  Elec       q    Type
REMARK                         _______ _______ _______ _____ _____    ______ ____
ROOT
ATOM      1  C   UNL     1      -5.793  -2.100 128.793  0.00  0.00    +0.000 C 
ATOM      2  C   UNL     1      -6.261  -1.991 127.327  0.00  0.00    +0.000 C 
ATOM      3  C   UNL     1      -6.600  -0.351 126.993  0.00  0.00    +0.000 C 
ATOM      4  C   UNL     1      -7.099  -0.006 125.488  0.00  0.00    +0.000 C 
ATOM      5  C   UNL     1      -6.967   1.543 124.515  0.00  0.00    +0.000 C 
ATOM      6  C   UNL     1      -7.152   2.410 122.655  0.00  0.00    +0.000 C 
ATOM      7  C   UNL     1      -8.384   3.302 122.553  0.00  0.00    +0.000 C 
ATOM      8  C   UNL     1      -8.112   3.110 123.943  0.00  0.00    +0.000 C 
ATOM      9  C   UNL     1      -8.080   1.323 123.701  0.00  0.00    +0.000 C 
ATOM     10  C   UNL     1      -9.391   0.629 123.823  0.00  0.00    +0.000 C 
ATOM     11  C   UNL     1      -6.779   0.419 122.772  0.00  0.00    +0.000 C 
ATOM     12  C   UNL     1      -6.890  -0.860 123.323  0.00  0.00    +0.000 C 
ATOM     13  O   UNL     1      -7.514  -1.633 122.678  0.00  0.00    +0.000 OA
ATOM     14  C   UNL     1      -6.262  -0.881 124.693  0.00  0.00    +0.000 C 
ATOM     15  C   UNL     1      -6.165  -2.313 124.897  0.00  0.00    +0.000 C 
ATOM     16  C   UNL     1      -7.510  -3.113 124.859  0.00  0.00    +0.000 C 
ATOM     17  C   UNL     1      -5.005  -2.310 123.867  0.00  0.00    +0.000 C 
ATOM     18  C   UNL     1      -5.181  -3.217 122.960  0.00  0.00    +0.000 C 
ATOM     19  C   UNL     1      -4.534  -4.178 123.892  0.00  0.00    +0.000 C 
ATOM     20  O   UNL     1      -3.645  -4.798 123.323  0.00  0.00    +0.000 OA
ATOM     21  C   UNL     1      -4.703  -3.842 125.671  0.00  0.00    +0.000 C 
ATOM     22  C   UNL     1      -5.576  -2.849 126.122  0.00  0.00    +0.000 C 
ENDROOT
BRANCH   8  23
ATOM     23  O   UNL     1      -9.125   3.576 124.765  0.00  0.00    +0.000 OA
ATOM     24  H   UNL     1      -8.768   3.484 125.664  0.00  0.00    +0.000 HD
ENDBRANCH   8  23
BRANCH   8  25
ATOM     25  C   UNL     1      -6.484   3.875 124.212  0.00  0.00    +0.000 C 
ATOM     26  O   UNL     1      -5.807   4.492 123.371  0.00  0.00    +0.000 OA
BRANCH  25  27
ATOM     27  C   UNL     1      -6.049   3.938 125.627  0.00  0.00    +0.000 C 
BRANCH  27  28
ATOM     28  O   UNL     1      -6.738   5.018 126.239  0.00  0.00    +0.000 OA
ATOM     29  H   UNL     1      -7.634   5.030 125.837  0.00  0.00    +0.000 HD
ENDBRANCH  27  28
ENDBRANCH  25  27
ENDBRANCH   8  25
TORSDOF 4
ENDMDL
MODEL 5
REMARK VINA RESULT:      -7.9      5.191      7.447
REMARK  Name = Methylprednisone
REMARK  7 active torsions:
REMARK  status: ('A' for Active; 'I' for Inactive)
REMARK    1  A    between atoms: C_1  and  C_2
REMARK    2  A    between atoms: C_8  and  O_9
REMARK    3  A    between atoms: C_8  and  C_10
REMARK    4  A    between atoms: C_10  and  C_12
REMARK    5  A    between atoms: C_12  and  O_13
REMARK    6  A    between atoms: C_14  and  C_15
REMARK    7  A    between atoms: C_20  and  C_21
REMARK                            x       y       z     vdW  Elec       q    Type
REMARK                         _______ _______ _______ _____ _____    ______ ____
ROOT
ATOM      1  C   UNL     1      -8.270   0.437 132.112  0.00  0.00    +0.000 C 
ATOM      2  C   UNL     1      -7.933  -0.250 130.773  0.00  0.00    +0.000 C 
ATOM      3  C   UNL     1      -8.249   0.856 129.509  0.00  0.00    +0.000 C 
ATOM      4  C   UNL     1      -7.946   0.338 128.002  0.00  0.00    +0.000 C 
ATOM      5  C   UNL     1      -7.524   1.275 126.483  0.00  0.00    +0.000 C 
ATOM      6  C   UNL     1      -6.836   1.161 124.544  0.00  0.00    +0.000 C 
ATOM      7  C   UNL     1      -7.940   1.410 123.523  0.00  0.00    +0.000 C 
ATOM      8  C   UNL     1      -8.395   1.925 124.776  0.00  0.00    +0.000 C 
ATOM      9  C   UNL     1      -8.029   0.347 125.570  0.00  0.00    +0.000 C 
ATOM     10  C   UNL     1      -9.124  -0.661 125.543  0.00  0.00    +0.000 C 
ATOM     11  C   UNL     1      -6.338  -0.314 125.846  0.00  0.00    +0.000 C 
ATOM     12  C   UNL     1      -6.559  -1.193 126.908  0.00  0.00    +0.000 C 
ATOM     13  O   UNL     1      -6.668  -2.333 126.605  0.00  0.00    +0.000 OA
ATOM     14  C   UNL     1      -6.722  -0.414 128.188  0.00  0.00    +0.000 C 
ATOM     15  C   UNL     1      -6.571  -1.488 129.151  0.00  0.00    +0.000 C 
ATOM     16  C   UNL     1      -7.600  -2.663 129.048  0.00  0.00    +0.000 C 
ATOM     17  C   UNL     1      -5.057  -1.486 128.809  0.00  0.00    +0.000 C 
ATOM     18  C   UNL     1      -4.635  -2.682 128.548  0.00  0.00    +0.000 C 
ATOM     19  C   UNL     1      -4.444  -2.860 130.012  0.00  0.00    +0.000 C 
ATOM     20  O   UNL     1      -3.322  -3.287 130.252  0.00  0.00    +0.000 OA
ATOM     21  C   UNL     1      -5.537  -1.907 131.108  0.00  0.00    +0.000 C 
ATOM     22  C   UNL     1      -6.631  -1.212 130.585  0.00  0.00    +0.000 C 
ENDROOT
BRANCH   8  23
ATOM     23  O   UNL     1      -9.734   2.282 124.764  0.00  0.00    +0.000 OA
ATOM     24  H   UNL     1     -10.039   2.105 125.670  0.00  0.00    +0.000 HD
ENDBRANCH   8  23
BRANCH   8  25
ATOM     25  C   UNL     1      -7.239   3.270 125.179  0.00  0.00    +0.000 C 
ATOM     26  O   UNL     1      -6.167   3.524 124.601  0.00  0.00    +0.000 OA
BRANCH  25  27
ATOM     27  C   UNL     1      -7.753   4.267 126.147  0.00  0.00    +0.000 C 
BRANCH  27  28
ATOM     28  O   UNL     1      -8.724   5.056 125.475  0.00  0.00    +0.000 OA
ATOM     29  H   UNL     1      -8.222   5.755 125.002  0.00  0.00    +0.000 HD
ENDBRANCH  27  28
ENDBRANCH  25  27
ENDBRANCH   8  25
TORSDOF 4
ENDMDL
MODEL 6
REMARK VINA RESULT:      -7.9      2.283      4.028
REMARK  Name = Methylprednisone
REMARK  7 active torsions:
REMARK  status: ('A' for Active; 'I' for Inactive)
REMARK    1  A    between atoms: C_1  and  C_2
REMARK    2  A    between atoms: C_8  and  O_9
REMARK    3  A    between atoms: C_8  and  C_10
REMARK    4  A    between atoms: C_10  and  C_12
REMARK    5  A    between atoms: C_12  and  O_13
REMARK    6  A    between atoms: C_14  and  C_15
REMARK    7  A    between atoms: C_20  and  C_21
REMARK                            x       y       z     vdW  Elec       q    Type
REMARK                         _______ _______ _______ _____ _____    ______ ____
ROOT
ATOM      1  C   UNL     1      -3.071   1.644 133.353  0.00  0.00    +0.000 C 
ATOM      2  C   UNL     1      -3.450   2.802 132.407  0.00  0.00    +0.000 C 
ATOM      3  C   UNL     1      -5.150   2.968 132.420  0.00  0.00    +0.000 C 
ATOM      4  C   UNL     1      -5.769   4.150 131.495  0.00  0.00    +0.000 C 
ATOM      5  C   UNL     1      -7.335   5.090 131.656  0.00  0.00    +0.000 C 
ATOM      6  C   UNL     1      -8.419   6.720 131.012  0.00  0.00    +0.000 C 
ATOM      7  C   UNL     1      -9.591   6.321 130.123  0.00  0.00    +0.000 C 
ATOM      8  C   UNL     1      -9.188   5.155 130.845  0.00  0.00    +0.000 C 
ATOM      9  C   UNL     1      -7.485   5.394 130.301  0.00  0.00    +0.000 C 
ATOM     10  C   UNL     1      -7.125   4.762 129.002  0.00  0.00    +0.000 C 
ATOM     11  C   UNL     1      -6.396   6.767 130.852  0.00  0.00    +0.000 C 
ATOM     12  C   UNL     1      -5.132   6.221 130.622  0.00  0.00    +0.000 C 
ATOM     13  O   UNL     1      -4.610   6.566 129.615  0.00  0.00    +0.000 OA
ATOM     14  C   UNL     1      -4.808   5.214 131.695  0.00  0.00    +0.000 C 
ATOM     15  C   UNL     1      -3.382   5.070 131.474  0.00  0.00    +0.000 C 
ATOM     16  C   UNL     1      -2.946   4.571 130.057  0.00  0.00    +0.000 C 
ATOM     17  C   UNL     1      -3.213   6.477 132.106  0.00  0.00    +0.000 C 
ATOM     18  C   UNL     1      -2.481   7.240 131.359  0.00  0.00    +0.000 C 
ATOM     19  C   UNL     1      -1.295   6.646 132.030  0.00  0.00    +0.000 C 
ATOM     20  O   UNL     1      -0.542   7.524 132.432  0.00  0.00    +0.000 OA
ATOM     21  C   UNL     1      -1.466   4.946 132.652  0.00  0.00    +0.000 C 
ATOM     22  C   UNL     1      -2.588   4.182 132.321  0.00  0.00    +0.000 C 
ENDROOT
BRANCH   8  23
ATOM     23  O   UNL     1      -9.795   3.996 130.389  0.00  0.00    +0.000 OA
ATOM     24  H   UNL     1     -10.462   3.792 131.065  0.00  0.00    +0.000 HD
ENDBRANCH   8  23
BRANCH   8  25
ATOM     25  C   UNL     1      -9.495   5.555 132.593  0.00  0.00    +0.000 C 
ATOM     26  O   UNL     1     -10.226   6.463 133.027  0.00  0.00    +0.000 OA
BRANCH  25  27
ATOM     27  C   UNL     1      -8.988   4.555 133.561  0.00  0.00    +0.000 C 
BRANCH  27  28
ATOM     28  O   UNL     1     -10.103   3.815 134.037  0.00  0.00    +0.000 OA
ATOM     29  H   UNL     1     -10.599   3.531 133.238  0.00  0.00    +0.000 HD
ENDBRANCH  27  28
ENDBRANCH  25  27
ENDBRANCH   8  25
TORSDOF 4
ENDMDL
MODEL 7
REMARK VINA RESULT:      -7.9      5.606      7.085
REMARK  Name = Methylprednisone
REMARK  7 active torsions:
REMARK  status: ('A' for Active; 'I' for Inactive)
REMARK    1  A    between atoms: C_1  and  C_2
REMARK    2  A    between atoms: C_8  and  O_9
REMARK    3  A    between atoms: C_8  and  C_10
REMARK    4  A    between atoms: C_10  and  C_12
REMARK    5  A    between atoms: C_12  and  O_13
REMARK    6  A    between atoms: C_14  and  C_15
REMARK    7  A    between atoms: C_20  and  C_21
REMARK                            x       y       z     vdW  Elec       q    Type
REMARK                         _______ _______ _______ _____ _____    ______ ____
ROOT
ATOM      1  C   UNL     1      -8.497   2.763 123.956  0.00  0.00    +0.000 C 
ATOM      2  C   UNL     1      -7.995   1.516 124.713  0.00  0.00    +0.000 C 
ATOM      3  C   UNL     1      -7.985   1.873 126.384  0.00  0.00    +0.000 C 
ATOM      4  C   UNL     1      -7.499   0.683 127.375  0.00  0.00    +0.000 C 
ATOM      5  C   UNL     1      -7.902   0.361 129.135  0.00  0.00    +0.000 C 
ATOM      6  C   UNL     1      -7.813  -0.994 130.684  0.00  0.00    +0.000 C 
ATOM      7  C   UNL     1      -6.787  -0.600 131.740  0.00  0.00    +0.000 C 
ATOM      8  C   UNL     1      -7.077   0.569 130.971  0.00  0.00    +0.000 C 
ATOM      9  C   UNL     1      -6.731  -0.333 129.448  0.00  0.00    +0.000 C 
ATOM     10  C   UNL     1      -5.312  -0.324 128.998  0.00  0.00    +0.000 C 
ATOM     11  C   UNL     1      -7.776  -1.687 128.777  0.00  0.00    +0.000 C 
ATOM     12  C   UNL     1      -7.430  -1.652 127.425  0.00  0.00    +0.000 C 
ATOM     13  O   UNL     1      -6.632  -2.460 127.088  0.00  0.00    +0.000 OA
ATOM     14  C   UNL     1      -8.102  -0.480 126.757  0.00  0.00    +0.000 C 
ATOM     15  C   UNL     1      -7.912  -0.847 125.367  0.00  0.00    +0.000 C 
ATOM     16  C   UNL     1      -6.432  -1.020 124.889  0.00  0.00    +0.000 C 
ATOM     17  C   UNL     1      -9.001  -1.933 125.579  0.00  0.00    +0.000 C 
ATOM     18  C   UNL     1      -8.601  -3.086 125.148  0.00  0.00    +0.000 C 
ATOM     19  C   UNL     1      -9.079  -2.674 123.802  0.00  0.00    +0.000 C 
ATOM     20  O   UNL     1      -9.796  -3.540 123.316  0.00  0.00    +0.000 OA
ATOM     21  C   UNL     1      -9.064  -0.895 123.431  0.00  0.00    +0.000 C 
ATOM     22  C   UNL     1      -8.434   0.003 124.298  0.00  0.00    +0.000 C 
ENDROOT
BRANCH   8  23
ATOM     23  O   UNL     1      -6.219   1.623 131.239  0.00  0.00    +0.000 OA
ATOM     24  H   UNL     1      -6.447   2.295 130.575  0.00  0.00    +0.000 HD
ENDBRANCH   8  23
BRANCH   8  25
ATOM     25  C   UNL     1      -8.838   0.907 131.277  0.00  0.00    +0.000 C 
ATOM     26  O   UNL     1      -9.644   0.162 131.861  0.00  0.00    +0.000 OA
BRANCH  25  27
ATOM     27  C   UNL     1      -9.268   2.293 130.983  0.00  0.00    +0.000 C 
BRANCH  27  28
ATOM     28  O   UNL     1     -10.468   2.532 131.704  0.00  0.00    +0.000 OA
ATOM     29  H   UNL     1     -10.203   3.014 132.517  0.00  0.00    +0.000 HD
ENDBRANCH  27  28
ENDBRANCH  25  27
ENDBRANCH   8  25
TORSDOF 4
ENDMDL
MODEL 8
REMARK VINA RESULT:      -7.7      1.730      6.743
REMARK  Name = Methylprednisone
REMARK  7 active torsions:
REMARK  status: ('A' for Active; 'I' for Inactive)
REMARK    1  A    between atoms: C_1  and  C_2
REMARK    2  A    between atoms: C_8  and  O_9
REMARK    3  A    between atoms: C_8  and  C_10
REMARK    4  A    between atoms: C_10  and  C_12
REMARK    5  A    between atoms: C_12  and  O_13
REMARK    6  A    between atoms: C_14  and  C_15
REMARK    7  A    between atoms: C_20  and  C_21
REMARK                            x       y       z     vdW  Elec       q    Type
REMARK                         _______ _______ _______ _____ _____    ______ ____
ROOT
ATOM      1  C   UNL     1      -8.288   0.661 130.489  0.00  0.00    +0.000 C 
ATOM      2  C   UNL     1      -8.239   2.117 130.997  0.00  0.00    +0.000 C 
ATOM      3  C   UNL     1      -6.654   2.710 130.769  0.00  0.00    +0.000 C 
ATOM      4  C   UNL     1      -6.383   4.244 131.226  0.00  0.00    +0.000 C 
ATOM      5  C   UNL     1      -5.143   5.460 130.637  0.00  0.00    +0.000 C 
ATOM      6  C   UNL     1      -4.553   7.435 130.646  0.00  0.00    +0.000 C 
ATOM      7  C   UNL     1      -3.309   7.662 131.496  0.00  0.00    +0.000 C 
ATOM      8  C   UNL     1      -3.376   6.264 131.206  0.00  0.00    +0.000 C 
ATOM      9  C   UNL     1      -5.074   6.209 131.814  0.00  0.00    +0.000 C 
ATOM     10  C   UNL     1      -5.232   5.953 133.272  0.00  0.00    +0.000 C 
ATOM     11  C   UNL     1      -6.507   6.997 130.979  0.00  0.00    +0.000 C 
ATOM     12  C   UNL     1      -7.566   6.242 131.486  0.00  0.00    +0.000 C 
ATOM     13  O   UNL     1      -8.155   6.740 132.385  0.00  0.00    +0.000 OA
ATOM     14  C   UNL     1      -7.604   4.897 130.806  0.00  0.00    +0.000 C 
ATOM     15  C   UNL     1      -8.931   4.462 131.197  0.00  0.00    +0.000 C 
ATOM     16  C   UNL     1      -9.199   4.345 132.734  0.00  0.00    +0.000 C 
ATOM     17  C   UNL     1      -9.492   5.497 130.186  0.00  0.00    +0.000 C 
ATOM     18  C   UNL     1     -10.402   6.239 130.733  0.00  0.00    +0.000 C 
ATOM     19  C   UNL     1     -11.380   5.172 130.392  0.00  0.00    +0.000 C 
ATOM     20  O   UNL     1     -12.352   5.645 129.817  0.00  0.00    +0.000 OA
ATOM     21  C   UNL     1     -10.746   3.470 130.303  0.00  0.00    +0.000 C 
ATOM     22  C   UNL     1      -9.452   3.174 130.742  0.00  0.00    +0.000 C 
ENDROOT
BRANCH   8  23
ATOM     23  O   UNL     1      -2.465   5.514 131.932  0.00  0.00    +0.000 OA
ATOM     24  H   UNL     1      -1.631   5.609 131.444  0.00  0.00    +0.000 HD
ENDBRANCH   8  23
BRANCH   8  25
ATOM     25  C   UNL     1      -3.207   6.151 129.399  0.00  0.00    +0.000 C 
ATOM     26  O   UNL     1      -3.145   7.102 128.600  0.00  0.00    +0.000 OA
BRANCH  25  27
ATOM     27  C   UNL     1      -2.900   4.797 128.884  0.00  0.00    +0.000 C 
BRANCH  27  28
ATOM     28  O   UNL     1      -2.178   4.953 127.671  0.00  0.00    +0.000 OA
ATOM     29  H   UNL     1      -2.527   4.268 127.060  0.00  0.00    +0.000 HD
ENDBRANCH  27  28
ENDBRANCH  25  27
ENDBRANCH   8  25
TORSDOF 4
ENDMDL
MODEL 9
REMARK VINA RESULT:      -7.6      2.721      6.313
REMARK  Name = Methylprednisone
REMARK  7 active torsions:
REMARK  status: ('A' for Active; 'I' for Inactive)
REMARK    1  A    between atoms: C_1  and  C_2
REMARK    2  A    between atoms: C_8  and  O_9
REMARK    3  A    between atoms: C_8  and  C_10
REMARK    4  A    between atoms: C_10  and  C_12
REMARK    5  A    between atoms: C_12  and  O_13
REMARK    6  A    between atoms: C_14  and  C_15
REMARK    7  A    between atoms: C_20  and  C_21
REMARK                            x       y       z     vdW  Elec       q    Type
REMARK                         _______ _______ _______ _____ _____    ______ ____
ROOT
ATOM      1  C   UNL     1     -10.880   4.259 130.565  0.00  0.00    +0.000 C 
ATOM      2  C   UNL     1      -9.598   3.497 130.168  0.00  0.00    +0.000 C 
ATOM      3  C   UNL     1      -8.371   4.643 129.854  0.00  0.00    +0.000 C 
ATOM      4  C   UNL     1      -6.921   4.052 129.429  0.00  0.00    +0.000 C 
ATOM      5  C   UNL     1      -5.243   4.768 129.615  0.00  0.00    +0.000 C 
ATOM      6  C   UNL     1      -3.216   4.409 129.523  0.00  0.00    +0.000 C 
ATOM      7  C   UNL     1      -2.570   5.053 128.301  0.00  0.00    +0.000 C 
ATOM      8  C   UNL     1      -3.828   5.697 128.506  0.00  0.00    +0.000 C 
ATOM      9  C   UNL     1      -4.656   4.095 128.541  0.00  0.00    +0.000 C 
ATOM     10  C   UNL     1      -5.098   3.566 127.222  0.00  0.00    +0.000 C 
ATOM     11  C   UNL     1      -4.468   2.853 129.880  0.00  0.00    +0.000 C 
ATOM     12  C   UNL     1      -5.647   2.118 129.737  0.00  0.00    +0.000 C 
ATOM     13  O   UNL     1      -5.536   1.100 129.141  0.00  0.00    +0.000 OA
ATOM     14  C   UNL     1      -6.806   2.900 130.298  0.00  0.00    +0.000 C 
ATOM     15  C   UNL     1      -7.798   1.845 130.378  0.00  0.00    +0.000 C 
ATOM     16  C   UNL     1      -8.169   1.136 129.033  0.00  0.00    +0.000 C 
ATOM     17  C   UNL     1      -7.002   1.285 131.587  0.00  0.00    +0.000 C 
ATOM     18  C   UNL     1      -6.772   0.018 131.449  0.00  0.00    +0.000 C 
ATOM     19  C   UNL     1      -8.113  -0.221 132.047  0.00  0.00    +0.000 C 
ATOM     20  O   UNL     1      -8.039  -1.034 132.959  0.00  0.00    +0.000 OA
ATOM     21  C   UNL     1      -9.369   1.069 131.794  0.00  0.00    +0.000 C 
ATOM     22  C   UNL     1      -9.133   2.121 130.906  0.00  0.00    +0.000 C 
ENDROOT
BRANCH   8  23
ATOM     23  O   UNL     1      -4.192   6.526 127.457  0.00  0.00    +0.000 OA
ATOM     24  H   UNL     1      -5.090   6.238 127.222  0.00  0.00    +0.000 HD
ENDBRANCH   8  23
BRANCH   8  25
ATOM     25  C   UNL     1      -3.679   6.516 130.123  0.00  0.00    +0.000 C 
ATOM     26  O   UNL     1      -2.669   6.544 130.849  0.00  0.00    +0.000 OA
BRANCH  25  27
ATOM     27  C   UNL     1      -4.809   7.404 130.481  0.00  0.00    +0.000 C 
BRANCH  27  28
ATOM     28  O   UNL     1      -4.715   8.567 129.672  0.00  0.00    +0.000 OA
ATOM     29  H   UNL     1      -5.248   9.255 130.126  0.00  0.00    +0.000 HD
ENDBRANCH  27  28
ENDBRANCH  25  27
ENDBRANCH   8  25
TORSDOF 4
ENDMDL
