MODEL 1
REMARK VINA RESULT:      -4.5      0.000      0.000
REMARK  Name = Methacholine
REMARK  9 active torsions:
REMARK  status: ('A' for Active; 'I' for Inactive)
REMARK    1  A    between atoms: C_1  and  C_2
REMARK    2  A    between atoms: C_2  and  C_3
REMARK    3  A    between atoms: C_2  and  O_8
REMARK    4  A    between atoms: C_3  and  N_4
REMARK    5  A    between atoms: N_4  and  C_5
REMARK    6  A    between atoms: N_4  and  C_6
REMARK    7  A    between atoms: N_4  and  C_7
REMARK    8  A    between atoms: O_8  and  C_9
REMARK    9  A    between atoms: C_9  and  C_10
REMARK                            x       y       z     vdW  Elec       q    Type
REMARK                         _______ _______ _______ _____ _____    ______ ____
ROOT
ATOM      1  C   UNL     1     -12.661   9.123 129.207  0.00  0.00    +0.000 C 
ATOM      2  C   UNL     1     -11.376   8.295 129.129  0.00  0.00    +0.000 C 
ENDROOT
BRANCH   2   3
ATOM      3  C   UNL     1     -11.590   6.811 129.533  0.00  0.00    +0.000 C 
BRANCH   3   4
ATOM      4  N   UNL     1     -10.638   6.283 130.615  0.00  0.00    +0.000 N 
ATOM      5  C   UNL     1      -9.285   6.987 130.548  0.00  0.00    +0.000 C 
ATOM      6  C   UNL     1     -11.234   6.406 132.005  0.00  0.00    +0.000 C 
ATOM      7  C   UNL     1     -10.426   4.787 130.372  0.00  0.00    +0.000 C 
ENDBRANCH   3   4
ENDBRANCH   2   3
BRANCH   2   8
ATOM      8  O   UNL     1     -10.940   8.363 127.753  0.00  0.00    +0.000 OA
BRANCH   8   9
ATOM      9  C   UNL     1     -11.052   7.363 126.846  0.00  0.00    +0.000 C 
ATOM     10  C   UNL     1     -12.375   7.133 126.166  0.00  0.00    +0.000 C 
ATOM     11  O   UNL     1     -10.071   6.709 126.536  0.00  0.00    +0.000 OA
ENDBRANCH   8   9
ENDBRANCH   2   8
TORSDOF 4
ENDMDL
MODEL 2
REMARK VINA RESULT:      -4.4      1.629      2.287
REMARK  Name = Methacholine
REMARK  9 active torsions:
REMARK  status: ('A' for Active; 'I' for Inactive)
REMARK    1  A    between atoms: C_1  and  C_2
REMARK    2  A    between atoms: C_2  and  C_3
REMARK    3  A    between atoms: C_2  and  O_8
REMARK    4  A    between atoms: C_3  and  N_4
REMARK    5  A    between atoms: N_4  and  C_5
REMARK    6  A    between atoms: N_4  and  C_6
REMARK    7  A    between atoms: N_4  and  C_7
REMARK    8  A    between atoms: O_8  and  C_9
REMARK    9  A    between atoms: C_9  and  C_10
REMARK                            x       y       z     vdW  Elec       q    Type
REMARK                         _______ _______ _______ _____ _____    ______ ____
ROOT
ATOM      1  C   UNL     1     -12.822   7.252 130.795  0.00  0.00    +0.000 C 
ATOM      2  C   UNL     1     -11.620   6.737 129.998  0.00  0.00    +0.000 C 
ENDROOT
BRANCH   2   3
ATOM      3  C   UNL     1     -10.973   5.476 130.631  0.00  0.00    +0.000 C 
BRANCH   3   4
ATOM      4  N   UNL     1      -9.564   5.679 131.204  0.00  0.00    +0.000 N 
ATOM      5  C   UNL     1      -9.601   5.793 132.725  0.00  0.00    +0.000 C 
ATOM      6  C   UNL     1      -8.612   4.579 130.775  0.00  0.00    +0.000 C 
ATOM      7  C   UNL     1      -9.000   6.980 130.627  0.00  0.00    +0.000 C 
ENDBRANCH   3   4
ENDBRANCH   2   3
BRANCH   2   8
ATOM      8  O   UNL     1     -12.123   6.414 128.682  0.00  0.00    +0.000 OA
BRANCH   8   9
ATOM      9  C   UNL     1     -11.861   7.111 127.550  0.00  0.00    +0.000 C 
ATOM     10  C   UNL     1     -10.880   8.252 127.602  0.00  0.00    +0.000 C 
ATOM     11  O   UNL     1     -12.362   6.769 126.493  0.00  0.00    +0.000 OA
ENDBRANCH   8   9
ENDBRANCH   2   8
TORSDOF 4
ENDMDL
MODEL 3
REMARK VINA RESULT:      -4.3      1.496      2.855
REMARK  Name = Methacholine
REMARK  9 active torsions:
REMARK  status: ('A' for Active; 'I' for Inactive)
REMARK    1  A    between atoms: C_1  and  C_2
REMARK    2  A    between atoms: C_2  and  C_3
REMARK    3  A    between atoms: C_2  and  O_8
REMARK    4  A    between atoms: C_3  and  N_4
REMARK    5  A    between atoms: N_4  and  C_5
REMARK    6  A    between atoms: N_4  and  C_6
REMARK    7  A    between atoms: N_4  and  C_7
REMARK    8  A    between atoms: O_8  and  C_9
REMARK    9  A    between atoms: C_9  and  C_10
REMARK                            x       y       z     vdW  Elec       q    Type
REMARK                         _______ _______ _______ _____ _____    ______ ____
ROOT
ATOM      1  C   UNL     1      -9.212   5.445 129.858  0.00  0.00    +0.000 C 
ATOM      2  C   UNL     1     -10.315   6.309 129.240  0.00  0.00    +0.000 C 
ENDROOT
BRANCH   2   3
ATOM      3  C   UNL     1     -10.881   7.363 130.229  0.00  0.00    +0.000 C 
BRANCH   3   4
ATOM      4  N   UNL     1     -12.386   7.634 130.106  0.00  0.00    +0.000 N 
ATOM      5  C   UNL     1     -13.052   6.625 129.174  0.00  0.00    +0.000 C 
ATOM      6  C   UNL     1     -13.074   7.643 131.459  0.00  0.00    +0.000 C 
ATOM      7  C   UNL     1     -12.570   9.037 129.525  0.00  0.00    +0.000 C 
ENDBRANCH   3   4
ENDBRANCH   2   3
BRANCH   2   8
ATOM      8  O   UNL     1      -9.709   6.981 128.112  0.00  0.00    +0.000 OA
BRANCH   8   9
ATOM      9  C   UNL     1     -10.081   6.828 126.818  0.00  0.00    +0.000 C 
ATOM     10  C   UNL     1     -11.176   7.698 126.261  0.00  0.00    +0.000 C 
ATOM     11  O   UNL     1      -9.483   6.045 126.101  0.00  0.00    +0.000 OA
ENDBRANCH   8   9
ENDBRANCH   2   8
TORSDOF 4
ENDMDL
MODEL 4
REMARK VINA RESULT:      -4.2      2.255      4.175
REMARK  Name = Methacholine
REMARK  9 active torsions:
REMARK  status: ('A' for Active; 'I' for Inactive)
REMARK    1  A    between atoms: C_1  and  C_2
REMARK    2  A    between atoms: C_2  and  C_3
REMARK    3  A    between atoms: C_2  and  O_8
REMARK    4  A    between atoms: C_3  and  N_4
REMARK    5  A    between atoms: N_4  and  C_5
REMARK    6  A    between atoms: N_4  and  C_6
REMARK    7  A    between atoms: N_4  and  C_7
REMARK    8  A    between atoms: O_8  and  C_9
REMARK    9  A    between atoms: C_9  and  C_10
REMARK                            x       y       z     vdW  Elec       q    Type
REMARK                         _______ _______ _______ _____ _____    ______ ____
ROOT
ATOM      1  C   UNL     1      -8.603   7.040 130.772  0.00  0.00    +0.000 C 
ATOM      2  C   UNL     1      -9.996   6.507 130.427  0.00  0.00    +0.000 C 
ENDROOT
BRANCH   2   3
ATOM      3  C   UNL     1     -10.738   7.387 129.385  0.00  0.00    +0.000 C 
BRANCH   3   4
ATOM      4  N   UNL     1     -12.241   7.570 129.633  0.00  0.00    +0.000 N 
ATOM      5  C   UNL     1     -12.653   9.029 129.453  0.00  0.00    +0.000 C 
ATOM      6  C   UNL     1     -13.078   6.667 128.747  0.00  0.00    +0.000 C 
ATOM      7  C   UNL     1     -12.539   7.150 131.074  0.00  0.00    +0.000 C 
ENDBRANCH   3   4
ENDBRANCH   2   3
BRANCH   2   8
ATOM      8  O   UNL     1      -9.793   5.183 129.884  0.00  0.00    +0.000 OA
BRANCH   8   9
ATOM      9  C   UNL     1     -10.326   4.041 130.383  0.00  0.00    +0.000 C 
ATOM     10  C   UNL     1      -9.487   3.169 131.278  0.00  0.00    +0.000 C 
ATOM     11  O   UNL     1     -11.494   3.768 130.164  0.00  0.00    +0.000 OA
ENDBRANCH   8   9
ENDBRANCH   2   8
TORSDOF 4
ENDMDL
MODEL 5
REMARK VINA RESULT:      -4.2      1.624      2.053
REMARK  Name = Methacholine
REMARK  9 active torsions:
REMARK  status: ('A' for Active; 'I' for Inactive)
REMARK    1  A    between atoms: C_1  and  C_2
REMARK    2  A    between atoms: C_2  and  C_3
REMARK    3  A    between atoms: C_2  and  O_8
REMARK    4  A    between atoms: C_3  and  N_4
REMARK    5  A    between atoms: N_4  and  C_5
REMARK    6  A    between atoms: N_4  and  C_6
REMARK    7  A    between atoms: N_4  and  C_7
REMARK    8  A    between atoms: O_8  and  C_9
REMARK    9  A    between atoms: C_9  and  C_10
REMARK                            x       y       z     vdW  Elec       q    Type
REMARK                         _______ _______ _______ _____ _____    ______ ____
ROOT
ATOM      1  C   UNL     1     -12.916   7.534 131.245  0.00  0.00    +0.000 C 
ATOM      2  C   UNL     1     -11.685   7.218 130.391  0.00  0.00    +0.000 C 
ENDROOT
BRANCH   2   3
ATOM      3  C   UNL     1     -11.582   5.715 130.017  0.00  0.00    +0.000 C 
BRANCH   3   4
ATOM      4  N   UNL     1     -10.341   4.990 130.556  0.00  0.00    +0.000 N 
ATOM      5  C   UNL     1      -9.966   5.500 131.945  0.00  0.00    +0.000 C 
ATOM      6  C   UNL     1     -10.525   3.484 130.574  0.00  0.00    +0.000 C 
ATOM      7  C   UNL     1      -9.177   5.266 129.601  0.00  0.00    +0.000 C 
ENDBRANCH   3   4
ENDBRANCH   2   3
BRANCH   2   8
ATOM      8  O   UNL     1     -11.822   8.006 129.187  0.00  0.00    +0.000 OA
BRANCH   8   9
ATOM      9  C   UNL     1     -10.872   8.148 128.231  0.00  0.00    +0.000 C 
ATOM     10  C   UNL     1     -11.193   7.757 126.813  0.00  0.00    +0.000 C 
ATOM     11  O   UNL     1      -9.798   8.653 128.509  0.00  0.00    +0.000 OA
ENDBRANCH   8   9
ENDBRANCH   2   8
TORSDOF 4
ENDMDL
MODEL 6
REMARK VINA RESULT:      -4.2      2.634      4.614
REMARK  Name = Methacholine
REMARK  9 active torsions:
REMARK  status: ('A' for Active; 'I' for Inactive)
REMARK    1  A    between atoms: C_1  and  C_2
REMARK    2  A    between atoms: C_2  and  C_3
REMARK    3  A    between atoms: C_2  and  O_8
REMARK    4  A    between atoms: C_3  and  N_4
REMARK    5  A    between atoms: N_4  and  C_5
REMARK    6  A    between atoms: N_4  and  C_6
REMARK    7  A    between atoms: N_4  and  C_7
REMARK    8  A    between atoms: O_8  and  C_9
REMARK    9  A    between atoms: C_9  and  C_10
REMARK                            x       y       z     vdW  Elec       q    Type
REMARK                         _______ _______ _______ _____ _____    ______ ____
ROOT
ATOM      1  C   UNL     1     -11.229   4.944 130.355  0.00  0.00    +0.000 C 
ATOM      2  C   UNL     1     -10.894   6.436 130.274  0.00  0.00    +0.000 C 
ENDROOT
BRANCH   2   3
ATOM      3  C   UNL     1     -12.153   7.327 130.095  0.00  0.00    +0.000 C 
BRANCH   3   4
ATOM      4  N   UNL     1     -12.218   8.112 128.777  0.00  0.00    +0.000 N 
ATOM      5  C   UNL     1     -10.819   8.444 128.266  0.00  0.00    +0.000 C 
ATOM      6  C   UNL     1     -13.012   7.373 127.715  0.00  0.00    +0.000 C 
ATOM      7  C   UNL     1     -12.969   9.419 129.039  0.00  0.00    +0.000 C 
ENDBRANCH   3   4
ENDBRANCH   2   3
BRANCH   2   8
ATOM      8  O   UNL     1     -10.242   6.767 131.520  0.00  0.00    +0.000 OA
BRANCH   8   9
ATOM      9  C   UNL     1      -9.014   6.336 131.900  0.00  0.00    +0.000 C 
ATOM     10  C   UNL     1      -7.816   6.706 131.066  0.00  0.00    +0.000 C 
ATOM     11  O   UNL     1      -8.880   5.720 132.943  0.00  0.00    +0.000 OA
ENDBRANCH   8   9
ENDBRANCH   2   8
TORSDOF 4
ENDMDL
MODEL 7
REMARK VINA RESULT:      -4.1      9.593     11.143
REMARK  Name = Methacholine
REMARK  9 active torsions:
REMARK  status: ('A' for Active; 'I' for Inactive)
REMARK    1  A    between atoms: C_1  and  C_2
REMARK    2  A    between atoms: C_2  and  C_3
REMARK    3  A    between atoms: C_2  and  O_8
REMARK    4  A    between atoms: C_3  and  N_4
REMARK    5  A    between atoms: N_4  and  C_5
REMARK    6  A    between atoms: N_4  and  C_6
REMARK    7  A    between atoms: N_4  and  C_7
REMARK    8  A    between atoms: O_8  and  C_9
REMARK    9  A    between atoms: C_9  and  C_10
REMARK                            x       y       z     vdW  Elec       q    Type
REMARK                         _______ _______ _______ _____ _____    ______ ____
ROOT
ATOM      1  C   UNL     1      -5.448  -2.809 123.637  0.00  0.00    +0.000 C 
ATOM      2  C   UNL     1      -6.808  -2.217 124.014  0.00  0.00    +0.000 C 
ENDROOT
BRANCH   2   3
ATOM      3  C   UNL     1      -7.232  -1.045 123.088  0.00  0.00    +0.000 C 
BRANCH   3   4
ATOM      4  N   UNL     1      -7.726   0.215 123.812  0.00  0.00    +0.000 N 
ATOM      5  C   UNL     1      -7.493   0.112 125.316  0.00  0.00    +0.000 C 
ATOM      6  C   UNL     1      -7.086   1.476 123.259  0.00  0.00    +0.000 C 
ATOM      7  C   UNL     1      -9.229   0.352 123.556  0.00  0.00    +0.000 C 
ENDBRANCH   3   4
ENDBRANCH   2   3
BRANCH   2   8
ATOM      8  O   UNL     1      -7.761  -3.297 123.892  0.00  0.00    +0.000 OA
BRANCH   8   9
ATOM      9  C   UNL     1      -9.065  -3.236 124.256  0.00  0.00    +0.000 C 
ATOM     10  C   UNL     1      -9.413  -2.999 125.701  0.00  0.00    +0.000 C 
ATOM     11  O   UNL     1      -9.937  -3.299 123.407  0.00  0.00    +0.000 OA
ENDBRANCH   8   9
ENDBRANCH   2   8
TORSDOF 4
ENDMDL
MODEL 8
REMARK VINA RESULT:      -4.1      1.906      3.213
REMARK  Name = Methacholine
REMARK  9 active torsions:
REMARK  status: ('A' for Active; 'I' for Inactive)
REMARK    1  A    between atoms: C_1  and  C_2
REMARK    2  A    between atoms: C_2  and  C_3
REMARK    3  A    between atoms: C_2  and  O_8
REMARK    4  A    between atoms: C_3  and  N_4
REMARK    5  A    between atoms: N_4  and  C_5
REMARK    6  A    between atoms: N_4  and  C_6
REMARK    7  A    between atoms: N_4  and  C_7
REMARK    8  A    between atoms: O_8  and  C_9
REMARK    9  A    between atoms: C_9  and  C_10
REMARK                            x       y       z     vdW  Elec       q    Type
REMARK                         _______ _______ _______ _____ _____    ______ ____
ROOT
ATOM      1  C   UNL     1     -10.641   7.862 127.703  0.00  0.00    +0.000 C 
ATOM      2  C   UNL     1     -10.737   6.908 128.898  0.00  0.00    +0.000 C 
ENDROOT
BRANCH   2   3
ATOM      3  C   UNL     1      -9.874   7.365 130.104  0.00  0.00    +0.000 C 
BRANCH   3   4
ATOM      4  N   UNL     1      -9.162   6.238 130.864  0.00  0.00    +0.000 N 
ATOM      5  C   UNL     1      -9.841   5.964 132.203  0.00  0.00    +0.000 C 
ATOM      6  C   UNL     1      -9.073   4.966 130.042  0.00  0.00    +0.000 C 
ATOM      7  C   UNL     1      -7.720   6.678 131.126  0.00  0.00    +0.000 C 
ENDBRANCH   3   4
ENDBRANCH   2   3
BRANCH   2   8
ATOM      8  O   UNL     1     -12.131   6.888 129.281  0.00  0.00    +0.000 OA
BRANCH   8   9
ATOM      9  C   UNL     1     -12.682   7.633 130.269  0.00  0.00    +0.000 C 
ATOM     10  C   UNL     1     -12.921   9.101 130.036  0.00  0.00    +0.000 C 
ATOM     11  O   UNL     1     -13.044   7.101 131.304  0.00  0.00    +0.000 OA
ENDBRANCH   8   9
ENDBRANCH   2   8
TORSDOF 4
ENDMDL
MODEL 9
REMARK VINA RESULT:      -4.0      8.640     10.161
REMARK  Name = Methacholine
REMARK  9 active torsions:
REMARK  status: ('A' for Active; 'I' for Inactive)
REMARK    1  A    between atoms: C_1  and  C_2
REMARK    2  A    between atoms: C_2  and  C_3
REMARK    3  A    between atoms: C_2  and  O_8
REMARK    4  A    between atoms: C_3  and  N_4
REMARK    5  A    between atoms: N_4  and  C_5
REMARK    6  A    between atoms: N_4  and  C_6
REMARK    7  A    between atoms: N_4  and  C_7
REMARK    8  A    between atoms: O_8  and  C_9
REMARK    9  A    between atoms: C_9  and  C_10
REMARK                            x       y       z     vdW  Elec       q    Type
REMARK                         _______ _______ _______ _____ _____    ______ ____
ROOT
ATOM      1  C   UNL     1      -6.065  -0.605 125.183  0.00  0.00    +0.000 C 
ATOM      2  C   UNL     1      -7.545  -0.642 124.795  0.00  0.00    +0.000 C 
ENDROOT
BRANCH   2   3
ATOM      3  C   UNL     1      -7.847   0.150 123.495  0.00  0.00    +0.000 C 
BRANCH   3   4
ATOM      4  N   UNL     1      -9.120   1.007 123.530  0.00  0.00    +0.000 N 
ATOM      5  C   UNL     1     -10.172   0.470 122.564  0.00  0.00    +0.000 C 
ATOM      6  C   UNL     1      -9.692   1.117 124.932  0.00  0.00    +0.000 C 
ATOM      7  C   UNL     1      -8.746   2.430 123.109  0.00  0.00    +0.000 C 
ENDBRANCH   3   4
ENDBRANCH   2   3
BRANCH   2   8
ATOM      8  O   UNL     1      -7.872  -2.036 124.599  0.00  0.00    +0.000 OA
BRANCH   8   9
ATOM      9  C   UNL     1      -9.123  -2.556 124.603  0.00  0.00    +0.000 C 
ATOM     10  C   UNL     1      -9.597  -3.337 123.406  0.00  0.00    +0.000 C 
ATOM     11  O   UNL     1      -9.824  -2.449 125.594  0.00  0.00    +0.000 OA
ENDBRANCH   8   9
ENDBRANCH   2   8
TORSDOF 4
ENDMDL
