MODEL 1
REMARK VINA RESULT:      -5.7      0.000      0.000
REMARK  Name = Methazolamide
REMARK  5 active torsions:
REMARK  status: ('A' for Active; 'I' for Inactive)
REMARK    1  A    between atoms: C_1  and  N_2
REMARK    2  A    between atoms: C_4  and  S_11
REMARK    3  A    between atoms: N_7  and  C_8
REMARK    4  A    between atoms: C_8  and  C_9
REMARK    5  A    between atoms: S_11  and  N_12
REMARK                            x       y       z     vdW  Elec       q    Type
REMARK                         _______ _______ _______ _____ _____    ______ ____
ROOT
ATOM      1  C   UNL     1     -11.126   8.302 127.320  0.00  0.00    +0.000 C 
ATOM      2  N   UNL     1     -11.282   7.577 128.595  0.00  0.00    +0.000 N 
ATOM      3  N   UNL     1     -10.554   6.359 128.744  0.00  0.00    +0.000 NA
ATOM      4  C   UNL     1     -10.786   5.873 129.945  0.00  0.00    +0.000 A 
ATOM      5  S   UNL     1     -11.889   6.776 130.958  0.00  0.00    +0.000 S 
ATOM      6  C   UNL     1     -12.072   7.993 129.691  0.00  0.00    +0.000 A 
ATOM      7  N   UNL     1     -12.867   8.902 130.127  0.00  0.00    +0.000 NA
ENDROOT
BRANCH   7   8
ATOM      8  C   UNL     1     -13.370  10.069 129.613  0.00  0.00    +0.000 C 
ATOM      9  C   UNL     1     -13.430  11.268 130.472  0.00  0.00    +0.000 C 
ATOM     10  O   UNL     1     -13.777  10.154 128.457  0.00  0.00    +0.000 OA
ENDBRANCH   7   8
BRANCH   4  11
ATOM     11  S   UNL     1     -10.100   4.335 130.635  0.00  0.00    +0.000 S 
ATOM     12  O   UNL     1     -10.956   3.247 130.270  0.00  0.00    +0.000 OA
ATOM     13  O   UNL     1      -8.679   4.334 130.286  0.00  0.00    +0.000 OA
BRANCH  11  14
ATOM     14  N   UNL     1     -10.098   4.440 132.313  0.00  0.00    +0.000 NA
ATOM     15  H   UNL     1      -9.178   4.546 132.734  0.00  0.00    +0.000 HD
ATOM     16  H   UNL     1     -10.787   3.853 132.775  0.00  0.00    +0.000 HD
ENDBRANCH  11  14
ENDBRANCH   4  11
TORSDOF 3
ENDMDL
MODEL 2
REMARK VINA RESULT:      -5.6      3.020      5.655
REMARK  Name = Methazolamide
REMARK  5 active torsions:
REMARK  status: ('A' for Active; 'I' for Inactive)
REMARK    1  A    between atoms: C_1  and  N_2
REMARK    2  A    between atoms: C_4  and  S_11
REMARK    3  A    between atoms: N_7  and  C_8
REMARK    4  A    between atoms: C_8  and  C_9
REMARK    5  A    between atoms: S_11  and  N_12
REMARK                            x       y       z     vdW  Elec       q    Type
REMARK                         _______ _______ _______ _____ _____    ______ ____
ROOT
ATOM      1  C   UNL     1      -7.313   7.060 130.976  0.00  0.00    +0.000 C 
ATOM      2  N   UNL     1      -8.766   6.986 130.734  0.00  0.00    +0.000 N 
ATOM      3  N   UNL     1      -9.265   7.643 129.568  0.00  0.00    +0.000 NA
ATOM      4  C   UNL     1     -10.564   7.444 129.496  0.00  0.00    +0.000 A 
ATOM      5  S   UNL     1     -11.290   6.521 130.792  0.00  0.00    +0.000 S 
ATOM      6  C   UNL     1      -9.706   6.305 131.541  0.00  0.00    +0.000 A 
ATOM      7  N   UNL     1      -9.861   5.597 132.600  0.00  0.00    +0.000 NA
ENDROOT
BRANCH   7   8
ATOM      8  C   UNL     1      -9.019   5.110 133.566  0.00  0.00    +0.000 C 
ATOM      9  C   UNL     1      -9.037   3.668 133.880  0.00  0.00    +0.000 C 
ATOM     10  O   UNL     1      -8.244   5.836 134.186  0.00  0.00    +0.000 OA
ENDBRANCH   7   8
BRANCH   4  11
ATOM     11  S   UNL     1     -11.678   8.071 128.201  0.00  0.00    +0.000 S 
ATOM     12  O   UNL     1     -10.893   8.464 127.071  0.00  0.00    +0.000 OA
ATOM     13  O   UNL     1     -12.749   7.081 128.076  0.00  0.00    +0.000 OA
BRANCH  11  14
ATOM     14  N   UNL     1     -12.467   9.441 128.774  0.00  0.00    +0.000 NA
ATOM     15  H   UNL     1     -12.771  10.092 128.054  0.00  0.00    +0.000 HD
ATOM     16  H   UNL     1     -12.099   9.808 129.647  0.00  0.00    +0.000 HD
ENDBRANCH  11  14
ENDBRANCH   4  11
TORSDOF 3
ENDMDL
MODEL 3
REMARK VINA RESULT:      -5.5      2.353      3.398
REMARK  Name = Methazolamide
REMARK  5 active torsions:
REMARK  status: ('A' for Active; 'I' for Inactive)
REMARK    1  A    between atoms: C_1  and  N_2
REMARK    2  A    between atoms: C_4  and  S_11
REMARK    3  A    between atoms: N_7  and  C_8
REMARK    4  A    between atoms: C_8  and  C_9
REMARK    5  A    between atoms: S_11  and  N_12
REMARK                            x       y       z     vdW  Elec       q    Type
REMARK                         _______ _______ _______ _____ _____    ______ ____
ROOT
ATOM      1  C   UNL     1     -12.974   7.761 131.465  0.00  0.00    +0.000 C 
ATOM      2  N   UNL     1     -11.843   6.849 131.215  0.00  0.00    +0.000 N 
ATOM      3  N   UNL     1     -11.049   6.474 132.341  0.00  0.00    +0.000 NA
ATOM      4  C   UNL     1     -10.116   5.637 131.939  0.00  0.00    +0.000 A 
ATOM      5  S   UNL     1     -10.077   5.266 130.231  0.00  0.00    +0.000 S 
ATOM      6  C   UNL     1     -11.487   6.296 129.963  0.00  0.00    +0.000 A 
ATOM      7  N   UNL     1     -11.782   6.247 128.716  0.00  0.00    +0.000 NA
ENDROOT
BRANCH   7   8
ATOM      8  C   UNL     1     -12.753   6.817 127.932  0.00  0.00    +0.000 C 
ATOM      9  C   UNL     1     -12.432   7.183 126.539  0.00  0.00    +0.000 C 
ATOM     10  O   UNL     1     -13.887   7.036 128.351  0.00  0.00    +0.000 OA
ENDBRANCH   7   8
BRANCH   4  11
ATOM     11  S   UNL     1      -8.842   4.864 132.983  0.00  0.00    +0.000 S 
ATOM     12  O   UNL     1      -8.017   4.032 132.160  0.00  0.00    +0.000 OA
ATOM     13  O   UNL     1      -8.269   5.944 133.788  0.00  0.00    +0.000 OA
BRANCH  11  14
ATOM     14  N   UNL     1      -9.589   3.875 134.118  0.00  0.00    +0.000 NA
ATOM     15  H   UNL     1      -9.271   2.910 134.120  0.00  0.00    +0.000 HD
ATOM     16  H   UNL     1     -10.576   4.069 134.264  0.00  0.00    +0.000 HD
ENDBRANCH  11  14
ENDBRANCH   4  11
TORSDOF 3
ENDMDL
MODEL 4
REMARK VINA RESULT:      -5.4      3.162      5.841
REMARK  Name = Methazolamide
REMARK  5 active torsions:
REMARK  status: ('A' for Active; 'I' for Inactive)
REMARK    1  A    between atoms: C_1  and  N_2
REMARK    2  A    between atoms: C_4  and  S_11
REMARK    3  A    between atoms: N_7  and  C_8
REMARK    4  A    between atoms: C_8  and  C_9
REMARK    5  A    between atoms: S_11  and  N_12
REMARK                            x       y       z     vdW  Elec       q    Type
REMARK                         _______ _______ _______ _____ _____    ______ ____
ROOT
ATOM      1  C   UNL     1      -7.013   6.764 131.290  0.00  0.00    +0.000 C 
ATOM      2  N   UNL     1      -8.478   6.668 131.153  0.00  0.00    +0.000 N 
ATOM      3  N   UNL     1      -9.073   7.349 130.049  0.00  0.00    +0.000 NA
ATOM      4  C   UNL     1     -10.370   7.126 130.065  0.00  0.00    +0.000 A 
ATOM      5  S   UNL     1     -10.982   6.149 131.380  0.00  0.00    +0.000 S 
ATOM      6  C   UNL     1      -9.343   5.944 132.005  0.00  0.00    +0.000 A 
ATOM      7  N   UNL     1      -9.407   5.200 133.049  0.00  0.00    +0.000 NA
ENDROOT
BRANCH   7   8
ATOM      8  C   UNL     1      -8.487   4.702 133.935  0.00  0.00    +0.000 C 
ATOM      9  C   UNL     1      -7.735   5.635 134.796  0.00  0.00    +0.000 C 
ATOM     10  O   UNL     1      -8.263   3.497 134.038  0.00  0.00    +0.000 OA
ENDBRANCH   7   8
BRANCH   4  11
ATOM     11  S   UNL     1     -11.588   7.770 128.876  0.00  0.00    +0.000 S 
ATOM     12  O   UNL     1     -12.164   6.667 128.168  0.00  0.00    +0.000 OA
ATOM     13  O   UNL     1     -12.423   8.713 129.622  0.00  0.00    +0.000 OA
BRANCH  11  14
ATOM     14  N   UNL     1     -10.798   8.740 127.753  0.00  0.00    +0.000 NA
ATOM     15  H   UNL     1      -9.788   8.628 127.726  0.00  0.00    +0.000 HD
ATOM     16  H   UNL     1     -11.194   9.670 127.644  0.00  0.00    +0.000 HD
ENDBRANCH  11  14
ENDBRANCH   4  11
TORSDOF 3
ENDMDL
MODEL 5
REMARK VINA RESULT:      -5.3      3.135      4.052
REMARK  Name = Methazolamide
REMARK  5 active torsions:
REMARK  status: ('A' for Active; 'I' for Inactive)
REMARK    1  A    between atoms: C_1  and  N_2
REMARK    2  A    between atoms: C_4  and  S_11
REMARK    3  A    between atoms: N_7  and  C_8
REMARK    4  A    between atoms: C_8  and  C_9
REMARK    5  A    between atoms: S_11  and  N_12
REMARK                            x       y       z     vdW  Elec       q    Type
REMARK                         _______ _______ _______ _____ _____    ______ ____
ROOT
ATOM      1  C   UNL     1     -12.204   6.891 131.281  0.00  0.00    +0.000 C 
ATOM      2  N   UNL     1     -10.772   6.579 131.445  0.00  0.00    +0.000 N 
ATOM      3  N   UNL     1     -10.340   6.175 132.744  0.00  0.00    +0.000 NA
ATOM      4  C   UNL     1      -9.052   5.907 132.695  0.00  0.00    +0.000 A 
ATOM      5  S   UNL     1      -8.258   6.144 131.155  0.00  0.00    +0.000 S 
ATOM      6  C   UNL     1      -9.794   6.625 130.426  0.00  0.00    +0.000 A 
ATOM      7  N   UNL     1      -9.581   6.877 129.186  0.00  0.00    +0.000 NA
ENDROOT
BRANCH   7   8
ATOM      8  C   UNL     1     -10.366   7.279 128.136  0.00  0.00    +0.000 C 
ATOM      9  C   UNL     1     -11.047   8.586 128.202  0.00  0.00    +0.000 C 
ATOM     10  O   UNL     1     -10.526   6.584 127.135  0.00  0.00    +0.000 OA
ENDBRANCH   7   8
BRANCH   4  11
ATOM     11  S   UNL     1      -8.015   5.352 134.084  0.00  0.00    +0.000 S 
ATOM     12  O   UNL     1      -8.336   3.989 134.380  0.00  0.00    +0.000 OA
ATOM     13  O   UNL     1      -6.647   5.757 133.754  0.00  0.00    +0.000 OA
BRANCH  11  14
ATOM     14  N   UNL     1      -8.383   6.270 135.444  0.00  0.00    +0.000 NA
ATOM     15  H   UNL     1      -7.655   6.296 136.152  0.00  0.00    +0.000 HD
ATOM     16  H   UNL     1      -9.355   6.219 135.738  0.00  0.00    +0.000 HD
ENDBRANCH  11  14
ENDBRANCH   4  11
TORSDOF 3
ENDMDL
MODEL 6
REMARK VINA RESULT:      -5.2      7.585      9.939
REMARK  Name = Methazolamide
REMARK  5 active torsions:
REMARK  status: ('A' for Active; 'I' for Inactive)
REMARK    1  A    between atoms: C_1  and  N_2
REMARK    2  A    between atoms: C_4  and  S_11
REMARK    3  A    between atoms: N_7  and  C_8
REMARK    4  A    between atoms: C_8  and  C_9
REMARK    5  A    between atoms: S_11  and  N_12
REMARK                            x       y       z     vdW  Elec       q    Type
REMARK                         _______ _______ _______ _____ _____    ______ ____
ROOT
ATOM      1  C   UNL     1      -9.899   1.143 122.838  0.00  0.00    +0.000 C 
ATOM      2  N   UNL     1      -8.829   1.658 123.712  0.00  0.00    +0.000 N 
ATOM      3  N   UNL     1      -8.969   2.994 124.195  0.00  0.00    +0.000 NA
ATOM      4  C   UNL     1      -7.949   3.269 124.980  0.00  0.00    +0.000 A 
ATOM      5  S   UNL     1      -6.748   2.013 125.174  0.00  0.00    +0.000 S 
ATOM      6  C   UNL     1      -7.686   0.939 124.132  0.00  0.00    +0.000 A 
ATOM      7  N   UNL     1      -7.064  -0.181 124.055  0.00  0.00    +0.000 NA
ENDROOT
BRANCH   7   8
ATOM      8  C   UNL     1      -7.297  -1.371 123.415  0.00  0.00    +0.000 C 
ATOM      9  C   UNL     1      -6.273  -1.910 122.499  0.00  0.00    +0.000 C 
ATOM     10  O   UNL     1      -8.335  -2.009 123.577  0.00  0.00    +0.000 OA
ENDBRANCH   7   8
BRANCH   4  11
ATOM     11  S   UNL     1      -7.651   4.840 125.847  0.00  0.00    +0.000 S 
ATOM     12  O   UNL     1      -8.878   5.577 125.897  0.00  0.00    +0.000 OA
ATOM     13  O   UNL     1      -6.921   4.496 127.068  0.00  0.00    +0.000 OA
BRANCH  11  14
ATOM     14  N   UNL     1      -6.546   5.751 124.967  0.00  0.00    +0.000 NA
ATOM     15  H   UNL     1      -6.099   6.501 125.487  0.00  0.00    +0.000 HD
ATOM     16  H   UNL     1      -6.807   5.911 123.997  0.00  0.00    +0.000 HD
ENDBRANCH  11  14
ENDBRANCH   4  11
TORSDOF 3
ENDMDL
MODEL 7
REMARK VINA RESULT:      -5.1      8.716     10.783
REMARK  Name = Methazolamide
REMARK  5 active torsions:
REMARK  status: ('A' for Active; 'I' for Inactive)
REMARK    1  A    between atoms: C_1  and  N_2
REMARK    2  A    between atoms: C_4  and  S_11
REMARK    3  A    between atoms: N_7  and  C_8
REMARK    4  A    between atoms: C_8  and  C_9
REMARK    5  A    between atoms: S_11  and  N_12
REMARK                            x       y       z     vdW  Elec       q    Type
REMARK                         _______ _______ _______ _____ _____    ______ ____
ROOT
ATOM      1  C   UNL     1      -6.155  -1.765 123.935  0.00  0.00    +0.000 C 
ATOM      2  N   UNL     1      -7.086  -0.722 124.405  0.00  0.00    +0.000 N 
ATOM      3  N   UNL     1      -6.855   0.610 123.947  0.00  0.00    +0.000 NA
ATOM      4  C   UNL     1      -7.795   1.392 124.435  0.00  0.00    +0.000 A 
ATOM      5  S   UNL     1      -8.976   0.642 125.483  0.00  0.00    +0.000 S 
ATOM      6  C   UNL     1      -8.200  -0.928 125.252  0.00  0.00    +0.000 A 
ATOM      7  N   UNL     1      -8.866  -1.801 125.916  0.00  0.00    +0.000 NA
ENDROOT
BRANCH   7   8
ATOM      8  C   UNL     1      -8.754  -3.153 126.113  0.00  0.00    +0.000 C 
ATOM      9  C   UNL     1      -8.881  -3.697 127.479  0.00  0.00    +0.000 C 
ATOM     10  O   UNL     1      -8.548  -3.935 125.187  0.00  0.00    +0.000 OA
ENDBRANCH   7   8
BRANCH   4  11
ATOM     11  S   UNL     1      -7.956   3.183 124.156  0.00  0.00    +0.000 S 
ATOM     12  O   UNL     1      -8.916   3.707 125.080  0.00  0.00    +0.000 OA
ATOM     13  O   UNL     1      -6.591   3.708 124.098  0.00  0.00    +0.000 OA
BRANCH  11  14
ATOM     14  N   UNL     1      -8.548   3.445 122.604  0.00  0.00    +0.000 NA
ATOM     15  H   UNL     1      -9.273   4.154 122.536  0.00  0.00    +0.000 HD
ATOM     16  H   UNL     1      -8.623   2.607 122.033  0.00  0.00    +0.000 HD
ENDBRANCH  11  14
ENDBRANCH   4  11
TORSDOF 3
ENDMDL
MODEL 8
REMARK VINA RESULT:      -5.0      9.199     10.090
REMARK  Name = Methazolamide
REMARK  5 active torsions:
REMARK  status: ('A' for Active; 'I' for Inactive)
REMARK    1  A    between atoms: C_1  and  N_2
REMARK    2  A    between atoms: C_4  and  S_11
REMARK    3  A    between atoms: N_7  and  C_8
REMARK    4  A    between atoms: C_8  and  C_9
REMARK    5  A    between atoms: S_11  and  N_12
REMARK                            x       y       z     vdW  Elec       q    Type
REMARK                         _______ _______ _______ _____ _____    ______ ____
ROOT
ATOM      1  C   UNL     1      -9.376   2.042 122.815  0.00  0.00    +0.000 C 
ATOM      2  N   UNL     1      -8.726   0.946 123.557  0.00  0.00    +0.000 N 
ATOM      3  N   UNL     1      -9.400  -0.312 123.583  0.00  0.00    +0.000 NA
ATOM      4  C   UNL     1      -8.665  -1.172 124.255  0.00  0.00    +0.000 A 
ATOM      5  S   UNL     1      -7.169  -0.566 124.929  0.00  0.00    +0.000 S 
ATOM      6  C   UNL     1      -7.484   1.024 124.228  0.00  0.00    +0.000 A 
ATOM      7  N   UNL     1      -6.500   1.791 124.528  0.00  0.00    +0.000 NA
ENDROOT
BRANCH   7   8
ATOM      8  C   UNL     1      -6.183   3.099 124.267  0.00  0.00    +0.000 C 
ATOM      9  C   UNL     1      -5.696   3.956 125.366  0.00  0.00    +0.000 C 
ATOM     10  O   UNL     1      -6.293   3.589 123.145  0.00  0.00    +0.000 OA
ENDBRANCH   7   8
BRANCH   4  11
ATOM     11  S   UNL     1      -9.074  -2.914 124.581  0.00  0.00    +0.000 S 
ATOM     12  O   UNL     1      -7.871  -3.689 124.513  0.00  0.00    +0.000 OA
ATOM     13  O   UNL     1      -9.911  -2.916 125.781  0.00  0.00    +0.000 OA
BRANCH  11  14
ATOM     14  N   UNL     1     -10.106  -3.470 123.375  0.00  0.00    +0.000 NA
ATOM     15  H   UNL     1      -9.979  -3.031 122.468  0.00  0.00    +0.000 HD
ATOM     16  H   UNL     1     -11.047  -3.688 123.691  0.00  0.00    +0.000 HD
ENDBRANCH  11  14
ENDBRANCH   4  11
TORSDOF 3
ENDMDL
MODEL 9
REMARK VINA RESULT:      -5.0      8.584     10.171
REMARK  Name = Methazolamide
REMARK  5 active torsions:
REMARK  status: ('A' for Active; 'I' for Inactive)
REMARK    1  A    between atoms: C_1  and  N_2
REMARK    2  A    between atoms: C_4  and  S_11
REMARK    3  A    between atoms: N_7  and  C_8
REMARK    4  A    between atoms: C_8  and  C_9
REMARK    5  A    between atoms: S_11  and  N_12
REMARK                            x       y       z     vdW  Elec       q    Type
REMARK                         _______ _______ _______ _____ _____    ______ ____
ROOT
ATOM      1  C   UNL     1      -4.797   4.416 121.630  0.00  0.00    +0.000 C 
ATOM      2  N   UNL     1      -6.148   3.901 121.921  0.00  0.00    +0.000 N 
ATOM      3  N   UNL     1      -6.396   3.444 123.250  0.00  0.00    +0.000 NA
ATOM      4  C   UNL     1      -7.651   3.056 123.335  0.00  0.00    +0.000 A 
ATOM      5  S   UNL     1      -8.606   3.160 121.874  0.00  0.00    +0.000 S 
ATOM      6  C   UNL     1      -7.225   3.839 121.007  0.00  0.00    +0.000 A 
ATOM      7  N   UNL     1      -7.592   4.080 119.802  0.00  0.00    +0.000 NA
ENDROOT
BRANCH   7   8
ATOM      8  C   UNL     1      -6.978   4.600 118.692  0.00  0.00    +0.000 C 
ATOM      9  C   UNL     1      -5.935   5.631 118.861  0.00  0.00    +0.000 C 
ATOM     10  O   UNL     1      -7.266   4.238 117.553  0.00  0.00    +0.000 OA
ENDBRANCH   7   8
BRANCH   4  11
ATOM     11  S   UNL     1      -8.473   2.387 124.814  0.00  0.00    +0.000 S 
ATOM     12  O   UNL     1      -7.808   1.180 125.203  0.00  0.00    +0.000 OA
ATOM     13  O   UNL     1      -8.614   3.510 125.742  0.00  0.00    +0.000 OA
BRANCH  11  14
ATOM     14  N   UNL     1     -10.061   1.990 124.427  0.00  0.00    +0.000 NA
ATOM     15  H   UNL     1     -10.249   1.903 123.432  0.00  0.00    +0.000 HD
ATOM     16  H   UNL     1     -10.762   2.417 125.026  0.00  0.00    +0.000 HD
ENDBRANCH  11  14
ENDBRANCH   4  11
TORSDOF 3
ENDMDL
