MODEL 1
REMARK VINA RESULT:      -7.0      0.000      0.000
REMARK  Name = Meticrane
REMARK  3 active torsions:
REMARK  status: ('A' for Active; 'I' for Inactive)
REMARK    1  A    between atoms: C_1  and  C_2
REMARK    2  A    between atoms: C_7  and  S_8
REMARK    3  A    between atoms: S_8  and  N_9
REMARK                            x       y       z     vdW  Elec       q    Type
REMARK                         _______ _______ _______ _____ _____    ______ ____
ROOT
ATOM      1  C   UNL     1      -6.601   6.794 131.378  0.00  0.00    +0.000 C 
ATOM      2  C   UNL     1      -8.070   6.816 131.089  0.00  0.00    +0.000 A 
ATOM      3  C   UNL     1      -8.530   7.610 130.015  0.00  0.00    +0.000 A 
ATOM      4  C   UNL     1      -9.883   7.652 129.655  0.00  0.00    +0.000 A 
ATOM      5  C   UNL     1     -10.770   6.881 130.418  0.00  0.00    +0.000 A 
ATOM      6  C   UNL     1     -10.344   6.097 131.493  0.00  0.00    +0.000 A 
ATOM      7  C   UNL     1      -8.993   6.060 131.831  0.00  0.00    +0.000 A 
ATOM      8  S   UNL     1     -12.501   6.858 130.082  0.00  0.00    +0.000 S 
ATOM      9  O   UNL     1     -13.176   7.101 131.343  0.00  0.00    +0.000 OA
ATOM     10  O   UNL     1     -12.753   5.667 129.299  0.00  0.00    +0.000 OA
ATOM     11  C   UNL     1     -12.721   8.281 129.053  0.00  0.00    +0.000 C 
ATOM     12  C   UNL     1     -11.690   8.262 127.942  0.00  0.00    +0.000 C 
ATOM     13  C   UNL     1     -10.295   8.543 128.502  0.00  0.00    +0.000 C 
ENDROOT
BRANCH   7  14
ATOM     14  S   UNL     1      -8.534   4.984 133.183  0.00  0.00    +0.000 S 
ATOM     15  O   UNL     1      -7.732   3.917 132.629  0.00  0.00    +0.000 OA
ATOM     16  O   UNL     1      -8.114   5.755 134.326  0.00  0.00    +0.000 OA
BRANCH  14  17
ATOM     17  N   UNL     1     -10.014   4.338 133.597  0.00  0.00    +0.000 NA
ATOM     18  H   UNL     1     -10.509   3.828 132.873  0.00  0.00    +0.000 HD
ATOM     19  H   UNL     1     -10.521   4.819 134.334  0.00  0.00    +0.000 HD
ENDBRANCH  14  17
ENDBRANCH   7  14
TORSDOF 2
ENDMDL
MODEL 2
REMARK VINA RESULT:      -6.5      2.768      5.708
REMARK  Name = Meticrane
REMARK  3 active torsions:
REMARK  status: ('A' for Active; 'I' for Inactive)
REMARK    1  A    between atoms: C_1  and  C_2
REMARK    2  A    between atoms: C_7  and  S_8
REMARK    3  A    between atoms: S_8  and  N_9
REMARK                            x       y       z     vdW  Elec       q    Type
REMARK                         _______ _______ _______ _____ _____    ______ ____
ROOT
ATOM      1  C   UNL     1     -13.119   7.179 131.247  0.00  0.00    +0.000 C 
ATOM      2  C   UNL     1     -11.637   6.981 131.156  0.00  0.00    +0.000 A 
ATOM      3  C   UNL     1     -10.972   6.384 132.250  0.00  0.00    +0.000 A 
ATOM      4  C   UNL     1      -9.595   6.127 132.226  0.00  0.00    +0.000 A 
ATOM      5  C   UNL     1      -8.897   6.505 131.072  0.00  0.00    +0.000 A 
ATOM      6  C   UNL     1      -9.527   7.110 129.981  0.00  0.00    +0.000 A 
ATOM      7  C   UNL     1     -10.899   7.348 130.018  0.00  0.00    +0.000 A 
ATOM      8  S   UNL     1      -7.157   6.256 130.918  0.00  0.00    +0.000 S 
ATOM      9  O   UNL     1      -6.589   7.518 130.485  0.00  0.00    +0.000 OA
ATOM     10  O   UNL     1      -6.981   5.037 130.156  0.00  0.00    +0.000 OA
ATOM     11  C   UNL     1      -6.653   5.966 132.590  0.00  0.00    +0.000 C 
ATOM     12  C   UNL     1      -7.560   4.923 133.215  0.00  0.00    +0.000 C 
ATOM     13  C   UNL     1      -8.957   5.500 133.447  0.00  0.00    +0.000 C 
ENDROOT
BRANCH   7  14
ATOM     14  S   UNL     1     -11.627   8.072 128.554  0.00  0.00    +0.000 S 
ATOM     15  O   UNL     1     -12.089   6.984 127.723  0.00  0.00    +0.000 OA
ATOM     16  O   UNL     1     -12.466   9.190 128.904  0.00  0.00    +0.000 OA
BRANCH  14  17
ATOM     17  N   UNL     1     -10.284   8.731 127.819  0.00  0.00    +0.000 NA
ATOM     18  H   UNL     1      -9.944   9.611 128.192  0.00  0.00    +0.000 HD
ATOM     19  H   UNL     1     -10.149   8.493 126.841  0.00  0.00    +0.000 HD
ENDBRANCH  14  17
ENDBRANCH   7  14
TORSDOF 2
ENDMDL
MODEL 3
REMARK VINA RESULT:      -6.5      2.724      3.211
REMARK  Name = Meticrane
REMARK  3 active torsions:
REMARK  status: ('A' for Active; 'I' for Inactive)
REMARK    1  A    between atoms: C_1  and  C_2
REMARK    2  A    between atoms: C_7  and  S_8
REMARK    3  A    between atoms: S_8  and  N_9
REMARK                            x       y       z     vdW  Elec       q    Type
REMARK                         _______ _______ _______ _____ _____    ______ ____
ROOT
ATOM      1  C   UNL     1      -9.426   4.978 132.936  0.00  0.00    +0.000 C 
ATOM      2  C   UNL     1      -9.890   5.606 131.658  0.00  0.00    +0.000 A 
ATOM      3  C   UNL     1     -11.030   6.439 131.697  0.00  0.00    +0.000 A 
ATOM      4  C   UNL     1     -11.504   7.095 130.553  0.00  0.00    +0.000 A 
ATOM      5  C   UNL     1     -10.805   6.877 129.358  0.00  0.00    +0.000 A 
ATOM      6  C   UNL     1      -9.683   6.047 129.289  0.00  0.00    +0.000 A 
ATOM      7  C   UNL     1      -9.220   5.411 130.439  0.00  0.00    +0.000 A 
ATOM      8  S   UNL     1     -11.306   7.628 127.843  0.00  0.00    +0.000 S 
ATOM      9  O   UNL     1     -11.366   6.571 126.851  0.00  0.00    +0.000 OA
ATOM     10  O   UNL     1     -10.468   8.795 127.665  0.00  0.00    +0.000 OA
ATOM     11  C   UNL     1     -12.959   8.154 128.193  0.00  0.00    +0.000 C 
ATOM     12  C   UNL     1     -12.979   8.911 129.506  0.00  0.00    +0.000 C 
ATOM     13  C   UNL     1     -12.742   7.956 130.676  0.00  0.00    +0.000 C 
ENDROOT
BRANCH   7  14
ATOM     14  S   UNL     1      -7.744   4.417 130.265  0.00  0.00    +0.000 S 
ATOM     15  O   UNL     1      -6.699   5.064 131.025  0.00  0.00    +0.000 OA
ATOM     16  O   UNL     1      -8.055   3.017 130.413  0.00  0.00    +0.000 OA
BRANCH  14  17
ATOM     17  N   UNL     1      -7.399   4.632 128.649  0.00  0.00    +0.000 NA
ATOM     18  H   UNL     1      -8.118   5.067 128.082  0.00  0.00    +0.000 HD
ATOM     19  H   UNL     1      -6.741   3.975 128.242  0.00  0.00    +0.000 HD
ENDBRANCH  14  17
ENDBRANCH   7  14
TORSDOF 2
ENDMDL
MODEL 4
REMARK VINA RESULT:      -6.3      9.487     10.845
REMARK  Name = Meticrane
REMARK  3 active torsions:
REMARK  status: ('A' for Active; 'I' for Inactive)
REMARK    1  A    between atoms: C_1  and  C_2
REMARK    2  A    between atoms: C_7  and  S_8
REMARK    3  A    between atoms: S_8  and  N_9
REMARK                            x       y       z     vdW  Elec       q    Type
REMARK                         _______ _______ _______ _____ _____    ______ ____
ROOT
ATOM      1  C   UNL     1      -9.407  -3.301 123.799  0.00  0.00    +0.000 C 
ATOM      2  C   UNL     1      -8.915  -2.642 125.051  0.00  0.00    +0.000 A 
ATOM      3  C   UNL     1      -8.891  -3.400 126.243  0.00  0.00    +0.000 A 
ATOM      4  C   UNL     1      -8.407  -2.869 127.446  0.00  0.00    +0.000 A 
ATOM      5  C   UNL     1      -7.959  -1.542 127.421  0.00  0.00    +0.000 A 
ATOM      6  C   UNL     1      -7.984  -0.765 126.260  0.00  0.00    +0.000 A 
ATOM      7  C   UNL     1      -8.460  -1.313 125.070  0.00  0.00    +0.000 A 
ATOM      8  S   UNL     1      -7.342  -0.746 128.869  0.00  0.00    +0.000 S 
ATOM      9  O   UNL     1      -8.034   0.524 128.977  0.00  0.00    +0.000 OA
ATOM     10  O   UNL     1      -5.898  -0.825 128.800  0.00  0.00    +0.000 OA
ATOM     11  C   UNL     1      -7.914  -1.801 130.171  0.00  0.00    +0.000 C 
ATOM     12  C   UNL     1      -7.570  -3.240 129.840  0.00  0.00    +0.000 C 
ATOM     13  C   UNL     1      -8.433  -3.742 128.682  0.00  0.00    +0.000 C 
ENDROOT
BRANCH   7  14
ATOM     14  S   UNL     1      -8.398  -0.264 123.624  0.00  0.00    +0.000 S 
ATOM     15  O   UNL     1      -7.240  -0.661 122.855  0.00  0.00    +0.000 OA
ATOM     16  O   UNL     1      -9.708  -0.131 123.037  0.00  0.00    +0.000 OA
BRANCH  14  17
ATOM     17  N   UNL     1      -8.062   1.216 124.313  0.00  0.00    +0.000 NA
ATOM     18  H   UNL     1      -7.193   1.291 124.832  0.00  0.00    +0.000 HD
ATOM     19  H   UNL     1      -8.865   1.788 124.556  0.00  0.00    +0.000 HD
ENDBRANCH  14  17
ENDBRANCH   7  14
TORSDOF 2
ENDMDL
MODEL 5
REMARK VINA RESULT:      -6.1     10.322     11.021
REMARK  Name = Meticrane
REMARK  3 active torsions:
REMARK  status: ('A' for Active; 'I' for Inactive)
REMARK    1  A    between atoms: C_1  and  C_2
REMARK    2  A    between atoms: C_7  and  S_8
REMARK    3  A    between atoms: S_8  and  N_9
REMARK                            x       y       z     vdW  Elec       q    Type
REMARK                         _______ _______ _______ _____ _____    ______ ____
ROOT
ATOM      1  C   UNL     1      -8.873  -3.663 129.017  0.00  0.00    +0.000 C 
ATOM      2  C   UNL     1      -8.264  -3.168 127.742  0.00  0.00    +0.000 A 
ATOM      3  C   UNL     1      -9.012  -3.288 126.550  0.00  0.00    +0.000 A 
ATOM      4  C   UNL     1      -8.529  -2.812 125.324  0.00  0.00    +0.000 A 
ATOM      5  C   UNL     1      -7.258  -2.223 125.325  0.00  0.00    +0.000 A 
ATOM      6  C   UNL     1      -6.490  -2.104 126.487  0.00  0.00    +0.000 A 
ATOM      7  C   UNL     1      -6.991  -2.574 127.699  0.00  0.00    +0.000 A 
ATOM      8  S   UNL     1      -6.525  -1.600 123.847  0.00  0.00    +0.000 S 
ATOM      9  O   UNL     1      -5.187  -2.156 123.776  0.00  0.00    +0.000 OA
ATOM     10  O   UNL     1      -6.759  -0.172 123.841  0.00  0.00    +0.000 OA
ATOM     11  C   UNL     1      -7.504  -2.349 122.577  0.00  0.00    +0.000 C 
ATOM     12  C   UNL     1      -8.974  -2.146 122.889  0.00  0.00    +0.000 C 
ATOM     13  C   UNL     1      -9.387  -2.996 124.091  0.00  0.00    +0.000 C 
ENDROOT
BRANCH   7  14
ATOM     14  S   UNL     1      -5.963  -2.324 129.141  0.00  0.00    +0.000 S 
ATOM     15  O   UNL     1      -6.577  -1.280 129.929  0.00  0.00    +0.000 OA
ATOM     16  O   UNL     1      -5.565  -3.589 129.706  0.00  0.00    +0.000 OA
BRANCH  14  17
ATOM     17  N   UNL     1      -4.587  -1.689 128.449  0.00  0.00    +0.000 NA
ATOM     18  H   UNL     1      -3.706  -1.899 128.906  0.00  0.00    +0.000 HD
ATOM     19  H   UNL     1      -4.708  -0.828 127.923  0.00  0.00    +0.000 HD
ENDBRANCH  14  17
ENDBRANCH   7  14
TORSDOF 2
ENDMDL
MODEL 6
REMARK VINA RESULT:      -6.1      9.067      9.792
REMARK  Name = Meticrane
REMARK  3 active torsions:
REMARK  status: ('A' for Active; 'I' for Inactive)
REMARK    1  A    between atoms: C_1  and  C_2
REMARK    2  A    between atoms: C_7  and  S_8
REMARK    3  A    between atoms: S_8  and  N_9
REMARK                            x       y       z     vdW  Elec       q    Type
REMARK                         _______ _______ _______ _____ _____    ______ ____
ROOT
ATOM      1  C   UNL     1      -8.013   2.553 127.943  0.00  0.00    +0.000 C 
ATOM      2  C   UNL     1      -8.096   1.547 126.836  0.00  0.00    +0.000 A 
ATOM      3  C   UNL     1      -8.253   0.186 127.177  0.00  0.00    +0.000 A 
ATOM      4  C   UNL     1      -8.379  -0.811 126.200  0.00  0.00    +0.000 A 
ATOM      5  C   UNL     1      -8.325  -0.400 124.862  0.00  0.00    +0.000 A 
ATOM      6  C   UNL     1      -8.156   0.938 124.496  0.00  0.00    +0.000 A 
ATOM      7  C   UNL     1      -8.043   1.916 125.482  0.00  0.00    +0.000 A 
ATOM      8  S   UNL     1      -8.452  -1.554 123.534  0.00  0.00    +0.000 S 
ATOM      9  O   UNL     1      -7.346  -1.283 122.635  0.00  0.00    +0.000 OA
ATOM     10  O   UNL     1      -9.828  -1.515 123.085  0.00  0.00    +0.000 OA
ATOM     11  C   UNL     1      -8.151  -3.105 124.331  0.00  0.00    +0.000 C 
ATOM     12  C   UNL     1      -9.019  -3.211 125.570  0.00  0.00    +0.000 C 
ATOM     13  C   UNL     1      -8.527  -2.248 126.651  0.00  0.00    +0.000 C 
ENDROOT
BRANCH   7  14
ATOM     14  S   UNL     1      -7.889   3.607 124.919  0.00  0.00    +0.000 S 
ATOM     15  O   UNL     1      -8.950   4.364 125.543  0.00  0.00    +0.000 OA
ATOM     16  O   UNL     1      -6.512   4.030 124.952  0.00  0.00    +0.000 OA
BRANCH  14  17
ATOM     17  N   UNL     1      -8.270   3.444 123.304  0.00  0.00    +0.000 NA
ATOM     18  H   UNL     1      -9.183   3.060 123.086  0.00  0.00    +0.000 HD
ATOM     19  H   UNL     1      -7.487   3.315 122.671  0.00  0.00    +0.000 HD
ENDBRANCH  14  17
ENDBRANCH   7  14
TORSDOF 2
ENDMDL
MODEL 7
REMARK VINA RESULT:      -6.0      9.405      9.960
REMARK  Name = Meticrane
REMARK  3 active torsions:
REMARK  status: ('A' for Active; 'I' for Inactive)
REMARK    1  A    between atoms: C_1  and  C_2
REMARK    2  A    between atoms: C_7  and  S_8
REMARK    3  A    between atoms: S_8  and  N_9
REMARK                            x       y       z     vdW  Elec       q    Type
REMARK                         _______ _______ _______ _____ _____    ______ ____
ROOT
ATOM      1  C   UNL     1      -7.844  -3.277 129.430  0.00  0.00    +0.000 C 
ATOM      2  C   UNL     1      -7.955  -2.610 128.094  0.00  0.00    +0.000 A 
ATOM      3  C   UNL     1      -8.383  -3.384 126.992  0.00  0.00    +0.000 A 
ATOM      4  C   UNL     1      -8.550  -2.825 125.718  0.00  0.00    +0.000 A 
ATOM      5  C   UNL     1      -8.259  -1.462 125.577  0.00  0.00    +0.000 A 
ATOM      6  C   UNL     1      -7.821  -0.676 126.647  0.00  0.00    +0.000 A 
ATOM      7  C   UNL     1      -7.669  -1.247 127.909  0.00  0.00    +0.000 A 
ATOM      8  S   UNL     1      -8.410  -0.638 124.025  0.00  0.00    +0.000 S 
ATOM      9  O   UNL     1      -7.170   0.082 123.810  0.00  0.00    +0.000 OA
ATOM     10  O   UNL     1      -9.691   0.036 124.040  0.00  0.00    +0.000 OA
ATOM     11  C   UNL     1      -8.479  -1.980 122.873  0.00  0.00    +0.000 C 
ATOM     12  C   UNL     1      -9.502  -2.995 123.344  0.00  0.00    +0.000 C 
ATOM     13  C   UNL     1      -8.995  -3.727 124.587  0.00  0.00    +0.000 C 
ENDROOT
BRANCH   7  14
ATOM     14  S   UNL     1      -7.162  -0.152 129.228  0.00  0.00    +0.000 S 
ATOM     15  O   UNL     1      -8.288  -0.010 130.124  0.00  0.00    +0.000 OA
ATOM     16  O   UNL     1      -5.841  -0.494 129.693  0.00  0.00    +0.000 OA
BRANCH  14  17
ATOM     17  N   UNL     1      -6.990   1.287 128.404  0.00  0.00    +0.000 NA
ATOM     18  H   UNL     1      -7.238   2.133 128.905  0.00  0.00    +0.000 HD
ATOM     19  H   UNL     1      -7.076   1.236 127.394  0.00  0.00    +0.000 HD
ENDBRANCH  14  17
ENDBRANCH   7  14
TORSDOF 2
ENDMDL
MODEL 8
REMARK VINA RESULT:      -6.0      1.810      5.108
REMARK  Name = Meticrane
REMARK  3 active torsions:
REMARK  status: ('A' for Active; 'I' for Inactive)
REMARK    1  A    between atoms: C_1  and  C_2
REMARK    2  A    between atoms: C_7  and  S_8
REMARK    3  A    between atoms: S_8  and  N_9
REMARK                            x       y       z     vdW  Elec       q    Type
REMARK                         _______ _______ _______ _____ _____    ______ ____
ROOT
ATOM      1  C   UNL     1     -10.454   8.372 128.413  0.00  0.00    +0.000 C 
ATOM      2  C   UNL     1     -10.029   7.598 129.622  0.00  0.00    +0.000 A 
ATOM      3  C   UNL     1      -8.647   7.402 129.842  0.00  0.00    +0.000 A 
ATOM      4  C   UNL     1      -8.168   6.724 130.970  0.00  0.00    +0.000 A 
ATOM      5  C   UNL     1      -9.121   6.230 131.870  0.00  0.00    +0.000 A 
ATOM      6  C   UNL     1     -10.495   6.398 131.671  0.00  0.00    +0.000 A 
ATOM      7  C   UNL     1     -10.953   7.084 130.548  0.00  0.00    +0.000 A 
ATOM      8  S   UNL     1      -8.654   5.343 133.320  0.00  0.00    +0.000 S 
ATOM      9  O   UNL     1      -9.445   4.127 133.342  0.00  0.00    +0.000 OA
ATOM     10  O   UNL     1      -8.685   6.293 134.413  0.00  0.00    +0.000 OA
ATOM     11  C   UNL     1      -6.972   4.904 132.987  0.00  0.00    +0.000 C 
ATOM     12  C   UNL     1      -6.214   6.131 132.521  0.00  0.00    +0.000 C 
ATOM     13  C   UNL     1      -6.673   6.542 131.121  0.00  0.00    +0.000 C 
ENDROOT
BRANCH   7  14
ATOM     14  S   UNL     1     -12.722   7.300 130.408  0.00  0.00    +0.000 S 
ATOM     15  O   UNL     1     -13.140   6.640 129.191  0.00  0.00    +0.000 OA
ATOM     16  O   UNL     1     -13.364   7.064 131.676  0.00  0.00    +0.000 OA
BRANCH  14  17
ATOM     17  N   UNL     1     -12.827   8.943 130.150  0.00  0.00    +0.000 NA
ATOM     18  H   UNL     1     -13.265   9.243 129.286  0.00  0.00    +0.000 HD
ATOM     19  H   UNL     1     -12.113   9.511 130.596  0.00  0.00    +0.000 HD
ENDBRANCH  14  17
ENDBRANCH   7  14
TORSDOF 2
ENDMDL
MODEL 9
REMARK VINA RESULT:      -6.0      9.279     10.020
REMARK  Name = Meticrane
REMARK  3 active torsions:
REMARK  status: ('A' for Active; 'I' for Inactive)
REMARK    1  A    between atoms: C_1  and  C_2
REMARK    2  A    between atoms: C_7  and  S_8
REMARK    3  A    between atoms: S_8  and  N_9
REMARK                            x       y       z     vdW  Elec       q    Type
REMARK                         _______ _______ _______ _____ _____    ______ ____
ROOT
ATOM      1  C   UNL     1      -6.327  -2.614 124.957  0.00  0.00    +0.000 C 
ATOM      2  C   UNL     1      -6.633  -1.151 124.875  0.00  0.00    +0.000 A 
ATOM      3  C   UNL     1      -5.773  -0.248 125.539  0.00  0.00    +0.000 A 
ATOM      4  C   UNL     1      -5.969   1.139 125.477  0.00  0.00    +0.000 A 
ATOM      5  C   UNL     1      -7.068   1.594 124.738  0.00  0.00    +0.000 A 
ATOM      6  C   UNL     1      -7.943   0.723 124.083  0.00  0.00    +0.000 A 
ATOM      7  C   UNL     1      -7.727  -0.652 124.148  0.00  0.00    +0.000 A 
ATOM      8  S   UNL     1      -7.439   3.313 124.594  0.00  0.00    +0.000 S 
ATOM      9  O   UNL     1      -8.843   3.468 124.922  0.00  0.00    +0.000 OA
ATOM     10  O   UNL     1      -6.899   3.746 123.323  0.00  0.00    +0.000 OA
ATOM     11  C   UNL     1      -6.482   4.031 125.900  0.00  0.00    +0.000 C 
ATOM     12  C   UNL     1      -5.061   3.510 125.827  0.00  0.00    +0.000 C 
ATOM     13  C   UNL     1      -5.011   2.036 126.231  0.00  0.00    +0.000 C 
ENDROOT
BRANCH   7  14
ATOM     14  S   UNL     1      -8.863  -1.685 123.231  0.00  0.00    +0.000 S 
ATOM     15  O   UNL     1      -8.148  -2.193 122.082  0.00  0.00    +0.000 OA
ATOM     16  O   UNL     1      -9.604  -2.541 124.122  0.00  0.00    +0.000 OA
BRANCH  14  17
ATOM     17  N   UNL     1      -9.957  -0.553 122.683  0.00  0.00    +0.000 NA
ATOM     18  H   UNL     1     -10.441  -0.767 121.817  0.00  0.00    +0.000 HD
ATOM     19  H   UNL     1      -9.778   0.409 122.956  0.00  0.00    +0.000 HD
ENDBRANCH  14  17
ENDBRANCH   7  14
TORSDOF 2
ENDMDL
