MODEL 1
REMARK VINA RESULT:      -7.2      0.000      0.000
REMARK  Name = Metixene
REMARK  3 active torsions:
REMARK  status: ('A' for Active; 'I' for Inactive)
REMARK    1  A    between atoms: C_1  and  N_2
REMARK    2  A    between atoms: C_6  and  C_7
REMARK    3  A    between atoms: C_7  and  C_8
REMARK                            x       y       z     vdW  Elec       q    Type
REMARK                         _______ _______ _______ _____ _____    ______ ____
ROOT
ATOM      1  C   UNL     1      -5.984  -2.039 126.259  0.00  0.00    +0.000 C 
ATOM      2  C   UNL     1      -6.642  -2.457 127.567  0.00  0.00    +0.000 A 
ATOM      3  C   UNL     1      -5.882  -2.358 128.753  0.00  0.00    +0.000 A 
ATOM      4  C   UNL     1      -6.406  -2.683 129.997  0.00  0.00    +0.000 A 
ATOM      5  C   UNL     1      -7.704  -3.168 130.084  0.00  0.00    +0.000 A 
ATOM      6  C   UNL     1      -8.462  -3.300 128.925  0.00  0.00    +0.000 A 
ATOM      7  C   UNL     1      -7.950  -2.945 127.669  0.00  0.00    +0.000 A 
ATOM      8  S   UNL     1      -9.045  -3.176 126.308  0.00  0.00    +0.000 S 
ATOM      9  C   UNL     1      -8.094  -2.683 124.906  0.00  0.00    +0.000 A 
ATOM     10  C   UNL     1      -8.789  -2.684 123.684  0.00  0.00    +0.000 A 
ATOM     11  C   UNL     1      -8.195  -2.228 122.513  0.00  0.00    +0.000 A 
ATOM     12  C   UNL     1      -6.882  -1.781 122.546  0.00  0.00    +0.000 A 
ATOM     13  C   UNL     1      -6.167  -1.814 123.744  0.00  0.00    +0.000 A 
ATOM     14  C   UNL     1      -6.765  -2.230 124.959  0.00  0.00    +0.000 A 
ENDROOT
BRANCH   1  15
ATOM     15  C   UNL     1      -5.376  -0.598 126.417  0.00  0.00    +0.000 C 
BRANCH  15  21
ATOM     16  C   UNL     1      -6.705   3.614 124.324  0.00  0.00    +0.000 C 
ATOM     17  N   UNL     1      -7.030   2.772 125.480  0.00  0.00    +0.000 NA
ATOM     18  C   UNL     1      -6.791   3.461 126.744  0.00  0.00    +0.000 C 
ATOM     19  C   UNL     1      -7.087   2.528 127.923  0.00  0.00    +0.000 C 
ATOM     20  C   UNL     1      -6.214   1.277 127.871  0.00  0.00    +0.000 C 
ATOM     21  C   UNL     1      -6.392   0.562 126.527  0.00  0.00    +0.000 C 
ATOM     22  C   UNL     1      -6.204   1.574 125.397  0.00  0.00    +0.000 C 
ENDBRANCH  15  21
ENDBRANCH   1  15
TORSDOF 2
ENDMDL
MODEL 2
REMARK VINA RESULT:      -7.1      1.759      2.343
REMARK  Name = Metixene
REMARK  3 active torsions:
REMARK  status: ('A' for Active; 'I' for Inactive)
REMARK    1  A    between atoms: C_1  and  N_2
REMARK    2  A    between atoms: C_6  and  C_7
REMARK    3  A    between atoms: C_7  and  C_8
REMARK                            x       y       z     vdW  Elec       q    Type
REMARK                         _______ _______ _______ _____ _____    ______ ____
ROOT
ATOM      1  C   UNL     1      -7.983  -0.498 126.374  0.00  0.00    +0.000 C 
ATOM      2  C   UNL     1      -7.865  -0.965 127.818  0.00  0.00    +0.000 A 
ATOM      3  C   UNL     1      -7.420  -0.034 128.783  0.00  0.00    +0.000 A 
ATOM      4  C   UNL     1      -7.313  -0.357 130.129  0.00  0.00    +0.000 A 
ATOM      5  C   UNL     1      -7.604  -1.649 130.544  0.00  0.00    +0.000 A 
ATOM      6  C   UNL     1      -8.017  -2.591 129.607  0.00  0.00    +0.000 A 
ATOM      7  C   UNL     1      -8.158  -2.263 128.252  0.00  0.00    +0.000 A 
ATOM      8  S   UNL     1      -8.691  -3.576 127.203  0.00  0.00    +0.000 S 
ATOM      9  C   UNL     1      -8.721  -2.852 125.594  0.00  0.00    +0.000 A 
ATOM     10  C   UNL     1      -9.216  -3.685 124.576  0.00  0.00    +0.000 A 
ATOM     11  C   UNL     1      -9.387  -3.217 123.278  0.00  0.00    +0.000 A 
ATOM     12  C   UNL     1      -9.045  -1.906 122.976  0.00  0.00    +0.000 A 
ATOM     13  C   UNL     1      -8.513  -1.082 123.969  0.00  0.00    +0.000 A 
ATOM     14  C   UNL     1      -8.373  -1.521 125.308  0.00  0.00    +0.000 A 
ENDROOT
BRANCH   1  15
ATOM     15  C   UNL     1      -8.840   0.819 126.320  0.00  0.00    +0.000 C 
BRANCH  15  21
ATOM     16  C   UNL     1      -8.593   3.179 122.047  0.00  0.00    +0.000 C 
ATOM     17  N   UNL     1      -8.007   3.207 123.391  0.00  0.00    +0.000 NA
ATOM     18  C   UNL     1      -6.565   2.983 123.365  0.00  0.00    +0.000 C 
ATOM     19  C   UNL     1      -6.004   2.962 124.791  0.00  0.00    +0.000 C 
ATOM     20  C   UNL     1      -6.659   1.864 125.626  0.00  0.00    +0.000 C 
ATOM     21  C   UNL     1      -8.182   2.032 125.622  0.00  0.00    +0.000 C 
ATOM     22  C   UNL     1      -8.663   2.169 124.177  0.00  0.00    +0.000 C 
ENDBRANCH  15  21
ENDBRANCH   1  15
TORSDOF 2
ENDMDL
MODEL 3
REMARK VINA RESULT:      -7.0      2.411      5.606
REMARK  Name = Metixene
REMARK  3 active torsions:
REMARK  status: ('A' for Active; 'I' for Inactive)
REMARK    1  A    between atoms: C_1  and  N_2
REMARK    2  A    between atoms: C_6  and  C_7
REMARK    3  A    between atoms: C_7  and  C_8
REMARK                            x       y       z     vdW  Elec       q    Type
REMARK                         _______ _______ _______ _____ _____    ______ ____
ROOT
ATOM      1  C   UNL     1      -6.620  -1.083 126.023  0.00  0.00    +0.000 C 
ATOM      2  C   UNL     1      -7.594  -1.731 125.049  0.00  0.00    +0.000 A 
ATOM      3  C   UNL     1      -7.947  -3.082 125.263  0.00  0.00    +0.000 A 
ATOM      4  C   UNL     1      -8.853  -3.749 124.449  0.00  0.00    +0.000 A 
ATOM      5  C   UNL     1      -9.400  -3.090 123.357  0.00  0.00    +0.000 A 
ATOM      6  C   UNL     1      -9.046  -1.767 123.110  0.00  0.00    +0.000 A 
ATOM      7  C   UNL     1      -8.156  -1.078 123.946  0.00  0.00    +0.000 A 
ATOM      8  S   UNL     1      -7.819   0.590 123.487  0.00  0.00    +0.000 S 
ATOM      9  C   UNL     1      -6.656   1.138 124.696  0.00  0.00    +0.000 A 
ATOM     10  C   UNL     1      -6.297   2.494 124.604  0.00  0.00    +0.000 A 
ATOM     11  C   UNL     1      -5.465   3.087 125.547  0.00  0.00    +0.000 A 
ATOM     12  C   UNL     1      -4.963   2.321 126.590  0.00  0.00    +0.000 A 
ATOM     13  C   UNL     1      -5.278   0.964 126.668  0.00  0.00    +0.000 A 
ATOM     14  C   UNL     1      -6.161   0.349 125.747  0.00  0.00    +0.000 A 
ENDROOT
BRANCH   1  15
ATOM     15  C   UNL     1      -7.128  -1.304 127.494  0.00  0.00    +0.000 C 
BRANCH  15  21
ATOM     16  C   UNL     1      -6.753  -3.255 131.960  0.00  0.00    +0.000 C 
ATOM     17  N   UNL     1      -6.216  -3.418 130.605  0.00  0.00    +0.000 NA
ATOM     18  C   UNL     1      -4.772  -3.213 130.559  0.00  0.00    +0.000 C 
ATOM     19  C   UNL     1      -4.263  -3.334 129.118  0.00  0.00    +0.000 C 
ATOM     20  C   UNL     1      -4.935  -2.310 128.207  0.00  0.00    +0.000 C 
ATOM     21  C   UNL     1      -6.459  -2.455 128.280  0.00  0.00    +0.000 C 
ATOM     22  C   UNL     1      -6.888  -2.449 129.747  0.00  0.00    +0.000 C 
ENDBRANCH  15  21
ENDBRANCH   1  15
TORSDOF 2
ENDMDL
MODEL 4
REMARK VINA RESULT:      -7.0      1.704      4.503
REMARK  Name = Metixene
REMARK  3 active torsions:
REMARK  status: ('A' for Active; 'I' for Inactive)
REMARK    1  A    between atoms: C_1  and  N_2
REMARK    2  A    between atoms: C_6  and  C_7
REMARK    3  A    between atoms: C_7  and  C_8
REMARK                            x       y       z     vdW  Elec       q    Type
REMARK                         _______ _______ _______ _____ _____    ______ ____
ROOT
ATOM      1  C   UNL     1      -7.879  -0.194 126.100  0.00  0.00    +0.000 C 
ATOM      2  C   UNL     1      -8.420  -1.266 125.163  0.00  0.00    +0.000 A 
ATOM      3  C   UNL     1      -8.649  -0.915 123.814  0.00  0.00    +0.000 A 
ATOM      4  C   UNL     1      -9.109  -1.832 122.879  0.00  0.00    +0.000 A 
ATOM      5  C   UNL     1      -9.402  -3.127 123.282  0.00  0.00    +0.000 A 
ATOM      6  C   UNL     1      -9.211  -3.488 124.612  0.00  0.00    +0.000 A 
ATOM      7  C   UNL     1      -8.717  -2.576 125.556  0.00  0.00    +0.000 A 
ATOM      8  S   UNL     1      -8.536  -3.200 127.194  0.00  0.00    +0.000 S 
ATOM      9  C   UNL     1      -7.949  -1.815 128.116  0.00  0.00    +0.000 A 
ATOM     10  C   UNL     1      -7.628  -2.085 129.457  0.00  0.00    +0.000 A 
ATOM     11  C   UNL     1      -7.064  -1.114 130.276  0.00  0.00    +0.000 A 
ATOM     12  C   UNL     1      -6.831   0.156 129.765  0.00  0.00    +0.000 A 
ATOM     13  C   UNL     1      -7.184   0.449 128.447  0.00  0.00    +0.000 A 
ATOM     14  C   UNL     1      -7.716  -0.537 127.580  0.00  0.00    +0.000 A 
ENDROOT
BRANCH   1  15
ATOM     15  C   UNL     1      -6.597   0.455 125.463  0.00  0.00    +0.000 C 
BRANCH  15  21
ATOM     16  C   UNL     1      -6.841   3.510 121.656  0.00  0.00    +0.000 C 
ATOM     17  N   UNL     1      -6.761   3.530 123.120  0.00  0.00    +0.000 NA
ATOM     18  C   UNL     1      -5.552   4.198 123.594  0.00  0.00    +0.000 C 
ATOM     19  C   UNL     1      -5.480   4.144 125.124  0.00  0.00    +0.000 C 
ATOM     20  C   UNL     1      -5.478   2.703 125.628  0.00  0.00    +0.000 C 
ATOM     21  C   UNL     1      -6.703   1.953 125.094  0.00  0.00    +0.000 C 
ATOM     22  C   UNL     1      -6.785   2.147 123.580  0.00  0.00    +0.000 C 
ENDBRANCH  15  21
ENDBRANCH   1  15
TORSDOF 2
ENDMDL
MODEL 5
REMARK VINA RESULT:      -6.9      2.242      4.758
REMARK  Name = Metixene
REMARK  3 active torsions:
REMARK  status: ('A' for Active; 'I' for Inactive)
REMARK    1  A    between atoms: C_1  and  N_2
REMARK    2  A    between atoms: C_6  and  C_7
REMARK    3  A    between atoms: C_7  and  C_8
REMARK                            x       y       z     vdW  Elec       q    Type
REMARK                         _______ _______ _______ _____ _____    ______ ____
ROOT
ATOM      1  C   UNL     1      -6.425  -0.308 126.825  0.00  0.00    +0.000 C 
ATOM      2  C   UNL     1      -6.969  -1.309 127.834  0.00  0.00    +0.000 A 
ATOM      3  C   UNL     1      -7.880  -2.287 127.375  0.00  0.00    +0.000 A 
ATOM      4  C   UNL     1      -8.403  -3.262 128.213  0.00  0.00    +0.000 A 
ATOM      5  C   UNL     1      -8.065  -3.256 129.559  0.00  0.00    +0.000 A 
ATOM      6  C   UNL     1      -7.192  -2.286 130.040  0.00  0.00    +0.000 A 
ATOM      7  C   UNL     1      -6.635  -1.317 129.193  0.00  0.00    +0.000 A 
ATOM      8  S   UNL     1      -5.549  -0.165 129.968  0.00  0.00    +0.000 S 
ATOM      9  C   UNL     1      -5.070   0.917 128.658  0.00  0.00    +0.000 A 
ATOM     10  C   UNL     1      -4.110   1.883 129.005  0.00  0.00    +0.000 A 
ATOM     11  C   UNL     1      -3.569   2.740 128.053  0.00  0.00    +0.000 A 
ATOM     12  C   UNL     1      -3.998   2.652 126.736  0.00  0.00    +0.000 A 
ATOM     13  C   UNL     1      -4.981   1.724 126.387  0.00  0.00    +0.000 A 
ATOM     14  C   UNL     1      -5.512   0.810 127.329  0.00  0.00    +0.000 A 
ENDROOT
BRANCH   1  15
ATOM     15  C   UNL     1      -5.841  -1.080 125.586  0.00  0.00    +0.000 C 
BRANCH  15  21
ATOM     16  C   UNL     1      -9.707   1.141 123.584  0.00  0.00    +0.000 C 
ATOM     17  N   UNL     1      -8.649   0.184 123.244  0.00  0.00    +0.000 NA
ATOM     18  C   UNL     1      -9.189  -1.119 122.870  0.00  0.00    +0.000 C 
ATOM     19  C   UNL     1      -8.051  -2.103 122.580  0.00  0.00    +0.000 C 
ATOM     20  C   UNL     1      -7.144  -2.275 123.796  0.00  0.00    +0.000 C 
ATOM     21  C   UNL     1      -6.610  -0.914 124.255  0.00  0.00    +0.000 C 
ATOM     22  C   UNL     1      -7.783   0.054 124.409  0.00  0.00    +0.000 C 
ENDBRANCH  15  21
ENDBRANCH   1  15
TORSDOF 2
ENDMDL
MODEL 6
REMARK VINA RESULT:      -6.9      2.772      6.067
REMARK  Name = Metixene
REMARK  3 active torsions:
REMARK  status: ('A' for Active; 'I' for Inactive)
REMARK    1  A    between atoms: C_1  and  N_2
REMARK    2  A    between atoms: C_6  and  C_7
REMARK    3  A    between atoms: C_7  and  C_8
REMARK                            x       y       z     vdW  Elec       q    Type
REMARK                         _______ _______ _______ _____ _____    ______ ____
ROOT
ATOM      1  C   UNL     1      -7.056  -2.065 129.312  0.00  0.00    +0.000 C 
ATOM      2  C   UNL     1      -7.454  -0.647 129.696  0.00  0.00    +0.000 A 
ATOM      3  C   UNL     1      -7.986   0.190 128.690  0.00  0.00    +0.000 A 
ATOM      4  C   UNL     1      -8.408   1.486 128.952  0.00  0.00    +0.000 A 
ATOM      5  C   UNL     1      -8.264   2.004 130.232  0.00  0.00    +0.000 A 
ATOM      6  C   UNL     1      -7.717   1.207 131.233  0.00  0.00    +0.000 A 
ATOM      7  C   UNL     1      -7.317  -0.113 130.983  0.00  0.00    +0.000 A 
ATOM      8  S   UNL     1      -6.645  -0.978 132.364  0.00  0.00    +0.000 S 
ATOM      9  C   UNL     1      -6.214  -2.559 131.708  0.00  0.00    +0.000 A 
ATOM     10  C   UNL     1      -5.738  -3.485 132.652  0.00  0.00    +0.000 A 
ATOM     11  C   UNL     1      -5.451  -4.798 132.296  0.00  0.00    +0.000 A 
ATOM     12  C   UNL     1      -5.619  -5.198 130.977  0.00  0.00    +0.000 A 
ATOM     13  C   UNL     1      -6.051  -4.276 130.022  0.00  0.00    +0.000 A 
ATOM     14  C   UNL     1      -6.394  -2.947 130.370  0.00  0.00    +0.000 A 
ENDROOT
BRANCH   1  15
ATOM     15  C   UNL     1      -8.258  -2.764 128.578  0.00  0.00    +0.000 C 
BRANCH  15  21
ATOM     16  C   UNL     1      -5.497  -1.768 124.670  0.00  0.00    +0.000 C 
ATOM     17  N   UNL     1      -6.626  -2.613 125.073  0.00  0.00    +0.000 NA
ATOM     18  C   UNL     1      -7.835  -2.313 124.311  0.00  0.00    +0.000 C 
ATOM     19  C   UNL     1      -9.001  -3.176 124.803  0.00  0.00    +0.000 C 
ATOM     20  C   UNL     1      -9.280  -2.936 126.285  0.00  0.00    +0.000 C 
ATOM     21  C   UNL     1      -8.011  -3.180 127.109  0.00  0.00    +0.000 C 
ATOM     22  C   UNL     1      -6.858  -2.386 126.494  0.00  0.00    +0.000 C 
ENDBRANCH  15  21
ENDBRANCH   1  15
TORSDOF 2
ENDMDL
MODEL 7
REMARK VINA RESULT:      -6.9      6.273      8.556
REMARK  Name = Metixene
REMARK  3 active torsions:
REMARK  status: ('A' for Active; 'I' for Inactive)
REMARK    1  A    between atoms: C_1  and  N_2
REMARK    2  A    between atoms: C_6  and  C_7
REMARK    3  A    between atoms: C_7  and  C_8
REMARK                            x       y       z     vdW  Elec       q    Type
REMARK                         _______ _______ _______ _____ _____    ______ ____
ROOT
ATOM      1  C   UNL     1      -7.260   5.169 132.082  0.00  0.00    +0.000 C 
ATOM      2  C   UNL     1      -7.923   3.813 131.888  0.00  0.00    +0.000 A 
ATOM      3  C   UNL     1      -8.911   3.417 132.816  0.00  0.00    +0.000 A 
ATOM      4  C   UNL     1      -9.595   2.214 132.702  0.00  0.00    +0.000 A 
ATOM      5  C   UNL     1      -9.270   1.341 131.674  0.00  0.00    +0.000 A 
ATOM      6  C   UNL     1      -8.280   1.697 130.763  0.00  0.00    +0.000 A 
ATOM      7  C   UNL     1      -7.608   2.924 130.853  0.00  0.00    +0.000 A 
ATOM      8  S   UNL     1      -6.384   3.213 129.618  0.00  0.00    +0.000 S 
ATOM      9  C   UNL     1      -5.716   4.791 130.041  0.00  0.00    +0.000 A 
ATOM     10  C   UNL     1      -4.770   5.299 129.133  0.00  0.00    +0.000 A 
ATOM     11  C   UNL     1      -4.232   6.571 129.287  0.00  0.00    +0.000 A 
ATOM     12  C   UNL     1      -4.622   7.350 130.368  0.00  0.00    +0.000 A 
ATOM     13  C   UNL     1      -5.528   6.840 131.299  0.00  0.00    +0.000 A 
ATOM     14  C   UNL     1      -6.125   5.566 131.139  0.00  0.00    +0.000 A 
ENDROOT
BRANCH   1  15
ATOM     15  C   UNL     1      -8.368   6.275 132.227  0.00  0.00    +0.000 C 
BRANCH  15  21
ATOM     16  C   UNL     1     -10.376   8.422 128.323  0.00  0.00    +0.000 C 
ATOM     17  N   UNL     1     -10.630   7.333 129.271  0.00  0.00    +0.000 NA
ATOM     18  C   UNL     1     -11.856   7.545 130.035  0.00  0.00    +0.000 C 
ATOM     19  C   UNL     1     -12.052   6.416 131.052  0.00  0.00    +0.000 C 
ATOM     20  C   UNL     1     -10.875   6.336 132.022  0.00  0.00    +0.000 C 
ATOM     21  C   UNL     1      -9.561   6.177 131.249  0.00  0.00    +0.000 C 
ATOM     22  C   UNL     1      -9.485   7.258 130.171  0.00  0.00    +0.000 C 
ENDBRANCH  15  21
ENDBRANCH   1  15
TORSDOF 2
ENDMDL
MODEL 8
REMARK VINA RESULT:      -6.8      2.345      5.283
REMARK  Name = Metixene
REMARK  3 active torsions:
REMARK  status: ('A' for Active; 'I' for Inactive)
REMARK    1  A    between atoms: C_1  and  N_2
REMARK    2  A    between atoms: C_6  and  C_7
REMARK    3  A    between atoms: C_7  and  C_8
REMARK                            x       y       z     vdW  Elec       q    Type
REMARK                         _______ _______ _______ _____ _____    ______ ____
ROOT
ATOM      1  C   UNL     1      -7.243  -0.727 126.271  0.00  0.00    +0.000 C 
ATOM      2  C   UNL     1      -6.662   0.650 125.984  0.00  0.00    +0.000 A 
ATOM      3  C   UNL     1      -5.977   1.313 127.026  0.00  0.00    +0.000 A 
ATOM      4  C   UNL     1      -5.384   2.555 126.850  0.00  0.00    +0.000 A 
ATOM      5  C   UNL     1      -5.504   3.200 125.626  0.00  0.00    +0.000 A 
ATOM      6  C   UNL     1      -6.199   2.578 124.593  0.00  0.00    +0.000 A 
ATOM      7  C   UNL     1      -6.773   1.310 124.754  0.00  0.00    +0.000 A 
ATOM      8  S   UNL     1      -7.616   0.672 123.344  0.00  0.00    +0.000 S 
ATOM      9  C   UNL     1      -8.242  -0.885 123.890  0.00  0.00    +0.000 A 
ATOM     10  C   UNL     1      -8.883  -1.649 122.899  0.00  0.00    +0.000 A 
ATOM     11  C   UNL     1      -9.340  -2.936 123.160  0.00  0.00    +0.000 A 
ATOM     12  C   UNL     1      -9.178  -3.470 124.431  0.00  0.00    +0.000 A 
ATOM     13  C   UNL     1      -8.582  -2.706 125.435  0.00  0.00    +0.000 A 
ATOM     14  C   UNL     1      -8.066  -1.412 125.180  0.00  0.00    +0.000 A 
ENDROOT
BRANCH   1  15
ATOM     15  C   UNL     1      -6.125  -1.648 126.882  0.00  0.00    +0.000 C 
BRANCH  15  21
ATOM     16  C   UNL     1      -3.706  -3.605 130.651  0.00  0.00    +0.000 C 
ATOM     17  N   UNL     1      -5.013  -3.027 130.322  0.00  0.00    +0.000 NA
ATOM     18  C   UNL     1      -6.098  -3.987 130.504  0.00  0.00    +0.000 C 
ATOM     19  C   UNL     1      -7.436  -3.361 130.094  0.00  0.00    +0.000 C 
ATOM     20  C   UNL     1      -7.413  -2.914 128.634  0.00  0.00    +0.000 C 
ATOM     21  C   UNL     1      -6.243  -1.953 128.393  0.00  0.00    +0.000 C 
ATOM     22  C   UNL     1      -4.961  -2.585 128.934  0.00  0.00    +0.000 C 
ENDBRANCH  15  21
ENDBRANCH   1  15
TORSDOF 2
ENDMDL
MODEL 9
REMARK VINA RESULT:      -6.7      1.363      2.040
REMARK  Name = Metixene
REMARK  3 active torsions:
REMARK  status: ('A' for Active; 'I' for Inactive)
REMARK    1  A    between atoms: C_1  and  N_2
REMARK    2  A    between atoms: C_6  and  C_7
REMARK    3  A    between atoms: C_7  and  C_8
REMARK                            x       y       z     vdW  Elec       q    Type
REMARK                         _______ _______ _______ _____ _____    ______ ____
ROOT
ATOM      1  C   UNL     1      -7.096  -0.929 126.243  0.00  0.00    +0.000 C 
ATOM      2  C   UNL     1      -7.230  -1.392 127.687  0.00  0.00    +0.000 A 
ATOM      3  C   UNL     1      -6.533  -0.673 128.683  0.00  0.00    +0.000 A 
ATOM      4  C   UNL     1      -6.621  -0.999 130.029  0.00  0.00    +0.000 A 
ATOM      5  C   UNL     1      -7.379  -2.095 130.417  0.00  0.00    +0.000 A 
ATOM      6  C   UNL     1      -8.053  -2.835 129.450  0.00  0.00    +0.000 A 
ATOM      7  C   UNL     1      -7.994  -2.493 128.092  0.00  0.00    +0.000 A 
ATOM      8  S   UNL     1      -8.907  -3.537 127.004  0.00  0.00    +0.000 S 
ATOM      9  C   UNL     1      -8.589  -2.868 125.403  0.00  0.00    +0.000 A 
ATOM     10  C   UNL     1      -9.296  -3.477 124.352  0.00  0.00    +0.000 A 
ATOM     11  C   UNL     1      -9.218  -2.993 123.051  0.00  0.00    +0.000 A 
ATOM     12  C   UNL     1      -8.411  -1.896 122.780  0.00  0.00    +0.000 A 
ATOM     13  C   UNL     1      -7.672  -1.308 123.808  0.00  0.00    +0.000 A 
ATOM     14  C   UNL     1      -7.771  -1.754 125.148  0.00  0.00    +0.000 A 
ENDROOT
BRANCH   1  15
ATOM     15  C   UNL     1      -7.417   0.608 126.155  0.00  0.00    +0.000 C 
BRANCH  15  21
ATOM     16  C   UNL     1      -4.047   4.091 126.785  0.00  0.00    +0.000 C 
ATOM     17  N   UNL     1      -4.697   3.325 125.717  0.00  0.00    +0.000 NA
ATOM     18  C   UNL     1      -5.433   4.185 124.795  0.00  0.00    +0.000 C 
ATOM     19  C   UNL     1      -6.143   3.341 123.732  0.00  0.00    +0.000 C 
ATOM     20  C   UNL     1      -7.118   2.355 124.369  0.00  0.00    +0.000 C 
ATOM     21  C   UNL     1      -6.390   1.477 125.393  0.00  0.00    +0.000 C 
ATOM     22  C   UNL     1      -5.604   2.374 126.349  0.00  0.00    +0.000 C 
ENDBRANCH  15  21
ENDBRANCH   1  15
TORSDOF 2
ENDMDL
