MODEL 1
REMARK VINA RESULT:      -5.8      0.000      0.000
REMARK  Name = Metipranolol
REMARK  15 active torsions:
REMARK  status: ('A' for Active; 'I' for Inactive)
REMARK    1  A    between atoms: C_1  and  C_2
REMARK    2  A    between atoms: C_2  and  C_3
REMARK    3  A    between atoms: C_2  and  N_4
REMARK    4  A    between atoms: N_4  and  C_5
REMARK    5  A    between atoms: C_5  and  C_6
REMARK    6  A    between atoms: C_6  and  O_7
REMARK    7  A    between atoms: C_6  and  C_8
REMARK    8  A    between atoms: C_8  and  O_9
REMARK    9  A    between atoms: O_9  and  C_10
REMARK   10  A    between atoms: C_11  and  C_12
REMARK   11  A    between atoms: C_13  and  C_14
REMARK   12  A    between atoms: C_15  and  O_16
REMARK   13  A    between atoms: O_16  and  C_17
REMARK   14  A    between atoms: C_17  and  C_18
REMARK   15  A    between atoms: C_20  and  C_21
REMARK                            x       y       z     vdW  Elec       q    Type
REMARK                         _______ _______ _______ _____ _____    ______ ____
ROOT
ATOM      1  C   UNL     1      -7.805   1.048 125.087  0.00  0.00    +0.000 A 
ATOM      2  C   UNL     1      -8.475   1.556 123.958  0.00  0.00    +0.000 A 
ATOM      3  C   UNL     1      -9.816   0.963 123.606  0.00  0.00    +0.000 C 
ATOM      4  C   UNL     1      -7.893   2.620 123.197  0.00  0.00    +0.000 A 
ATOM      5  C   UNL     1      -8.605   3.149 121.972  0.00  0.00    +0.000 C 
ATOM      6  C   UNL     1      -6.664   3.170 123.652  0.00  0.00    +0.000 A 
ATOM      7  C   UNL     1      -6.092   2.700 124.853  0.00  0.00    +0.000 A 
ATOM      8  C   UNL     1      -4.977   3.319 125.604  0.00  0.00    +0.000 C 
ATOM      9  C   UNL     1      -6.602   1.583 125.483  0.00  0.00    +0.000 A 
ENDROOT
BRANCH   1  10
ATOM     10  O   UNL     1      -8.340   0.003 125.782  0.00  0.00    +0.000 OA
BRANCH  10  11
ATOM     11  C   UNL     1      -7.433  -0.604 126.709  0.00  0.00    +0.000 C 
BRANCH  11  12
ATOM     12  C   UNL     1      -8.076  -1.895 127.200  0.00  0.00    +0.000 C 
BRANCH  12  13
ATOM     13  O   UNL     1      -7.237  -2.553 128.156  0.00  0.00    +0.000 OA
ATOM     14  H   UNL     1      -7.356  -3.509 128.037  0.00  0.00    +0.000 HD
ENDBRANCH  12  13
BRANCH  12  15
ATOM     15  C   UNL     1      -8.311  -2.815 126.003  0.00  0.00    +0.000 C 
BRANCH  15  16
ATOM     16  N   UNL     1      -7.193  -2.726 125.065  0.00  0.00    +0.000 NA
ATOM     17  H   UNL     1      -6.718  -1.830 125.209  0.00  0.00    +0.000 HD
BRANCH  16  19
ATOM     18  C   UNL     1      -9.144  -2.854 123.621  0.00  0.00    +0.000 C 
ATOM     19  C   UNL     1      -7.618  -2.885 123.676  0.00  0.00    +0.000 C 
ATOM     20  C   UNL     1      -7.058  -1.762 122.801  0.00  0.00    +0.000 C 
ENDBRANCH  16  19
ENDBRANCH  15  16
ENDBRANCH  12  15
ENDBRANCH  11  12
ENDBRANCH  10  11
ENDBRANCH   1  10
BRANCH   6  21
ATOM     21  O   UNL     1      -6.037   4.270 122.870  0.00  0.00    +0.000 OA
BRANCH  21  22
ATOM     22  C   UNL     1      -5.142   4.532 121.744  0.00  0.00    +0.000 C 
ATOM     23  C   UNL     1      -5.115   3.414 120.740  0.00  0.00    +0.000 C 
ATOM     24  O   UNL     1      -4.457   5.516 121.651  0.00  0.00    +0.000 OA
ENDBRANCH  21  22
ENDBRANCH   6  21
TORSDOF 9
ENDMDL
MODEL 2
REMARK VINA RESULT:      -5.6      8.456     10.426
REMARK  Name = Metipranolol
REMARK  15 active torsions:
REMARK  status: ('A' for Active; 'I' for Inactive)
REMARK    1  A    between atoms: C_1  and  C_2
REMARK    2  A    between atoms: C_2  and  C_3
REMARK    3  A    between atoms: C_2  and  N_4
REMARK    4  A    between atoms: N_4  and  C_5
REMARK    5  A    between atoms: C_5  and  C_6
REMARK    6  A    between atoms: C_6  and  O_7
REMARK    7  A    between atoms: C_6  and  C_8
REMARK    8  A    between atoms: C_8  and  O_9
REMARK    9  A    between atoms: O_9  and  C_10
REMARK   10  A    between atoms: C_11  and  C_12
REMARK   11  A    between atoms: C_13  and  C_14
REMARK   12  A    between atoms: C_15  and  O_16
REMARK   13  A    between atoms: O_16  and  C_17
REMARK   14  A    between atoms: C_17  and  C_18
REMARK   15  A    between atoms: C_20  and  C_21
REMARK                            x       y       z     vdW  Elec       q    Type
REMARK                         _______ _______ _______ _____ _____    ______ ____
ROOT
ATOM      1  C   UNL     1      -7.598   6.439 131.957  0.00  0.00    +0.000 A 
ATOM      2  C   UNL     1      -7.190   5.710 133.091  0.00  0.00    +0.000 A 
ATOM      3  C   UNL     1      -8.257   5.040 133.921  0.00  0.00    +0.000 C 
ATOM      4  C   UNL     1      -5.800   5.600 133.411  0.00  0.00    +0.000 A 
ATOM      5  C   UNL     1      -5.366   4.833 134.641  0.00  0.00    +0.000 C 
ATOM      6  C   UNL     1      -4.862   6.197 132.524  0.00  0.00    +0.000 A 
ATOM      7  C   UNL     1      -5.318   6.819 131.343  0.00  0.00    +0.000 A 
ATOM      8  C   UNL     1      -4.491   7.256 130.197  0.00  0.00    +0.000 C 
ATOM      9  C   UNL     1      -6.667   7.030 131.137  0.00  0.00    +0.000 A 
ENDROOT
BRANCH   1  10
ATOM     10  O   UNL     1      -8.927   6.580 131.682  0.00  0.00    +0.000 OA
BRANCH  10  11
ATOM     11  C   UNL     1      -9.198   7.076 130.366  0.00  0.00    +0.000 C 
BRANCH  11  12
ATOM     12  C   UNL     1      -9.790   5.929 129.557  0.00  0.00    +0.000 C 
BRANCH  12  13
ATOM     13  O   UNL     1      -9.790   6.237 128.158  0.00  0.00    +0.000 OA
ATOM     14  H   UNL     1     -10.241   7.089 128.049  0.00  0.00    +0.000 HD
ENDBRANCH  12  13
BRANCH  12  15
ATOM     15  C   UNL     1     -11.222   5.681 130.028  0.00  0.00    +0.000 C 
BRANCH  15  16
ATOM     16  N   UNL     1     -12.177   6.155 129.027  0.00  0.00    +0.000 NA
ATOM     17  H   UNL     1     -11.661   6.412 128.181  0.00  0.00    +0.000 HD
BRANCH  16  19
ATOM     18  C   UNL     1     -12.894   7.317 131.039  0.00  0.00    +0.000 C 
ATOM     19  C   UNL     1     -12.988   7.269 129.515  0.00  0.00    +0.000 C 
ATOM     20  C   UNL     1     -12.496   8.597 128.936  0.00  0.00    +0.000 C 
ENDBRANCH  16  19
ENDBRANCH  15  16
ENDBRANCH  12  15
ENDBRANCH  11  12
ENDBRANCH  10  11
ENDBRANCH   1  10
BRANCH   6  21
ATOM     21  O   UNL     1      -3.412   6.103 132.844  0.00  0.00    +0.000 OA
BRANCH  21  22
ATOM     22  C   UNL     1      -2.187   5.387 132.491  0.00  0.00    +0.000 C 
ATOM     23  C   UNL     1      -1.189   6.249 131.770  0.00  0.00    +0.000 C 
ATOM     24  O   UNL     1      -2.012   4.217 132.708  0.00  0.00    +0.000 OA
ENDBRANCH  21  22
ENDBRANCH   6  21
TORSDOF 9
ENDMDL
MODEL 3
REMARK VINA RESULT:      -5.6      1.950      2.711
REMARK  Name = Metipranolol
REMARK  15 active torsions:
REMARK  status: ('A' for Active; 'I' for Inactive)
REMARK    1  A    between atoms: C_1  and  C_2
REMARK    2  A    between atoms: C_2  and  C_3
REMARK    3  A    between atoms: C_2  and  N_4
REMARK    4  A    between atoms: N_4  and  C_5
REMARK    5  A    between atoms: C_5  and  C_6
REMARK    6  A    between atoms: C_6  and  O_7
REMARK    7  A    between atoms: C_6  and  C_8
REMARK    8  A    between atoms: C_8  and  O_9
REMARK    9  A    between atoms: O_9  and  C_10
REMARK   10  A    between atoms: C_11  and  C_12
REMARK   11  A    between atoms: C_13  and  C_14
REMARK   12  A    between atoms: C_15  and  O_16
REMARK   13  A    between atoms: O_16  and  C_17
REMARK   14  A    between atoms: C_17  and  C_18
REMARK   15  A    between atoms: C_20  and  C_21
REMARK                            x       y       z     vdW  Elec       q    Type
REMARK                         _______ _______ _______ _____ _____    ______ ____
ROOT
ATOM      1  C   UNL     1      -9.331   0.335 125.101  0.00  0.00    +0.000 A 
ATOM      2  C   UNL     1      -9.327   1.000 123.860  0.00  0.00    +0.000 A 
ATOM      3  C   UNL     1     -10.073   0.361 122.715  0.00  0.00    +0.000 C 
ATOM      4  C   UNL     1      -8.651   2.254 123.720  0.00  0.00    +0.000 A 
ATOM      5  C   UNL     1      -8.632   2.955 122.379  0.00  0.00    +0.000 C 
ATOM      6  C   UNL     1      -8.044   2.817 124.875  0.00  0.00    +0.000 A 
ATOM      7  C   UNL     1      -8.174   2.164 126.119  0.00  0.00    +0.000 A 
ATOM      8  C   UNL     1      -7.841   2.720 127.449  0.00  0.00    +0.000 C 
ATOM      9  C   UNL     1      -8.707   0.893 126.192  0.00  0.00    +0.000 A 
ENDROOT
BRANCH   1  10
ATOM     10  O   UNL     1      -9.936  -0.882 125.219  0.00  0.00    +0.000 OA
BRANCH  10  11
ATOM     11  C   UNL     1      -9.030  -1.959 125.481  0.00  0.00    +0.000 C 
BRANCH  11  12
ATOM     12  C   UNL     1      -8.801  -2.696 124.168  0.00  0.00    +0.000 C 
BRANCH  12  13
ATOM     13  O   UNL     1      -9.955  -3.464 123.805  0.00  0.00    +0.000 OA
ATOM     14  H   UNL     1     -10.632  -2.842 123.495  0.00  0.00    +0.000 HD
ENDBRANCH  12  13
BRANCH  12  15
ATOM     15  C   UNL     1      -7.596  -3.623 124.326  0.00  0.00    +0.000 C 
BRANCH  15  16
ATOM     16  N   UNL     1      -6.467  -2.896 124.904  0.00  0.00    +0.000 NA
ATOM     17  H   UNL     1      -6.791  -1.970 125.197  0.00  0.00    +0.000 HD
BRANCH  16  19
ATOM     18  C   UNL     1      -4.724  -4.184 123.803  0.00  0.00    +0.000 C 
ATOM     19  C   UNL     1      -5.337  -2.797 123.982  0.00  0.00    +0.000 C 
ATOM     20  C   UNL     1      -5.789  -2.264 122.621  0.00  0.00    +0.000 C 
ENDBRANCH  16  19
ENDBRANCH  15  16
ENDBRANCH  12  15
ENDBRANCH  11  12
ENDBRANCH  10  11
ENDBRANCH   1  10
BRANCH   6  21
ATOM     21  O   UNL     1      -7.328   4.115 124.749  0.00  0.00    +0.000 OA
BRANCH  21  22
ATOM     22  C   UNL     1      -5.995   4.698 124.597  0.00  0.00    +0.000 C 
ATOM     23  C   UNL     1      -5.309   4.948 125.911  0.00  0.00    +0.000 C 
ATOM     24  O   UNL     1      -5.514   4.995 123.536  0.00  0.00    +0.000 OA
ENDBRANCH  21  22
ENDBRANCH   6  21
TORSDOF 9
ENDMDL
MODEL 4
REMARK VINA RESULT:      -5.6      4.183      6.387
REMARK  Name = Metipranolol
REMARK  15 active torsions:
REMARK  status: ('A' for Active; 'I' for Inactive)
REMARK    1  A    between atoms: C_1  and  C_2
REMARK    2  A    between atoms: C_2  and  C_3
REMARK    3  A    between atoms: C_2  and  N_4
REMARK    4  A    between atoms: N_4  and  C_5
REMARK    5  A    between atoms: C_5  and  C_6
REMARK    6  A    between atoms: C_6  and  O_7
REMARK    7  A    between atoms: C_6  and  C_8
REMARK    8  A    between atoms: C_8  and  O_9
REMARK    9  A    between atoms: O_9  and  C_10
REMARK   10  A    between atoms: C_11  and  C_12
REMARK   11  A    between atoms: C_13  and  C_14
REMARK   12  A    between atoms: C_15  and  O_16
REMARK   13  A    between atoms: O_16  and  C_17
REMARK   14  A    between atoms: C_17  and  C_18
REMARK   15  A    between atoms: C_20  and  C_21
REMARK                            x       y       z     vdW  Elec       q    Type
REMARK                         _______ _______ _______ _____ _____    ______ ____
ROOT
ATOM      1  C   UNL     1      -8.251  -1.818 127.008  0.00  0.00    +0.000 A 
ATOM      2  C   UNL     1      -8.128  -2.759 128.049  0.00  0.00    +0.000 A 
ATOM      3  C   UNL     1      -8.897  -4.051 127.928  0.00  0.00    +0.000 C 
ATOM      4  C   UNL     1      -7.274  -2.486 129.164  0.00  0.00    +0.000 A 
ATOM      5  C   UNL     1      -7.160  -3.489 130.291  0.00  0.00    +0.000 C 
ATOM      6  C   UNL     1      -6.526  -1.277 129.152  0.00  0.00    +0.000 A 
ATOM      7  C   UNL     1      -6.601  -0.422 128.033  0.00  0.00    +0.000 A 
ATOM      8  C   UNL     1      -5.715   0.724 127.733  0.00  0.00    +0.000 C 
ATOM      9  C   UNL     1      -7.537  -0.644 127.042  0.00  0.00    +0.000 A 
ENDROOT
BRANCH   1  10
ATOM     10  O   UNL     1      -9.102  -2.061 125.970  0.00  0.00    +0.000 OA
BRANCH  10  11
ATOM     11  C   UNL     1      -8.974  -1.135 124.884  0.00  0.00    +0.000 C 
BRANCH  11  12
ATOM     12  C   UNL     1      -9.013  -1.938 123.590  0.00  0.00    +0.000 C 
BRANCH  12  13
ATOM     13  O   UNL     1      -9.844  -3.096 123.732  0.00  0.00    +0.000 OA
ATOM     14  H   UNL     1     -10.326  -3.212 122.898  0.00  0.00    +0.000 HD
ENDBRANCH  12  13
BRANCH  12  15
ATOM     15  C   UNL     1      -7.591  -2.368 123.234  0.00  0.00    +0.000 C 
BRANCH  15  16
ATOM     16  N   UNL     1      -7.147  -3.447 124.116  0.00  0.00    +0.000 NA
ATOM     17  H   UNL     1      -7.803  -3.516 124.900  0.00  0.00    +0.000 HD
BRANCH  16  19
ATOM     18  C   UNL     1      -4.840  -4.108 123.732  0.00  0.00    +0.000 C 
ATOM     19  C   UNL     1      -5.777  -3.255 124.585  0.00  0.00    +0.000 C 
ATOM     20  C   UNL     1      -5.363  -1.786 124.475  0.00  0.00    +0.000 C 
ENDBRANCH  16  19
ENDBRANCH  15  16
ENDBRANCH  12  15
ENDBRANCH  11  12
ENDBRANCH  10  11
ENDBRANCH   1  10
BRANCH   6  21
ATOM     21  O   UNL     1      -5.641  -0.970 130.308  0.00  0.00    +0.000 OA
BRANCH  21  22
ATOM     22  C   UNL     1      -4.240  -0.964 130.731  0.00  0.00    +0.000 C 
ATOM     23  C   UNL     1      -3.446  -2.099 130.148  0.00  0.00    +0.000 C 
ATOM     24  O   UNL     1      -3.780  -0.168 131.505  0.00  0.00    +0.000 OA
ENDBRANCH  21  22
ENDBRANCH   6  21
TORSDOF 9
ENDMDL
MODEL 5
REMARK VINA RESULT:      -5.6      2.619      7.233
REMARK  Name = Metipranolol
REMARK  15 active torsions:
REMARK  status: ('A' for Active; 'I' for Inactive)
REMARK    1  A    between atoms: C_1  and  C_2
REMARK    2  A    between atoms: C_2  and  C_3
REMARK    3  A    between atoms: C_2  and  N_4
REMARK    4  A    between atoms: N_4  and  C_5
REMARK    5  A    between atoms: C_5  and  C_6
REMARK    6  A    between atoms: C_6  and  O_7
REMARK    7  A    between atoms: C_6  and  C_8
REMARK    8  A    between atoms: C_8  and  O_9
REMARK    9  A    between atoms: O_9  and  C_10
REMARK   10  A    between atoms: C_11  and  C_12
REMARK   11  A    between atoms: C_13  and  C_14
REMARK   12  A    between atoms: C_15  and  O_16
REMARK   13  A    between atoms: O_16  and  C_17
REMARK   14  A    between atoms: C_17  and  C_18
REMARK   15  A    between atoms: C_20  and  C_21
REMARK                            x       y       z     vdW  Elec       q    Type
REMARK                         _______ _______ _______ _____ _____    ______ ____
ROOT
ATOM      1  C   UNL     1      -8.214  -0.601 126.075  0.00  0.00    +0.000 A 
ATOM      2  C   UNL     1      -8.591  -1.945 126.254  0.00  0.00    +0.000 A 
ATOM      3  C   UNL     1      -9.073  -2.711 125.047  0.00  0.00    +0.000 C 
ATOM      4  C   UNL     1      -8.489  -2.553 127.546  0.00  0.00    +0.000 A 
ATOM      5  C   UNL     1      -8.916  -3.992 127.740  0.00  0.00    +0.000 C 
ATOM      6  C   UNL     1      -7.948  -1.777 128.607  0.00  0.00    +0.000 A 
ATOM      7  C   UNL     1      -7.481  -0.471 128.348  0.00  0.00    +0.000 A 
ATOM      8  C   UNL     1      -6.665   0.372 129.249  0.00  0.00    +0.000 C 
ATOM      9  C   UNL     1      -7.723   0.131 127.130  0.00  0.00    +0.000 A 
ENDROOT
BRANCH   1  10
ATOM     10  O   UNL     1      -8.357  -0.012 124.853  0.00  0.00    +0.000 OA
BRANCH  10  11
ATOM     11  C   UNL     1      -9.318   1.050 124.828  0.00  0.00    +0.000 C 
BRANCH  11  12
ATOM     12  C   UNL     1      -8.589   2.317 124.403  0.00  0.00    +0.000 C 
BRANCH  12  13
ATOM     13  O   UNL     1      -9.132   3.466 125.064  0.00  0.00    +0.000 OA
ATOM     14  H   UNL     1      -9.903   3.169 125.574  0.00  0.00    +0.000 HD
ENDBRANCH  12  13
BRANCH  12  15
ATOM     15  C   UNL     1      -8.728   2.482 122.890  0.00  0.00    +0.000 C 
BRANCH  15  16
ATOM     16  N   UNL     1      -7.860   3.558 122.412  0.00  0.00    +0.000 NA
ATOM     17  H   UNL     1      -8.114   3.774 121.443  0.00  0.00    +0.000 HD
BRANCH  16  19
ATOM     18  C   UNL     1      -5.822   3.213 121.133  0.00  0.00    +0.000 C 
ATOM     19  C   UNL     1      -6.442   3.223 122.528  0.00  0.00    +0.000 C 
ATOM     20  C   UNL     1      -5.709   4.244 123.400  0.00  0.00    +0.000 C 
ENDBRANCH  16  19
ENDBRANCH  15  16
ENDBRANCH  12  15
ENDBRANCH  11  12
ENDBRANCH  10  11
ENDBRANCH   1  10
BRANCH   6  21
ATOM     21  O   UNL     1      -7.843  -2.386 129.961  0.00  0.00    +0.000 OA
BRANCH  21  22
ATOM     22  C   UNL     1      -6.946  -3.154 130.824  0.00  0.00    +0.000 C 
ATOM     23  C   UNL     1      -5.842  -3.837 130.066  0.00  0.00    +0.000 C 
ATOM     24  O   UNL     1      -7.100  -3.271 132.010  0.00  0.00    +0.000 OA
ENDBRANCH  21  22
ENDBRANCH   6  21
TORSDOF 9
ENDMDL
MODEL 6
REMARK VINA RESULT:      -5.5      3.386      7.248
REMARK  Name = Metipranolol
REMARK  15 active torsions:
REMARK  status: ('A' for Active; 'I' for Inactive)
REMARK    1  A    between atoms: C_1  and  C_2
REMARK    2  A    between atoms: C_2  and  C_3
REMARK    3  A    between atoms: C_2  and  N_4
REMARK    4  A    between atoms: N_4  and  C_5
REMARK    5  A    between atoms: C_5  and  C_6
REMARK    6  A    between atoms: C_6  and  O_7
REMARK    7  A    between atoms: C_6  and  C_8
REMARK    8  A    between atoms: C_8  and  O_9
REMARK    9  A    between atoms: O_9  and  C_10
REMARK   10  A    between atoms: C_11  and  C_12
REMARK   11  A    between atoms: C_13  and  C_14
REMARK   12  A    between atoms: C_15  and  O_16
REMARK   13  A    between atoms: O_16  and  C_17
REMARK   14  A    between atoms: C_17  and  C_18
REMARK   15  A    between atoms: C_20  and  C_21
REMARK                            x       y       z     vdW  Elec       q    Type
REMARK                         _______ _______ _______ _____ _____    ______ ____
ROOT
ATOM      1  C   UNL     1      -8.000  -0.608 126.940  0.00  0.00    +0.000 A 
ATOM      2  C   UNL     1      -7.439  -0.094 128.124  0.00  0.00    +0.000 A 
ATOM      3  C   UNL     1      -7.128   1.381 128.176  0.00  0.00    +0.000 C 
ATOM      4  C   UNL     1      -7.204  -0.958 129.240  0.00  0.00    +0.000 A 
ATOM      5  C   UNL     1      -6.581  -0.407 130.504  0.00  0.00    +0.000 C 
ATOM      6  C   UNL     1      -7.604  -2.318 129.127  0.00  0.00    +0.000 A 
ATOM      7  C   UNL     1      -8.264  -2.755 127.960  0.00  0.00    +0.000 A 
ATOM      8  C   UNL     1      -8.972  -4.041 127.772  0.00  0.00    +0.000 C 
ATOM      9  C   UNL     1      -8.348  -1.935 126.852  0.00  0.00    +0.000 A 
ENDROOT
BRANCH   1  10
ATOM     10  O   UNL     1      -8.180   0.209 125.862  0.00  0.00    +0.000 OA
BRANCH  10  11
ATOM     11  C   UNL     1      -9.495   0.769 125.770  0.00  0.00    +0.000 C 
BRANCH  11  12
ATOM     12  C   UNL     1      -9.698   1.226 124.331  0.00  0.00    +0.000 C 
BRANCH  12  13
ATOM     13  O   UNL     1     -11.089   1.238 123.990  0.00  0.00    +0.000 OA
ATOM     14  H   UNL     1     -11.181   0.800 123.129  0.00  0.00    +0.000 HD
ENDBRANCH  12  13
BRANCH  12  15
ATOM     15  C   UNL     1      -8.951   0.271 123.401  0.00  0.00    +0.000 C 
BRANCH  15  16
ATOM     16  N   UNL     1      -9.757  -0.920 123.138  0.00  0.00    +0.000 NA
ATOM     17  H   UNL     1     -10.357  -1.093 123.950  0.00  0.00    +0.000 HD
BRANCH  16  19
ATOM     18  C   UNL     1      -7.482  -1.776 123.160  0.00  0.00    +0.000 C 
ATOM     19  C   UNL     1      -8.938  -2.089 122.822  0.00  0.00    +0.000 C 
ATOM     20  C   UNL     1      -9.393  -3.308 123.627  0.00  0.00    +0.000 C 
ENDBRANCH  16  19
ENDBRANCH  15  16
ENDBRANCH  12  15
ENDBRANCH  11  12
ENDBRANCH  10  11
ENDBRANCH   1  10
BRANCH   6  21
ATOM     21  O   UNL     1      -7.359  -3.235 130.272  0.00  0.00    +0.000 OA
BRANCH  21  22
ATOM     22  C   UNL     1      -6.315  -4.020 130.932  0.00  0.00    +0.000 C 
ATOM     23  C   UNL     1      -6.248  -3.782 132.414  0.00  0.00    +0.000 C 
ATOM     24  O   UNL     1      -5.554  -4.743 130.346  0.00  0.00    +0.000 OA
ENDBRANCH  21  22
ENDBRANCH   6  21
TORSDOF 9
ENDMDL
MODEL 7
REMARK VINA RESULT:      -5.5      1.122      2.551
REMARK  Name = Metipranolol
REMARK  15 active torsions:
REMARK  status: ('A' for Active; 'I' for Inactive)
REMARK    1  A    between atoms: C_1  and  C_2
REMARK    2  A    between atoms: C_2  and  C_3
REMARK    3  A    between atoms: C_2  and  N_4
REMARK    4  A    between atoms: N_4  and  C_5
REMARK    5  A    between atoms: C_5  and  C_6
REMARK    6  A    between atoms: C_6  and  O_7
REMARK    7  A    between atoms: C_6  and  C_8
REMARK    8  A    between atoms: C_8  and  O_9
REMARK    9  A    between atoms: O_9  and  C_10
REMARK   10  A    between atoms: C_11  and  C_12
REMARK   11  A    between atoms: C_13  and  C_14
REMARK   12  A    between atoms: C_15  and  O_16
REMARK   13  A    between atoms: O_16  and  C_17
REMARK   14  A    between atoms: C_17  and  C_18
REMARK   15  A    between atoms: C_20  and  C_21
REMARK                            x       y       z     vdW  Elec       q    Type
REMARK                         _______ _______ _______ _____ _____    ______ ____
ROOT
ATOM      1  C   UNL     1      -7.487   1.133 125.659  0.00  0.00    +0.000 A 
ATOM      2  C   UNL     1      -6.234   1.697 125.966  0.00  0.00    +0.000 A 
ATOM      3  C   UNL     1      -5.475   1.136 127.142  0.00  0.00    +0.000 C 
ATOM      4  C   UNL     1      -5.705   2.752 125.155  0.00  0.00    +0.000 A 
ATOM      5  C   UNL     1      -4.368   3.370 125.499  0.00  0.00    +0.000 C 
ATOM      6  C   UNL     1      -6.456   3.160 124.019  0.00  0.00    +0.000 A 
ATOM      7  C   UNL     1      -7.651   2.485 123.694  0.00  0.00    +0.000 A 
ATOM      8  C   UNL     1      -8.413   2.595 122.431  0.00  0.00    +0.000 C 
ATOM      9  C   UNL     1      -8.202   1.572 124.570  0.00  0.00    +0.000 A 
ENDROOT
BRANCH   1  10
ATOM     10  O   UNL     1      -8.008   0.160 126.461  0.00  0.00    +0.000 OA
BRANCH  10  11
ATOM     11  C   UNL     1      -9.113  -0.542 125.880  0.00  0.00    +0.000 C 
BRANCH  11  12
ATOM     12  C   UNL     1      -8.850  -2.033 126.051  0.00  0.00    +0.000 C 
BRANCH  12  13
ATOM     13  O   UNL     1      -8.229  -2.300 127.314  0.00  0.00    +0.000 OA
ATOM     14  H   UNL     1      -8.855  -2.037 128.007  0.00  0.00    +0.000 HD
ENDBRANCH  12  13
BRANCH  12  15
ATOM     15  C   UNL     1      -7.937  -2.505 124.920  0.00  0.00    +0.000 C 
BRANCH  15  16
ATOM     16  N   UNL     1      -6.533  -2.335 125.293  0.00  0.00    +0.000 NA
ATOM     17  H   UNL     1      -6.479  -1.656 126.058  0.00  0.00    +0.000 HD
BRANCH  16  19
ATOM     18  C   UNL     1      -4.907  -3.140 123.675  0.00  0.00    +0.000 C 
ATOM     19  C   UNL     1      -5.701  -1.929 124.163  0.00  0.00    +0.000 C 
ATOM     20  C   UNL     1      -6.561  -1.394 123.016  0.00  0.00    +0.000 C 
ENDBRANCH  16  19
ENDBRANCH  15  16
ENDBRANCH  12  15
ENDBRANCH  11  12
ENDBRANCH  10  11
ENDBRANCH   1  10
BRANCH   6  21
ATOM     21  O   UNL     1      -5.929   4.263 123.170  0.00  0.00    +0.000 OA
BRANCH  21  22
ATOM     22  C   UNL     1      -5.134   4.530 121.971  0.00  0.00    +0.000 C 
ATOM     23  C   UNL     1      -5.283   3.467 120.918  0.00  0.00    +0.000 C 
ATOM     24  O   UNL     1      -4.398   5.473 121.855  0.00  0.00    +0.000 OA
ENDBRANCH  21  22
ENDBRANCH   6  21
TORSDOF 9
ENDMDL
MODEL 8
REMARK VINA RESULT:      -5.5      4.262      6.072
REMARK  Name = Metipranolol
REMARK  15 active torsions:
REMARK  status: ('A' for Active; 'I' for Inactive)
REMARK    1  A    between atoms: C_1  and  C_2
REMARK    2  A    between atoms: C_2  and  C_3
REMARK    3  A    between atoms: C_2  and  N_4
REMARK    4  A    between atoms: N_4  and  C_5
REMARK    5  A    between atoms: C_5  and  C_6
REMARK    6  A    between atoms: C_6  and  O_7
REMARK    7  A    between atoms: C_6  and  C_8
REMARK    8  A    between atoms: C_8  and  O_9
REMARK    9  A    between atoms: O_9  and  C_10
REMARK   10  A    between atoms: C_11  and  C_12
REMARK   11  A    between atoms: C_13  and  C_14
REMARK   12  A    between atoms: C_15  and  O_16
REMARK   13  A    between atoms: O_16  and  C_17
REMARK   14  A    between atoms: C_17  and  C_18
REMARK   15  A    between atoms: C_20  and  C_21
REMARK                            x       y       z     vdW  Elec       q    Type
REMARK                         _______ _______ _______ _____ _____    ______ ____
ROOT
ATOM      1  C   UNL     1      -7.471  -2.194 128.362  0.00  0.00    +0.000 A 
ATOM      2  C   UNL     1      -8.057  -3.000 127.367  0.00  0.00    +0.000 A 
ATOM      3  C   UNL     1      -9.126  -3.977 127.788  0.00  0.00    +0.000 C 
ATOM      4  C   UNL     1      -7.652  -2.862 126.001  0.00  0.00    +0.000 A 
ATOM      5  C   UNL     1      -8.268  -3.744 124.938  0.00  0.00    +0.000 C 
ATOM      6  C   UNL     1      -6.695  -1.858 125.688  0.00  0.00    +0.000 A 
ATOM      7  C   UNL     1      -6.223  -1.003 126.706  0.00  0.00    +0.000 A 
ATOM      8  C   UNL     1      -5.442   0.241 126.526  0.00  0.00    +0.000 C 
ATOM      9  C   UNL     1      -6.525  -1.253 128.029  0.00  0.00    +0.000 A 
ENDROOT
BRANCH   1  10
ATOM     10  O   UNL     1      -7.826  -2.362 129.668  0.00  0.00    +0.000 OA
BRANCH  10  11
ATOM     11  C   UNL     1      -7.547  -1.228 130.497  0.00  0.00    +0.000 C 
BRANCH  11  12
ATOM     12  C   UNL     1      -7.406  -1.729 131.928  0.00  0.00    +0.000 C 
BRANCH  12  13
ATOM     13  O   UNL     1      -6.888  -0.702 132.782  0.00  0.00    +0.000 OA
ATOM     14  H   UNL     1      -5.996  -0.971 133.052  0.00  0.00    +0.000 HD
ENDBRANCH  12  13
BRANCH  12  15
ATOM     15  C   UNL     1      -6.460  -2.930 131.939  0.00  0.00    +0.000 C 
BRANCH  15  16
ATOM     16  N   UNL     1      -5.221  -2.609 131.232  0.00  0.00    +0.000 NA
ATOM     17  H   UNL     1      -5.430  -1.916 130.506  0.00  0.00    +0.000 HD
BRANCH  16  19
ATOM     18  C   UNL     1      -5.604  -4.925 130.601  0.00  0.00    +0.000 C 
ATOM     19  C   UNL     1      -4.579  -3.794 130.666  0.00  0.00    +0.000 C 
ATOM     20  C   UNL     1      -4.049  -3.510 129.260  0.00  0.00    +0.000 C 
ENDBRANCH  16  19
ENDBRANCH  15  16
ENDBRANCH  12  15
ENDBRANCH  11  12
ENDBRANCH  10  11
ENDBRANCH   1  10
BRANCH   6  21
ATOM     21  O   UNL     1      -6.253  -1.704 124.276  0.00  0.00    +0.000 OA
BRANCH  21  22
ATOM     22  C   UNL     1      -5.676  -2.440 123.151  0.00  0.00    +0.000 C 
ATOM     23  C   UNL     1      -4.679  -3.481 123.578  0.00  0.00    +0.000 C 
ATOM     24  O   UNL     1      -5.931  -2.206 122.000  0.00  0.00    +0.000 OA
ENDBRANCH  21  22
ENDBRANCH   6  21
TORSDOF 9
ENDMDL
MODEL 9
REMARK VINA RESULT:      -5.5      8.182      9.960
REMARK  Name = Metipranolol
REMARK  15 active torsions:
REMARK  status: ('A' for Active; 'I' for Inactive)
REMARK    1  A    between atoms: C_1  and  C_2
REMARK    2  A    between atoms: C_2  and  C_3
REMARK    3  A    between atoms: C_2  and  N_4
REMARK    4  A    between atoms: N_4  and  C_5
REMARK    5  A    between atoms: C_5  and  C_6
REMARK    6  A    between atoms: C_6  and  O_7
REMARK    7  A    between atoms: C_6  and  C_8
REMARK    8  A    between atoms: C_8  and  O_9
REMARK    9  A    between atoms: O_9  and  C_10
REMARK   10  A    between atoms: C_11  and  C_12
REMARK   11  A    between atoms: C_13  and  C_14
REMARK   12  A    between atoms: C_15  and  O_16
REMARK   13  A    between atoms: O_16  and  C_17
REMARK   14  A    between atoms: C_17  and  C_18
REMARK   15  A    between atoms: C_20  and  C_21
REMARK                            x       y       z     vdW  Elec       q    Type
REMARK                         _______ _______ _______ _____ _____    ______ ____
ROOT
ATOM      1  C   UNL     1      -8.022   6.009 132.551  0.00  0.00    +0.000 A 
ATOM      2  C   UNL     1      -7.542   5.168 133.572  0.00  0.00    +0.000 A 
ATOM      3  C   UNL     1      -8.553   4.442 134.424  0.00  0.00    +0.000 C 
ATOM      4  C   UNL     1      -6.132   5.003 133.761  0.00  0.00    +0.000 A 
ATOM      5  C   UNL     1      -5.619   4.114 134.873  0.00  0.00    +0.000 C 
ATOM      6  C   UNL     1      -5.256   5.664 132.858  0.00  0.00    +0.000 A 
ATOM      7  C   UNL     1      -5.792   6.405 131.784  0.00  0.00    +0.000 A 
ATOM      8  C   UNL     1      -5.051   6.933 130.617  0.00  0.00    +0.000 C 
ATOM      9  C   UNL     1      -7.147   6.659 131.714  0.00  0.00    +0.000 A 
ENDROOT
BRANCH   1  10
ATOM     10  O   UNL     1      -9.365   6.201 132.404  0.00  0.00    +0.000 OA
BRANCH  10  11
ATOM     11  C   UNL     1      -9.754   6.602 131.085  0.00  0.00    +0.000 C 
BRANCH  11  12
ATOM     12  C   UNL     1     -11.143   6.033 130.825  0.00  0.00    +0.000 C 
BRANCH  12  13
ATOM     13  O   UNL     1     -11.942   6.071 132.013  0.00  0.00    +0.000 OA
ATOM     14  H   UNL     1     -11.950   5.175 132.386  0.00  0.00    +0.000 HD
ENDBRANCH  12  13
BRANCH  12  15
ATOM     15  C   UNL     1     -11.003   4.588 130.347  0.00  0.00    +0.000 C 
BRANCH  15  16
ATOM     16  N   UNL     1     -10.610   3.720 131.456  0.00  0.00    +0.000 NA
ATOM     17  H   UNL     1     -10.112   4.285 132.151  0.00  0.00    +0.000 HD
BRANCH  16  19
ATOM     18  C   UNL     1      -8.454   3.102 130.519  0.00  0.00    +0.000 C 
ATOM     19  C   UNL     1      -9.803   2.585 131.016  0.00  0.00    +0.000 C 
ATOM     20  C   UNL     1      -9.574   1.599 132.164  0.00  0.00    +0.000 C 
ENDBRANCH  16  19
ENDBRANCH  15  16
ENDBRANCH  12  15
ENDBRANCH  11  12
ENDBRANCH  10  11
ENDBRANCH   1  10
BRANCH   6  21
ATOM     21  O   UNL     1      -3.788   5.514 133.044  0.00  0.00    +0.000 OA
BRANCH  21  22
ATOM     22  C   UNL     1      -2.621   4.782 132.550  0.00  0.00    +0.000 C 
ATOM     23  C   UNL     1      -2.632   3.329 132.937  0.00  0.00    +0.000 C 
ATOM     24  O   UNL     1      -1.721   5.295 131.941  0.00  0.00    +0.000 OA
ENDBRANCH  21  22
ENDBRANCH   6  21
TORSDOF 9
ENDMDL
