MODEL 1
REMARK VINA RESULT:      -7.6      0.000      0.000
REMARK  Name = Meticillin
REMARK  10 active torsions:
REMARK  status: ('A' for Active; 'I' for Inactive)
REMARK    1  A    between atoms: C_4  and  C_5
REMARK    2  A    between atoms: C_4  and  C_6
REMARK    3  A    between atoms: CA_7  and  C_25
REMARK    4  A    between atoms: CA_11  and  N_12
REMARK    5  A    between atoms: C_13  and  C_15
REMARK    6  A    between atoms: C_16  and  O_17
REMARK    7  A    between atoms: O_17  and  C_18
REMARK    8  A    between atoms: C_22  and  O_23
REMARK    9  A    between atoms: O_23  and  C_24
REMARK   10  A    between atoms: C_25  and  O_26
REMARK                            x       y       z     vdW  Elec       q    Type
REMARK                         _______ _______ _______ _____ _____    ______ ____
ROOT
ATOM      1  C   UNL     1      -8.697  -0.975 123.914  0.00  0.00    +0.000 C 
ATOM      2  S   UNL     1      -7.217  -1.701 123.127  0.00  0.00    +0.000 S 
ATOM      3  C   UNL     1      -6.898  -2.768 124.618  0.00  0.00    +0.000 C 
ATOM      4  C   UNL     1      -5.405  -3.102 124.589  0.00  0.00    +0.000 C 
ATOM      5  C   UNL     1      -7.789  -4.011 124.436  0.00  0.00    +0.000 C 
ATOM      6  CA  UNL     1      -7.270  -1.848 125.801  0.00  0.00    +0.000 C 
ATOM      7  N   UNL     1      -8.424  -1.049 125.359  0.00  0.00    +0.000 N 
ATOM      8  C   UNL     1      -8.416   0.320 125.520  0.00  0.00    +0.000 C 
ATOM      9  O   UNL     1      -7.960   1.034 126.374  0.00  0.00    +0.000 OA
ATOM     10  CA  UNL     1      -8.799   0.551 124.054  0.00  0.00    +0.000 C 
ENDROOT
BRANCH  10  11
ATOM     11  N   UNL     1      -7.810   1.424 123.357  0.00  0.00    +0.000 N 
ATOM     12  C   UNL     1      -8.101   2.760 123.183  0.00  0.00    +0.000 C 
ATOM     13  O   UNL     1      -9.047   3.317 123.727  0.00  0.00    +0.000 OA
ATOM     14  H   UNL     1      -7.053   1.009 122.819  0.00  0.00    +0.000 HD
BRANCH  12  15
ATOM     15  C   UNL     1      -7.269   3.492 122.221  0.00  0.00    +0.000 A 
ATOM     16  C   UNL     1      -7.748   3.702 120.908  0.00  0.00    +0.000 A 
ATOM     17  C   UNL     1      -6.857   4.193 119.937  0.00  0.00    +0.000 A 
ATOM     18  C   UNL     1      -5.568   4.593 120.284  0.00  0.00    +0.000 A 
ATOM     19  C   UNL     1      -5.123   4.426 121.594  0.00  0.00    +0.000 A 
ATOM     20  C   UNL     1      -5.942   3.842 122.571  0.00  0.00    +0.000 A 
BRANCH  16  21
ATOM     21  O   UNL     1      -9.019   3.512 120.415  0.00  0.00    +0.000 OA
ATOM     22  C   UNL     1      -9.426   4.240 119.258  0.00  0.00    +0.000 C 
ENDBRANCH  16  21
BRANCH  20  23
ATOM     23  O   UNL     1      -5.260   3.672 123.756  0.00  0.00    +0.000 OA
ATOM     24  C   UNL     1      -5.470   4.576 124.823  0.00  0.00    +0.000 C 
ENDBRANCH  20  23
ENDBRANCH  12  15
ENDBRANCH  10  11
BRANCH   6  25
ATOM     25  C   UNL     1      -7.574  -2.455 127.184  0.00  0.00    +0.000 C 
ATOM     26  OXT UNL     1      -8.674  -2.909 127.477  0.00  0.00    +0.000 OA
BRANCH  25  27
ATOM     27  O   UNL     1      -6.603  -2.478 128.116  0.00  0.00    +0.000 OA
ATOM     28  H   UNL     1      -6.532  -3.220 128.735  0.00  0.00    +0.000 HD
ENDBRANCH  25  27
ENDBRANCH   6  25
TORSDOF 6
ENDMDL
MODEL 2
REMARK VINA RESULT:      -7.1      4.007      6.986
REMARK  Name = Meticillin
REMARK  10 active torsions:
REMARK  status: ('A' for Active; 'I' for Inactive)
REMARK    1  A    between atoms: C_4  and  C_5
REMARK    2  A    between atoms: C_4  and  C_6
REMARK    3  A    between atoms: CA_7  and  C_25
REMARK    4  A    between atoms: CA_11  and  N_12
REMARK    5  A    between atoms: C_13  and  C_15
REMARK    6  A    between atoms: C_16  and  O_17
REMARK    7  A    between atoms: O_17  and  C_18
REMARK    8  A    between atoms: C_22  and  O_23
REMARK    9  A    between atoms: O_23  and  C_24
REMARK   10  A    between atoms: C_25  and  O_26
REMARK                            x       y       z     vdW  Elec       q    Type
REMARK                         _______ _______ _______ _____ _____    ______ ____
ROOT
ATOM      1  C   UNL     1      -7.357  -0.039 125.760  0.00  0.00    +0.000 C 
ATOM      2  S   UNL     1      -7.326  -1.400 126.977  0.00  0.00    +0.000 S 
ATOM      3  C   UNL     1      -7.837  -2.629 125.676  0.00  0.00    +0.000 C 
ATOM      4  C   UNL     1      -8.491  -3.791 126.425  0.00  0.00    +0.000 C 
ATOM      5  C   UNL     1      -6.537  -3.038 124.960  0.00  0.00    +0.000 C 
ATOM      6  CA  UNL     1      -8.850  -1.839 124.820  0.00  0.00    +0.000 C 
ATOM      7  N   UNL     1      -8.357  -0.454 124.762  0.00  0.00    +0.000 N 
ATOM      8  C   UNL     1      -9.208   0.592 125.044  0.00  0.00    +0.000 C 
ATOM      9  O   UNL     1     -10.381   0.762 124.840  0.00  0.00    +0.000 OA
ATOM     10  CA  UNL     1      -8.218   1.202 126.044  0.00  0.00    +0.000 C 
ENDROOT
BRANCH  10  11
ATOM     11  N   UNL     1      -8.835   1.379 127.391  0.00  0.00    +0.000 N 
ATOM     12  C   UNL     1      -8.289   2.298 128.262  0.00  0.00    +0.000 C 
ATOM     13  O   UNL     1      -7.435   3.111 127.930  0.00  0.00    +0.000 OA
ATOM     14  H   UNL     1      -9.486   0.685 127.749  0.00  0.00    +0.000 HD
BRANCH  12  15
ATOM     15  C   UNL     1      -8.712   2.203 129.664  0.00  0.00    +0.000 A 
ATOM     16  C   UNL     1      -8.394   1.043 130.407  0.00  0.00    +0.000 A 
ATOM     17  C   UNL     1      -8.998   0.862 131.663  0.00  0.00    +0.000 A 
ATOM     18  C   UNL     1      -9.788   1.862 132.230  0.00  0.00    +0.000 A 
ATOM     19  C   UNL     1     -10.055   3.022 131.506  0.00  0.00    +0.000 A 
ATOM     20  C   UNL     1      -9.559   3.199 130.206  0.00  0.00    +0.000 A 
BRANCH  16  21
ATOM     21  O   UNL     1      -7.524   0.026 130.084  0.00  0.00    +0.000 OA
ATOM     22  C   UNL     1      -7.623  -1.213 130.784  0.00  0.00    +0.000 C 
ENDBRANCH  16  21
BRANCH  20  23
ATOM     23  O   UNL     1     -10.041   4.360 129.643  0.00  0.00    +0.000 OA
ATOM     24  C   UNL     1     -10.982   5.145 130.348  0.00  0.00    +0.000 C 
ENDBRANCH  20  23
ENDBRANCH  12  15
ENDBRANCH  10  11
BRANCH   6  25
ATOM     25  C   UNL     1      -9.190  -2.316 123.394  0.00  0.00    +0.000 C 
ATOM     26  OXT UNL     1      -8.651  -1.849 122.398  0.00  0.00    +0.000 OA
BRANCH  25  27
ATOM     27  O   UNL     1     -10.126  -3.270 123.230  0.00  0.00    +0.000 OA
ATOM     28  H   UNL     1     -10.464  -3.481 122.346  0.00  0.00    +0.000 HD
ENDBRANCH  25  27
ENDBRANCH   6  25
TORSDOF 6
ENDMDL
MODEL 3
REMARK VINA RESULT:      -7.0      4.117      6.882
REMARK  Name = Meticillin
REMARK  10 active torsions:
REMARK  status: ('A' for Active; 'I' for Inactive)
REMARK    1  A    between atoms: C_4  and  C_5
REMARK    2  A    between atoms: C_4  and  C_6
REMARK    3  A    between atoms: CA_7  and  C_25
REMARK    4  A    between atoms: CA_11  and  N_12
REMARK    5  A    between atoms: C_13  and  C_15
REMARK    6  A    between atoms: C_16  and  O_17
REMARK    7  A    between atoms: O_17  and  C_18
REMARK    8  A    between atoms: C_22  and  O_23
REMARK    9  A    between atoms: O_23  and  C_24
REMARK   10  A    between atoms: C_25  and  O_26
REMARK                            x       y       z     vdW  Elec       q    Type
REMARK                         _______ _______ _______ _____ _____    ______ ____
ROOT
ATOM      1  C   UNL     1      -7.378  -0.003 125.891  0.00  0.00    +0.000 C 
ATOM      2  S   UNL     1      -7.396  -1.372 127.099  0.00  0.00    +0.000 S 
ATOM      3  C   UNL     1      -7.891  -2.585 125.777  0.00  0.00    +0.000 C 
ATOM      4  C   UNL     1      -8.580  -3.744 126.501  0.00  0.00    +0.000 C 
ATOM      5  C   UNL     1      -6.579  -3.008 125.092  0.00  0.00    +0.000 C 
ATOM      6  CA  UNL     1      -8.871  -1.776 124.900  0.00  0.00    +0.000 C 
ATOM      7  N   UNL     1      -8.357  -0.397 124.865  0.00  0.00    +0.000 N 
ATOM      8  C   UNL     1      -9.201   0.659 125.133  0.00  0.00    +0.000 C 
ATOM      9  O   UNL     1     -10.366   0.846 124.900  0.00  0.00    +0.000 OA
ATOM     10  CA  UNL     1      -8.229   1.247 126.162  0.00  0.00    +0.000 C 
ENDROOT
BRANCH  10  11
ATOM     11  N   UNL     1      -8.877   1.424 127.494  0.00  0.00    +0.000 N 
ATOM     12  C   UNL     1      -8.386   2.381 128.356  0.00  0.00    +0.000 C 
ATOM     13  O   UNL     1      -7.561   3.223 128.024  0.00  0.00    +0.000 OA
ATOM     14  H   UNL     1      -9.506   0.710 127.855  0.00  0.00    +0.000 HD
BRANCH  12  15
ATOM     15  C   UNL     1      -8.831   2.295 129.753  0.00  0.00    +0.000 A 
ATOM     16  C   UNL     1      -9.544   3.376 130.321  0.00  0.00    +0.000 A 
ATOM     17  C   UNL     1      -9.758   3.384 131.710  0.00  0.00    +0.000 A 
ATOM     18  C   UNL     1      -9.398   2.291 132.498  0.00  0.00    +0.000 A 
ATOM     19  C   UNL     1      -8.739   1.210 131.916  0.00  0.00    +0.000 A 
ATOM     20  C   UNL     1      -8.410   1.207 130.553  0.00  0.00    +0.000 A 
BRANCH  16  21
ATOM     21  O   UNL     1     -10.107   4.462 129.690  0.00  0.00    +0.000 OA
ATOM     22  C   UNL     1     -11.152   5.176 130.348  0.00  0.00    +0.000 C 
ENDBRANCH  16  21
BRANCH  20  23
ATOM     23  O   UNL     1      -7.663   0.097 130.224  0.00  0.00    +0.000 OA
ATOM     24  C   UNL     1      -7.923  -1.139 130.861  0.00  0.00    +0.000 C 
ENDBRANCH  20  23
ENDBRANCH  12  15
ENDBRANCH  10  11
BRANCH   6  25
ATOM     25  C   UNL     1      -9.181  -2.238 123.463  0.00  0.00    +0.000 C 
ATOM     26  OXT UNL     1      -8.658  -1.727 122.480  0.00  0.00    +0.000 OA
BRANCH  25  27
ATOM     27  O   UNL     1     -10.071  -3.230 123.273  0.00  0.00    +0.000 OA
ATOM     28  H   UNL     1      -9.779  -4.103 122.970  0.00  0.00    +0.000 HD
ENDBRANCH  25  27
ENDBRANCH   6  25
TORSDOF 6
ENDMDL
MODEL 4
REMARK VINA RESULT:      -6.8      2.732      7.533
REMARK  Name = Meticillin
REMARK  10 active torsions:
REMARK  status: ('A' for Active; 'I' for Inactive)
REMARK    1  A    between atoms: C_4  and  C_5
REMARK    2  A    between atoms: C_4  and  C_6
REMARK    3  A    between atoms: CA_7  and  C_25
REMARK    4  A    between atoms: CA_11  and  N_12
REMARK    5  A    between atoms: C_13  and  C_15
REMARK    6  A    between atoms: C_16  and  O_17
REMARK    7  A    between atoms: O_17  and  C_18
REMARK    8  A    between atoms: C_22  and  O_23
REMARK    9  A    between atoms: O_23  and  C_24
REMARK   10  A    between atoms: C_25  and  O_26
REMARK                            x       y       z     vdW  Elec       q    Type
REMARK                         _______ _______ _______ _____ _____    ______ ____
ROOT
ATOM      1  C   UNL     1      -5.711   1.662 125.639  0.00  0.00    +0.000 C 
ATOM      2  S   UNL     1      -7.027   0.984 124.570  0.00  0.00    +0.000 S 
ATOM      3  C   UNL     1      -7.594   2.696 124.112  0.00  0.00    +0.000 C 
ATOM      4  C   UNL     1      -9.057   2.559 123.687  0.00  0.00    +0.000 C 
ATOM      5  C   UNL     1      -6.678   3.140 122.958  0.00  0.00    +0.000 C 
ATOM      6  CA  UNL     1      -7.438   3.486 125.429  0.00  0.00    +0.000 C 
ATOM      7  N   UNL     1      -6.229   2.965 126.088  0.00  0.00    +0.000 N 
ATOM      8  C   UNL     1      -6.274   2.593 127.414  0.00  0.00    +0.000 C 
ATOM      9  O   UNL     1      -6.875   3.031 128.360  0.00  0.00    +0.000 OA
ATOM     10  CA  UNL     1      -5.643   1.229 127.111  0.00  0.00    +0.000 C 
ENDROOT
BRANCH  10  11
ATOM     11  N   UNL     1      -6.502   0.107 127.591  0.00  0.00    +0.000 N 
ATOM     12  C   UNL     1      -6.083  -1.191 127.387  0.00  0.00    +0.000 C 
ATOM     13  O   UNL     1      -4.959  -1.479 126.995  0.00  0.00    +0.000 OA
ATOM     14  H   UNL     1      -7.471   0.279 127.847  0.00  0.00    +0.000 HD
BRANCH  12  15
ATOM     15  C   UNL     1      -7.092  -2.241 127.571  0.00  0.00    +0.000 A 
ATOM     16  C   UNL     1      -7.715  -2.811 126.437  0.00  0.00    +0.000 A 
ATOM     17  C   UNL     1      -8.835  -3.638 126.630  0.00  0.00    +0.000 A 
ATOM     18  C   UNL     1      -9.245  -4.003 127.911  0.00  0.00    +0.000 A 
ATOM     19  C   UNL     1      -8.592  -3.472 129.021  0.00  0.00    +0.000 A 
ATOM     20  C   UNL     1      -7.537  -2.559 128.877  0.00  0.00    +0.000 A 
BRANCH  16  21
ATOM     21  O   UNL     1      -7.364  -2.692 125.111  0.00  0.00    +0.000 OA
ATOM     22  C   UNL     1      -8.339  -2.980 124.111  0.00  0.00    +0.000 C 
ENDBRANCH  16  21
BRANCH  20  23
ATOM     23  O   UNL     1      -7.121  -2.081 130.100  0.00  0.00    +0.000 OA
ATOM     24  C   UNL     1      -7.916  -1.139 130.793  0.00  0.00    +0.000 C 
ENDBRANCH  20  23
ENDBRANCH  12  15
ENDBRANCH  10  11
BRANCH   6  25
ATOM     25  C   UNL     1      -7.375   5.026 125.401  0.00  0.00    +0.000 C 
ATOM     26  OXT UNL     1      -6.321   5.640 125.284  0.00  0.00    +0.000 OA
BRANCH  25  27
ATOM     27  O   UNL     1      -8.516   5.729 125.526  0.00  0.00    +0.000 OA
ATOM     28  H   UNL     1      -9.374   5.309 125.362  0.00  0.00    +0.000 HD
ENDBRANCH  25  27
ENDBRANCH   6  25
TORSDOF 6
ENDMDL
MODEL 5
REMARK VINA RESULT:      -6.8      2.714      7.952
REMARK  Name = Meticillin
REMARK  10 active torsions:
REMARK  status: ('A' for Active; 'I' for Inactive)
REMARK    1  A    between atoms: C_4  and  C_5
REMARK    2  A    between atoms: C_4  and  C_6
REMARK    3  A    between atoms: CA_7  and  C_25
REMARK    4  A    between atoms: CA_11  and  N_12
REMARK    5  A    between atoms: C_13  and  C_15
REMARK    6  A    between atoms: C_16  and  O_17
REMARK    7  A    between atoms: O_17  and  C_18
REMARK    8  A    between atoms: C_22  and  O_23
REMARK    9  A    between atoms: O_23  and  C_24
REMARK   10  A    between atoms: C_25  and  O_26
REMARK                            x       y       z     vdW  Elec       q    Type
REMARK                         _______ _______ _______ _____ _____    ______ ____
ROOT
ATOM      1  C   UNL     1      -5.683   1.829 125.755  0.00  0.00    +0.000 C 
ATOM      2  S   UNL     1      -6.921   1.128 124.610  0.00  0.00    +0.000 S 
ATOM      3  C   UNL     1      -7.427   2.829 124.051  0.00  0.00    +0.000 C 
ATOM      4  C   UNL     1      -8.854   2.693 123.517  0.00  0.00    +0.000 C 
ATOM      5  C   UNL     1      -6.418   3.222 122.957  0.00  0.00    +0.000 C 
ATOM      6  CA  UNL     1      -7.363   3.664 125.348  0.00  0.00    +0.000 C 
ATOM      7  N   UNL     1      -6.217   3.152 126.117  0.00  0.00    +0.000 N 
ATOM      8  C   UNL     1      -6.369   2.829 127.447  0.00  0.00    +0.000 C 
ATOM      9  O   UNL     1      -7.036   3.306 128.328  0.00  0.00    +0.000 OA
ATOM     10  CA  UNL     1      -5.736   1.448 127.242  0.00  0.00    +0.000 C 
ENDROOT
BRANCH  10  11
ATOM     11  N   UNL     1      -6.645   0.353 127.691  0.00  0.00    +0.000 N 
ATOM     12  C   UNL     1      -6.286  -0.956 127.450  0.00  0.00    +0.000 C 
ATOM     13  O   UNL     1      -5.175  -1.284 127.050  0.00  0.00    +0.000 OA
ATOM     14  H   UNL     1      -7.605   0.562 127.953  0.00  0.00    +0.000 HD
BRANCH  12  15
ATOM     15  C   UNL     1      -7.341  -1.965 127.607  0.00  0.00    +0.000 A 
ATOM     16  C   UNL     1      -7.699  -2.398 128.904  0.00  0.00    +0.000 A 
ATOM     17  C   UNL     1      -8.535  -3.521 129.031  0.00  0.00    +0.000 A 
ATOM     18  C   UNL     1      -9.112  -4.116 127.909  0.00  0.00    +0.000 A 
ATOM     19  C   UNL     1      -8.788  -3.648 126.638  0.00  0.00    +0.000 A 
ATOM     20  C   UNL     1      -7.875  -2.599 126.459  0.00  0.00    +0.000 A 
BRANCH  16  21
ATOM     21  O   UNL     1      -7.356  -1.850 130.119  0.00  0.00    +0.000 OA
ATOM     22  C   UNL     1      -7.335  -2.690 131.272  0.00  0.00    +0.000 C 
ENDBRANCH  16  21
BRANCH  20  23
ATOM     23  O   UNL     1      -7.620  -2.382 125.123  0.00  0.00    +0.000 OA
ATOM     24  C   UNL     1      -6.759  -3.256 124.421  0.00  0.00    +0.000 C 
ENDBRANCH  20  23
ENDBRANCH  12  15
ENDBRANCH  10  11
BRANCH   6  25
ATOM     25  C   UNL     1      -7.277   5.200 125.272  0.00  0.00    +0.000 C 
ATOM     26  OXT UNL     1      -6.216   5.794 125.120  0.00  0.00    +0.000 OA
BRANCH  25  27
ATOM     27  O   UNL     1      -8.405   5.925 125.392  0.00  0.00    +0.000 OA
ATOM     28  H   UNL     1      -8.447   6.832 125.053  0.00  0.00    +0.000 HD
ENDBRANCH  25  27
ENDBRANCH   6  25
TORSDOF 6
ENDMDL
MODEL 6
REMARK VINA RESULT:      -6.7      5.259      8.058
REMARK  Name = Meticillin
REMARK  10 active torsions:
REMARK  status: ('A' for Active; 'I' for Inactive)
REMARK    1  A    between atoms: C_4  and  C_5
REMARK    2  A    between atoms: C_4  and  C_6
REMARK    3  A    between atoms: CA_7  and  C_25
REMARK    4  A    between atoms: CA_11  and  N_12
REMARK    5  A    between atoms: C_13  and  C_15
REMARK    6  A    between atoms: C_16  and  O_17
REMARK    7  A    between atoms: O_17  and  C_18
REMARK    8  A    between atoms: C_22  and  O_23
REMARK    9  A    between atoms: O_23  and  C_24
REMARK   10  A    between atoms: C_25  and  O_26
REMARK                            x       y       z     vdW  Elec       q    Type
REMARK                         _______ _______ _______ _____ _____    ______ ____
ROOT
ATOM      1  C   UNL     1      -6.816   2.894 126.612  0.00  0.00    +0.000 C 
ATOM      2  S   UNL     1      -7.565   1.296 127.081  0.00  0.00    +0.000 S 
ATOM      3  C   UNL     1      -8.159   1.017 125.340  0.00  0.00    +0.000 C 
ATOM      4  C   UNL     1      -9.344   0.055 125.445  0.00  0.00    +0.000 C 
ATOM      5  C   UNL     1      -6.962   0.406 124.588  0.00  0.00    +0.000 C 
ATOM      6  CA  UNL     1      -8.586   2.427 124.879  0.00  0.00    +0.000 C 
ATOM      7  N   UNL     1      -7.630   3.370 125.481  0.00  0.00    +0.000 N 
ATOM      8  C   UNL     1      -8.090   4.477 126.159  0.00  0.00    +0.000 C 
ATOM      9  O   UNL     1      -9.039   5.196 125.991  0.00  0.00    +0.000 OA
ATOM     10  CA  UNL     1      -7.215   4.164 127.379  0.00  0.00    +0.000 C 
ENDROOT
BRANCH  10  11
ATOM     11  N   UNL     1      -8.028   4.048 128.625  0.00  0.00    +0.000 N 
ATOM     12  C   UNL     1      -7.575   4.651 129.778  0.00  0.00    +0.000 C 
ATOM     13  O   UNL     1      -6.632   5.433 129.801  0.00  0.00    +0.000 OA
ATOM     14  H   UNL     1      -8.769   3.354 128.688  0.00  0.00    +0.000 HD
BRANCH  12  15
ATOM     15  C   UNL     1      -8.222   4.240 131.030  0.00  0.00    +0.000 A 
ATOM     16  C   UNL     1      -8.866   5.213 131.829  0.00  0.00    +0.000 A 
ATOM     17  C   UNL     1      -9.275   4.855 133.126  0.00  0.00    +0.000 A 
ATOM     18  C   UNL     1      -9.173   3.537 133.572  0.00  0.00    +0.000 A 
ATOM     19  C   UNL     1      -8.579   2.577 132.755  0.00  0.00    +0.000 A 
ATOM     20  C   UNL     1      -8.061   2.913 131.496  0.00  0.00    +0.000 A 
BRANCH  16  21
ATOM     21  O   UNL     1      -9.191   6.512 131.509  0.00  0.00    +0.000 OA
ATOM     22  C   UNL     1     -10.427   6.769 130.844  0.00  0.00    +0.000 C 
ENDBRANCH  16  21
BRANCH  20  23
ATOM     23  O   UNL     1      -7.422   1.839 130.917  0.00  0.00    +0.000 OA
ATOM     24  C   UNL     1      -6.064   1.585 131.217  0.00  0.00    +0.000 C 
ENDBRANCH  20  23
ENDBRANCH  12  15
ENDBRANCH  10  11
BRANCH   6  25
ATOM     25  C   UNL     1      -8.725   2.737 123.376  0.00  0.00    +0.000 C 
ATOM     26  OXT UNL     1      -9.411   2.055 122.623  0.00  0.00    +0.000 OA
BRANCH  25  27
ATOM     27  O   UNL     1      -8.059   3.788 122.861  0.00  0.00    +0.000 OA
ATOM     28  H   UNL     1      -7.366   3.654 122.196  0.00  0.00    +0.000 HD
ENDBRANCH  25  27
ENDBRANCH   6  25
TORSDOF 6
ENDMDL
MODEL 7
REMARK VINA RESULT:      -6.6      3.535      8.001
REMARK  Name = Meticillin
REMARK  10 active torsions:
REMARK  status: ('A' for Active; 'I' for Inactive)
REMARK    1  A    between atoms: C_4  and  C_5
REMARK    2  A    between atoms: C_4  and  C_6
REMARK    3  A    between atoms: CA_7  and  C_25
REMARK    4  A    between atoms: CA_11  and  N_12
REMARK    5  A    between atoms: C_13  and  C_15
REMARK    6  A    between atoms: C_16  and  O_17
REMARK    7  A    between atoms: O_17  and  C_18
REMARK    8  A    between atoms: C_22  and  O_23
REMARK    9  A    between atoms: O_23  and  C_24
REMARK   10  A    between atoms: C_25  and  O_26
REMARK                            x       y       z     vdW  Elec       q    Type
REMARK                         _______ _______ _______ _____ _____    ______ ____
ROOT
ATOM      1  C   UNL     1      -6.875  -0.440 125.527  0.00  0.00    +0.000 C 
ATOM      2  S   UNL     1      -7.266  -2.214 125.345  0.00  0.00    +0.000 S 
ATOM      3  C   UNL     1      -8.302  -1.873 123.837  0.00  0.00    +0.000 C 
ATOM      4  C   UNL     1      -9.286  -3.039 123.726  0.00  0.00    +0.000 C 
ATOM      5  C   UNL     1      -7.312  -1.816 122.659  0.00  0.00    +0.000 C 
ATOM      6  CA  UNL     1      -9.005  -0.542 124.182  0.00  0.00    +0.000 C 
ATOM      7  N   UNL     1      -8.031   0.259 124.941  0.00  0.00    +0.000 N 
ATOM      8  C   UNL     1      -8.400   0.841 126.134  0.00  0.00    +0.000 C 
ATOM      9  O   UNL     1      -9.435   1.321 126.518  0.00  0.00    +0.000 OA
ATOM     10  CA  UNL     1      -7.180   0.262 126.859  0.00  0.00    +0.000 C 
ENDROOT
BRANCH  10  11
ATOM     11  N   UNL     1      -7.578  -0.549 128.046  0.00  0.00    +0.000 N 
ATOM     12  C   UNL     1      -7.026  -0.254 129.275  0.00  0.00    +0.000 C 
ATOM     13  O   UNL     1      -6.363   0.753 129.487  0.00  0.00    +0.000 OA
ATOM     14  H   UNL     1      -8.056  -1.438 127.920  0.00  0.00    +0.000 HD
BRANCH  12  15
ATOM     15  C   UNL     1      -7.188  -1.266 130.326  0.00  0.00    +0.000 A 
ATOM     16  C   UNL     1      -7.808  -0.906 131.545  0.00  0.00    +0.000 A 
ATOM     17  C   UNL     1      -7.749  -1.808 132.621  0.00  0.00    +0.000 A 
ATOM     18  C   UNL     1      -7.211  -3.084 132.459  0.00  0.00    +0.000 A 
ATOM     19  C   UNL     1      -6.646  -3.444 131.237  0.00  0.00    +0.000 A 
ATOM     20  C   UNL     1      -6.588  -2.538 130.168  0.00  0.00    +0.000 A 
BRANCH  16  21
ATOM     21  O   UNL     1      -8.515   0.236 131.847  0.00  0.00    +0.000 OA
ATOM     22  C   UNL     1      -7.874   1.263 132.601  0.00  0.00    +0.000 C 
ENDBRANCH  16  21
BRANCH  20  23
ATOM     23  O   UNL     1      -5.888  -3.066 129.106  0.00  0.00    +0.000 OA
ATOM     24  C   UNL     1      -4.493  -2.857 129.011  0.00  0.00    +0.000 C 
ENDBRANCH  20  23
ENDBRANCH  12  15
ENDBRANCH  10  11
BRANCH   6  25
ATOM     25  C   UNL     1      -9.608   0.324 123.060  0.00  0.00    +0.000 C 
ATOM     26  OXT UNL     1     -10.591  -0.024 122.415  0.00  0.00    +0.000 OA
BRANCH  25  27
ATOM     27  O   UNL     1      -9.029   1.502 122.760  0.00  0.00    +0.000 OA
ATOM     28  H   UNL     1      -8.680   1.667 121.872  0.00  0.00    +0.000 HD
ENDBRANCH  25  27
ENDBRANCH   6  25
TORSDOF 6
ENDMDL
MODEL 8
REMARK VINA RESULT:      -6.6      3.511      7.834
REMARK  Name = Meticillin
REMARK  10 active torsions:
REMARK  status: ('A' for Active; 'I' for Inactive)
REMARK    1  A    between atoms: C_4  and  C_5
REMARK    2  A    between atoms: C_4  and  C_6
REMARK    3  A    between atoms: CA_7  and  C_25
REMARK    4  A    between atoms: CA_11  and  N_12
REMARK    5  A    between atoms: C_13  and  C_15
REMARK    6  A    between atoms: C_16  and  O_17
REMARK    7  A    between atoms: O_17  and  C_18
REMARK    8  A    between atoms: C_22  and  O_23
REMARK    9  A    between atoms: O_23  and  C_24
REMARK   10  A    between atoms: C_25  and  O_26
REMARK                            x       y       z     vdW  Elec       q    Type
REMARK                         _______ _______ _______ _____ _____    ______ ____
ROOT
ATOM      1  C   UNL     1      -6.766  -0.304 125.444  0.00  0.00    +0.000 C 
ATOM      2  S   UNL     1      -7.139  -2.087 125.321  0.00  0.00    +0.000 S 
ATOM      3  C   UNL     1      -8.236  -1.798 123.846  0.00  0.00    +0.000 C 
ATOM      4  C   UNL     1      -9.208  -2.979 123.803  0.00  0.00    +0.000 C 
ATOM      5  C   UNL     1      -7.293  -1.759 122.630  0.00  0.00    +0.000 C 
ATOM      6  CA  UNL     1      -8.944  -0.468 124.185  0.00  0.00    +0.000 C 
ATOM      7  N   UNL     1      -7.953   0.364 124.886  0.00  0.00    +0.000 N 
ATOM      8  C   UNL     1      -8.285   0.973 126.077  0.00  0.00    +0.000 C 
ATOM      9  O   UNL     1      -9.310   1.448 126.488  0.00  0.00    +0.000 OA
ATOM     10  CA  UNL     1      -7.029   0.428 126.769  0.00  0.00    +0.000 C 
ENDROOT
BRANCH  10  11
ATOM     11  N   UNL     1      -7.371  -0.357 127.990  0.00  0.00    +0.000 N 
ATOM     12  C   UNL     1      -6.757  -0.041 129.183  0.00  0.00    +0.000 C 
ATOM     13  O   UNL     1      -6.079   0.967 129.342  0.00  0.00    +0.000 OA
ATOM     14  H   UNL     1      -7.859  -1.246 127.906  0.00  0.00    +0.000 HD
BRANCH  12  15
ATOM     15  C   UNL     1      -6.870  -1.031 130.261  0.00  0.00    +0.000 A 
ATOM     16  C   UNL     1      -6.533  -2.380 130.002  0.00  0.00    +0.000 A 
ATOM     17  C   UNL     1      -6.864  -3.352 130.962  0.00  0.00    +0.000 A 
ATOM     18  C   UNL     1      -7.390  -2.987 132.201  0.00  0.00    +0.000 A 
ATOM     19  C   UNL     1      -7.673  -1.648 132.462  0.00  0.00    +0.000 A 
ATOM     20  C   UNL     1      -7.458  -0.656 131.493  0.00  0.00    +0.000 A 
BRANCH  16  21
ATOM     21  O   UNL     1      -5.878  -2.909 128.913  0.00  0.00    +0.000 OA
ATOM     22  C   UNL     1      -4.461  -2.777 128.830  0.00  0.00    +0.000 C 
ENDBRANCH  16  21
BRANCH  20  23
ATOM     23  O   UNL     1      -7.914   0.569 131.925  0.00  0.00    +0.000 OA
ATOM     24  C   UNL     1      -9.282   0.898 131.789  0.00  0.00    +0.000 C 
ENDBRANCH  20  23
ENDBRANCH  12  15
ENDBRANCH  10  11
BRANCH   6  25
ATOM     25  C   UNL     1      -9.602   0.361 123.065  0.00  0.00    +0.000 C 
ATOM     26  OXT UNL     1     -10.565  -0.043 122.425  0.00  0.00    +0.000 OA
BRANCH  25  27
ATOM     27  O   UNL     1      -9.094   1.571 122.763  0.00  0.00    +0.000 OA
ATOM     28  H   UNL     1      -9.681   2.322 122.588  0.00  0.00    +0.000 HD
ENDBRANCH  25  27
ENDBRANCH   6  25
TORSDOF 6
ENDMDL
MODEL 9
REMARK VINA RESULT:      -6.6      5.461      7.575
REMARK  Name = Meticillin
REMARK  10 active torsions:
REMARK  status: ('A' for Active; 'I' for Inactive)
REMARK    1  A    between atoms: C_4  and  C_5
REMARK    2  A    between atoms: C_4  and  C_6
REMARK    3  A    between atoms: CA_7  and  C_25
REMARK    4  A    between atoms: CA_11  and  N_12
REMARK    5  A    between atoms: C_13  and  C_15
REMARK    6  A    between atoms: C_16  and  O_17
REMARK    7  A    between atoms: O_17  and  C_18
REMARK    8  A    between atoms: C_22  and  O_23
REMARK    9  A    between atoms: O_23  and  C_24
REMARK   10  A    between atoms: C_25  and  O_26
REMARK                            x       y       z     vdW  Elec       q    Type
REMARK                         _______ _______ _______ _____ _____    ______ ____
ROOT
ATOM      1  C   UNL     1      -7.540   3.049 130.680  0.00  0.00    +0.000 C 
ATOM      2  S   UNL     1      -6.470   4.457 130.223  0.00  0.00    +0.000 S 
ATOM      3  C   UNL     1      -7.235   5.520 131.545  0.00  0.00    +0.000 C 
ATOM      4  C   UNL     1      -7.017   6.968 131.103  0.00  0.00    +0.000 C 
ATOM      5  C   UNL     1      -6.481   5.174 132.842  0.00  0.00    +0.000 C 
ATOM      6  CA  UNL     1      -8.724   5.114 131.510  0.00  0.00    +0.000 C 
ATOM      7  N   UNL     1      -8.756   3.669 131.232  0.00  0.00    +0.000 N 
ATOM      8  C   UNL     1      -9.570   3.178 130.235  0.00  0.00    +0.000 C 
ATOM      9  O   UNL     1     -10.656   3.507 129.838  0.00  0.00    +0.000 OA
ATOM     10  CA  UNL     1      -8.415   2.392 129.602  0.00  0.00    +0.000 C 
ENDROOT
BRANCH  10  11
ATOM     11  N   UNL     1      -8.221   2.759 128.168  0.00  0.00    +0.000 N 
ATOM     12  C   UNL     1      -7.444   1.947 127.369  0.00  0.00    +0.000 C 
ATOM     13  O   UNL     1      -7.050   0.841 127.719  0.00  0.00    +0.000 OA
ATOM     14  H   UNL     1      -8.453   3.694 127.845  0.00  0.00    +0.000 HD
BRANCH  12  15
ATOM     15  C   UNL     1      -7.016   2.510 126.083  0.00  0.00    +0.000 A 
ATOM     16  C   UNL     1      -5.668   2.900 125.911  0.00  0.00    +0.000 A 
ATOM     17  C   UNL     1      -5.324   3.646 124.771  0.00  0.00    +0.000 A 
ATOM     18  C   UNL     1      -6.256   3.884 123.761  0.00  0.00    +0.000 A 
ATOM     19  C   UNL     1      -7.571   3.452 123.921  0.00  0.00    +0.000 A 
ATOM     20  C   UNL     1      -7.984   2.797 125.091  0.00  0.00    +0.000 A 
BRANCH  16  21
ATOM     21  O   UNL     1      -4.584   2.629 126.716  0.00  0.00    +0.000 OA
ATOM     22  C   UNL     1      -3.764   3.711 127.155  0.00  0.00    +0.000 C 
ENDBRANCH  16  21
BRANCH  20  23
ATOM     23  O   UNL     1      -9.342   2.566 125.079  0.00  0.00    +0.000 OA
ATOM     24  C   UNL     1      -9.861   1.466 124.358  0.00  0.00    +0.000 C 
ENDBRANCH  20  23
ENDBRANCH  12  15
ENDBRANCH  10  11
BRANCH   6  25
ATOM     25  C   UNL     1      -9.634   5.417 132.717  0.00  0.00    +0.000 C 
ATOM     26  OXT UNL     1     -10.123   6.523 132.911  0.00  0.00    +0.000 OA
BRANCH  25  27
ATOM     27  O   UNL     1      -9.892   4.437 133.604  0.00  0.00    +0.000 OA
ATOM     28  H   UNL     1      -9.276   4.254 134.329  0.00  0.00    +0.000 HD
ENDBRANCH  25  27
ENDBRANCH   6  25
TORSDOF 6
ENDMDL
