MODEL 1
REMARK VINA RESULT:      -5.9      0.000      0.000
REMARK  Name = Metoprolol
REMARK  13 active torsions:
REMARK  status: ('A' for Active; 'I' for Inactive)
REMARK    1  A    between atoms: C_1  and  O_2
REMARK    2  A    between atoms: O_2  and  C_3
REMARK    3  A    between atoms: C_3  and  C_4
REMARK    4  A    between atoms: C_4  and  C_5
REMARK    5  A    between atoms: C_8  and  O_9
REMARK    6  A    between atoms: O_9  and  C_10
REMARK    7  A    between atoms: C_10  and  C_11
REMARK    8  A    between atoms: C_11  and  O_12
REMARK    9  A    between atoms: C_11  and  C_13
REMARK   10  A    between atoms: C_13  and  N_14
REMARK   11  A    between atoms: N_14  and  C_15
REMARK   12  A    between atoms: C_15  and  C_16
REMARK   13  A    between atoms: C_15  and  C_17
REMARK                            x       y       z     vdW  Elec       q    Type
REMARK                         _______ _______ _______ _____ _____    ______ ____
ROOT
ATOM      1  O   UNL     1      -8.979   2.748 125.043  0.00  0.00    +0.000 OA
ENDROOT
BRANCH   1   5
ATOM      2  C   UNL     1      -5.832   4.085 122.656  0.00  0.00    +0.000 A 
ATOM      3  C   UNL     1      -6.990   3.482 122.134  0.00  0.00    +0.000 A 
ATOM      4  C   UNL     1      -8.029   3.088 122.969  0.00  0.00    +0.000 A 
ATOM      5  C   UNL     1      -7.911   3.225 124.341  0.00  0.00    +0.000 A 
ATOM      6  C   UNL     1      -6.760   3.808 124.881  0.00  0.00    +0.000 A 
ATOM      7  C   UNL     1      -5.730   4.239 124.040  0.00  0.00    +0.000 A 
BRANCH   2   8
ATOM      8  C   UNL     1      -4.738   4.634 121.766  0.00  0.00    +0.000 C 
BRANCH   8   9
ATOM      9  C   UNL     1      -5.161   4.737 120.305  0.00  0.00    +0.000 C 
BRANCH   9  11
ATOM     10  C   UNL     1      -5.871   6.176 118.631  0.00  0.00    +0.000 C 
ATOM     11  O   UNL     1      -5.096   6.074 119.823  0.00  0.00    +0.000 OA
ENDBRANCH   9  11
ENDBRANCH   8   9
ENDBRANCH   2   8
ENDBRANCH   1   5
BRANCH   1  12
ATOM     12  C   UNL     1      -8.721   1.621 125.869  0.00  0.00    +0.000 C 
BRANCH  12  13
ATOM     13  C   UNL     1      -9.314   0.370 125.213  0.00  0.00    +0.000 C 
BRANCH  13  14
ATOM     14  O   UNL     1     -10.386   0.705 124.319  0.00  0.00    +0.000 OA
ATOM     15  H   UNL     1     -10.525   1.665 124.363  0.00  0.00    +0.000 HD
ENDBRANCH  13  14
BRANCH  13  16
ATOM     16  C   UNL     1      -8.197  -0.334 124.433  0.00  0.00    +0.000 C 
BRANCH  16  17
ATOM     17  N   UNL     1      -7.929  -1.667 124.972  0.00  0.00    +0.000 NA
ATOM     18  H   UNL     1      -7.435  -1.567 125.863  0.00  0.00    +0.000 HD
BRANCH  17  19
ATOM     19  C   UNL     1      -9.145  -2.468 125.128  0.00  0.00    +0.000 C 
ATOM     20  C   UNL     1      -9.386  -3.354 123.904  0.00  0.00    +0.000 C 
ATOM     21  C   UNL     1      -8.997  -3.351 126.368  0.00  0.00    +0.000 C 
ENDBRANCH  17  19
ENDBRANCH  16  17
ENDBRANCH  13  16
ENDBRANCH  12  13
ENDBRANCH   1  12
TORSDOF 10
ENDMDL
MODEL 2
REMARK VINA RESULT:      -5.7      5.858      8.901
REMARK  Name = Metoprolol
REMARK  13 active torsions:
REMARK  status: ('A' for Active; 'I' for Inactive)
REMARK    1  A    between atoms: C_1  and  O_2
REMARK    2  A    between atoms: O_2  and  C_3
REMARK    3  A    between atoms: C_3  and  C_4
REMARK    4  A    between atoms: C_4  and  C_5
REMARK    5  A    between atoms: C_8  and  O_9
REMARK    6  A    between atoms: O_9  and  C_10
REMARK    7  A    between atoms: C_10  and  C_11
REMARK    8  A    between atoms: C_11  and  O_12
REMARK    9  A    between atoms: C_11  and  C_13
REMARK   10  A    between atoms: C_13  and  N_14
REMARK   11  A    between atoms: N_14  and  C_15
REMARK   12  A    between atoms: C_15  and  C_16
REMARK   13  A    between atoms: C_15  and  C_17
REMARK                            x       y       z     vdW  Elec       q    Type
REMARK                         _______ _______ _______ _____ _____    ______ ____
ROOT
ATOM      1  O   UNL     1      -8.160  -2.151 126.149  0.00  0.00    +0.000 OA
ENDROOT
BRANCH   1   5
ATOM      2  C   UNL     1      -6.300  -3.228 129.723  0.00  0.00    +0.000 A 
ATOM      3  C   UNL     1      -5.615  -2.631 128.649  0.00  0.00    +0.000 A 
ATOM      4  C   UNL     1      -6.288  -2.255 127.493  0.00  0.00    +0.000 A 
ATOM      5  C   UNL     1      -7.639  -2.522 127.354  0.00  0.00    +0.000 A 
ATOM      6  C   UNL     1      -8.335  -3.131 128.404  0.00  0.00    +0.000 A 
ATOM      7  C   UNL     1      -7.667  -3.475 129.582  0.00  0.00    +0.000 A 
BRANCH   2   8
ATOM      8  C   UNL     1      -5.621  -3.538 131.039  0.00  0.00    +0.000 C 
BRANCH   8   9
ATOM      9  C   UNL     1      -4.133  -3.830 130.883  0.00  0.00    +0.000 C 
BRANCH   9  11
ATOM     10  C   UNL     1      -3.424  -4.424 133.009  0.00  0.00    +0.000 C 
ATOM     11  O   UNL     1      -3.384  -3.403 132.015  0.00  0.00    +0.000 OA
ENDBRANCH   9  11
ENDBRANCH   8   9
ENDBRANCH   2   8
ENDBRANCH   1   5
BRANCH   1  12
ATOM     12  C   UNL     1      -9.336  -2.839 125.746  0.00  0.00    +0.000 C 
BRANCH  12  13
ATOM     13  C   UNL     1      -9.092  -3.502 124.387  0.00  0.00    +0.000 C 
BRANCH  13  14
ATOM     14  O   UNL     1     -10.113  -3.150 123.441  0.00  0.00    +0.000 OA
ATOM     15  H   UNL     1     -10.292  -2.200 123.531  0.00  0.00    +0.000 HD
ENDBRANCH  13  14
BRANCH  13  16
ATOM     16  C   UNL     1      -7.728  -3.033 123.866  0.00  0.00    +0.000 C 
BRANCH  16  17
ATOM     17  N   UNL     1      -6.661  -3.948 124.269  0.00  0.00    +0.000 NA
ATOM     18  H   UNL     1      -6.807  -4.848 123.803  0.00  0.00    +0.000 HD
BRANCH  17  19
ATOM     19  C   UNL     1      -5.325  -3.417 123.987  0.00  0.00    +0.000 C 
ATOM     20  C   UNL     1      -4.360  -4.532 123.578  0.00  0.00    +0.000 C 
ATOM     21  C   UNL     1      -5.430  -2.400 122.851  0.00  0.00    +0.000 C 
ENDBRANCH  17  19
ENDBRANCH  16  17
ENDBRANCH  13  16
ENDBRANCH  12  13
ENDBRANCH   1  12
TORSDOF 10
ENDMDL
MODEL 3
REMARK VINA RESULT:      -5.7      3.314      8.419
REMARK  Name = Metoprolol
REMARK  13 active torsions:
REMARK  status: ('A' for Active; 'I' for Inactive)
REMARK    1  A    between atoms: C_1  and  O_2
REMARK    2  A    between atoms: O_2  and  C_3
REMARK    3  A    between atoms: C_3  and  C_4
REMARK    4  A    between atoms: C_4  and  C_5
REMARK    5  A    between atoms: C_8  and  O_9
REMARK    6  A    between atoms: O_9  and  C_10
REMARK    7  A    between atoms: C_10  and  C_11
REMARK    8  A    between atoms: C_11  and  O_12
REMARK    9  A    between atoms: C_11  and  C_13
REMARK   10  A    between atoms: C_13  and  N_14
REMARK   11  A    between atoms: N_14  and  C_15
REMARK   12  A    between atoms: C_15  and  C_16
REMARK   13  A    between atoms: C_15  and  C_17
REMARK                            x       y       z     vdW  Elec       q    Type
REMARK                         _______ _______ _______ _____ _____    ______ ____
ROOT
ATOM      1  O   UNL     1      -9.416  -0.830 124.514  0.00  0.00    +0.000 OA
ENDROOT
BRANCH   1   5
ATOM      2  C   UNL     1      -8.215  -2.900 127.929  0.00  0.00    +0.000 A 
ATOM      3  C   UNL     1      -7.814  -1.582 127.649  0.00  0.00    +0.000 A 
ATOM      4  C   UNL     1      -8.273  -0.921 126.515  0.00  0.00    +0.000 A 
ATOM      5  C   UNL     1      -9.086  -1.577 125.606  0.00  0.00    +0.000 A 
ATOM      6  C   UNL     1      -9.482  -2.894 125.859  0.00  0.00    +0.000 A 
ATOM      7  C   UNL     1      -9.052  -3.547 127.018  0.00  0.00    +0.000 A 
BRANCH   2   8
ATOM      8  C   UNL     1      -7.832  -3.604 129.213  0.00  0.00    +0.000 C 
BRANCH   8   9
ATOM      9  C   UNL     1      -6.360  -3.427 129.566  0.00  0.00    +0.000 C 
BRANCH   9  11
ATOM     10  C   UNL     1      -5.340  -4.706 131.210  0.00  0.00    +0.000 C 
ATOM     11  O   UNL     1      -6.129  -3.544 130.965  0.00  0.00    +0.000 OA
ENDBRANCH   9  11
ENDBRANCH   8   9
ENDBRANCH   2   8
ENDBRANCH   1   5
BRANCH   1  12
ATOM     12  C   UNL     1      -8.521   0.226 124.194  0.00  0.00    +0.000 C 
BRANCH  12  13
ATOM     13  C   UNL     1      -9.326   1.445 123.730  0.00  0.00    +0.000 C 
BRANCH  13  14
ATOM     14  O   UNL     1     -10.686   1.379 124.188  0.00  0.00    +0.000 OA
ATOM     15  H   UNL     1     -11.267   1.567 123.433  0.00  0.00    +0.000 HD
ENDBRANCH  13  14
BRANCH  13  16
ATOM     16  C   UNL     1      -8.656   2.702 124.295  0.00  0.00    +0.000 C 
BRANCH  16  17
ATOM     17  N   UNL     1      -8.432   3.702 123.250  0.00  0.00    +0.000 NA
ATOM     18  H   UNL     1      -7.752   4.386 123.592  0.00  0.00    +0.000 HD
BRANCH  17  19
ATOM     19  C   UNL     1      -7.994   3.108 121.985  0.00  0.00    +0.000 C 
ATOM     20  C   UNL     1      -8.739   3.721 120.797  0.00  0.00    +0.000 C 
ATOM     21  C   UNL     1      -6.494   3.351 121.820  0.00  0.00    +0.000 C 
ENDBRANCH  17  19
ENDBRANCH  16  17
ENDBRANCH  13  16
ENDBRANCH  12  13
ENDBRANCH   1  12
TORSDOF 10
ENDMDL
MODEL 4
REMARK VINA RESULT:      -5.7      4.683      8.518
REMARK  Name = Metoprolol
REMARK  13 active torsions:
REMARK  status: ('A' for Active; 'I' for Inactive)
REMARK    1  A    between atoms: C_1  and  O_2
REMARK    2  A    between atoms: O_2  and  C_3
REMARK    3  A    between atoms: C_3  and  C_4
REMARK    4  A    between atoms: C_4  and  C_5
REMARK    5  A    between atoms: C_8  and  O_9
REMARK    6  A    between atoms: O_9  and  C_10
REMARK    7  A    between atoms: C_10  and  C_11
REMARK    8  A    between atoms: C_11  and  O_12
REMARK    9  A    between atoms: C_11  and  C_13
REMARK   10  A    between atoms: C_13  and  N_14
REMARK   11  A    between atoms: N_14  and  C_15
REMARK   12  A    between atoms: C_15  and  C_16
REMARK   13  A    between atoms: C_15  and  C_17
REMARK                            x       y       z     vdW  Elec       q    Type
REMARK                         _______ _______ _______ _____ _____    ______ ____
ROOT
ATOM      1  O   UNL     1      -8.893  -3.543 125.487  0.00  0.00    +0.000 OA
ENDROOT
BRANCH   1   5
ATOM      2  C   UNL     1      -7.446  -2.682 129.302  0.00  0.00    +0.000 A 
ATOM      3  C   UNL     1      -8.517  -3.562 129.067  0.00  0.00    +0.000 A 
ATOM      4  C   UNL     1      -8.938  -3.846 127.773  0.00  0.00    +0.000 A 
ATOM      5  C   UNL     1      -8.347  -3.214 126.692  0.00  0.00    +0.000 A 
ATOM      6  C   UNL     1      -7.291  -2.322 126.907  0.00  0.00    +0.000 A 
ATOM      7  C   UNL     1      -6.842  -2.064 128.205  0.00  0.00    +0.000 A 
BRANCH   2   8
ATOM      8  C   UNL     1      -6.887  -2.445 130.688  0.00  0.00    +0.000 C 
BRANCH   8   9
ATOM      9  C   UNL     1      -5.411  -2.807 130.799  0.00  0.00    +0.000 C 
BRANCH   9  11
ATOM     10  C   UNL     1      -5.436  -5.031 131.455  0.00  0.00    +0.000 C 
ATOM     11  O   UNL     1      -5.155  -4.142 130.376  0.00  0.00    +0.000 OA
ENDBRANCH   9  11
ENDBRANCH   8   9
ENDBRANCH   2   8
ENDBRANCH   1   5
BRANCH   1  12
ATOM     12  C   UNL     1      -8.046  -3.372 124.358  0.00  0.00    +0.000 C 
BRANCH  12  13
ATOM     13  C   UNL     1      -8.888  -2.919 123.161  0.00  0.00    +0.000 C 
BRANCH  13  14
ATOM     14  O   UNL     1     -10.252  -3.352 123.286  0.00  0.00    +0.000 OA
ATOM     15  H   UNL     1     -10.506  -3.279 124.220  0.00  0.00    +0.000 HD
ENDBRANCH  13  14
BRANCH  13  16
ATOM     16  C   UNL     1      -8.840  -1.388 123.097  0.00  0.00    +0.000 C 
BRANCH  16  17
ATOM     17  N   UNL     1      -9.520  -0.785 124.244  0.00  0.00    +0.000 NA
ATOM     18  H   UNL     1      -9.523  -1.458 125.014  0.00  0.00    +0.000 HD
BRANCH  17  19
ATOM     19  C   UNL     1      -8.918   0.486 124.653  0.00  0.00    +0.000 C 
ATOM     20  C   UNL     1      -9.157   0.759 126.140  0.00  0.00    +0.000 C 
ATOM     21  C   UNL     1      -7.414   0.426 124.387  0.00  0.00    +0.000 C 
ENDBRANCH  17  19
ENDBRANCH  16  17
ENDBRANCH  13  16
ENDBRANCH  12  13
ENDBRANCH   1  12
TORSDOF 10
ENDMDL
MODEL 5
REMARK VINA RESULT:      -5.6      9.174     10.319
REMARK  Name = Metoprolol
REMARK  13 active torsions:
REMARK  status: ('A' for Active; 'I' for Inactive)
REMARK    1  A    between atoms: C_1  and  O_2
REMARK    2  A    between atoms: O_2  and  C_3
REMARK    3  A    between atoms: C_3  and  C_4
REMARK    4  A    between atoms: C_4  and  C_5
REMARK    5  A    between atoms: C_8  and  O_9
REMARK    6  A    between atoms: O_9  and  C_10
REMARK    7  A    between atoms: C_10  and  C_11
REMARK    8  A    between atoms: C_11  and  O_12
REMARK    9  A    between atoms: C_11  and  C_13
REMARK   10  A    between atoms: C_13  and  N_14
REMARK   11  A    between atoms: N_14  and  C_15
REMARK   12  A    between atoms: C_15  and  C_16
REMARK   13  A    between atoms: C_15  and  C_17
REMARK                            x       y       z     vdW  Elec       q    Type
REMARK                         _______ _______ _______ _____ _____    ______ ____
ROOT
ATOM      1  O   UNL     1      -9.442   6.430 132.049  0.00  0.00    +0.000 OA
ENDROOT
BRANCH   1   5
ATOM      2  C   UNL     1      -5.273   6.332 132.088  0.00  0.00    +0.000 A 
ATOM      3  C   UNL     1      -6.064   5.779 133.110  0.00  0.00    +0.000 A 
ATOM      4  C   UNL     1      -7.451   5.803 133.032  0.00  0.00    +0.000 A 
ATOM      5  C   UNL     1      -8.080   6.433 131.972  0.00  0.00    +0.000 A 
ATOM      6  C   UNL     1      -7.310   7.004 130.953  0.00  0.00    +0.000 A 
ATOM      7  C   UNL     1      -5.915   6.947 131.011  0.00  0.00    +0.000 A 
BRANCH   2   8
ATOM      8  C   UNL     1      -3.764   6.215 132.084  0.00  0.00    +0.000 C 
BRANCH   8   9
ATOM      9  C   UNL     1      -3.090   7.295 131.246  0.00  0.00    +0.000 C 
BRANCH   9  11
ATOM     10  C   UNL     1      -1.881   8.187 133.012  0.00  0.00    +0.000 C 
ATOM     11  O   UNL     1      -2.841   8.477 131.999  0.00  0.00    +0.000 OA
ENDBRANCH   9  11
ENDBRANCH   8   9
ENDBRANCH   2   8
ENDBRANCH   1   5
BRANCH   1  12
ATOM     12  C   UNL     1     -10.130   6.652 130.825  0.00  0.00    +0.000 C 
BRANCH  12  13
ATOM     13  C   UNL     1     -11.493   5.954 130.881  0.00  0.00    +0.000 C 
BRANCH  13  14
ATOM     14  O   UNL     1     -12.051   6.001 132.203  0.00  0.00    +0.000 OA
ATOM     15  H   UNL     1     -12.602   5.211 132.326  0.00  0.00    +0.000 HD
ENDBRANCH  13  14
BRANCH  13  16
ATOM     16  C   UNL     1     -12.433   6.666 129.902  0.00  0.00    +0.000 C 
BRANCH  16  17
ATOM     17  N   UNL     1     -12.092   6.355 128.514  0.00  0.00    +0.000 NA
ATOM     18  H   UNL     1     -12.667   5.568 128.203  0.00  0.00    +0.000 HD
BRANCH  17  19
ATOM     19  C   UNL     1     -12.247   7.507 127.622  0.00  0.00    +0.000 C 
ATOM     20  C   UNL     1     -13.319   8.469 128.140  0.00  0.00    +0.000 C 
ATOM     21  C   UNL     1     -10.910   8.244 127.533  0.00  0.00    +0.000 C 
ENDBRANCH  17  19
ENDBRANCH  16  17
ENDBRANCH  13  16
ENDBRANCH  12  13
ENDBRANCH   1  12
TORSDOF 10
ENDMDL
MODEL 6
REMARK VINA RESULT:      -5.5      4.222      7.870
REMARK  Name = Metoprolol
REMARK  13 active torsions:
REMARK  status: ('A' for Active; 'I' for Inactive)
REMARK    1  A    between atoms: C_1  and  O_2
REMARK    2  A    between atoms: O_2  and  C_3
REMARK    3  A    between atoms: C_3  and  C_4
REMARK    4  A    between atoms: C_4  and  C_5
REMARK    5  A    between atoms: C_8  and  O_9
REMARK    6  A    between atoms: O_9  and  C_10
REMARK    7  A    between atoms: C_10  and  C_11
REMARK    8  A    between atoms: C_11  and  O_12
REMARK    9  A    between atoms: C_11  and  C_13
REMARK   10  A    between atoms: C_13  and  N_14
REMARK   11  A    between atoms: N_14  and  C_15
REMARK   12  A    between atoms: C_15  and  C_16
REMARK   13  A    between atoms: C_15  and  C_17
REMARK                            x       y       z     vdW  Elec       q    Type
REMARK                         _______ _______ _______ _____ _____    ______ ____
ROOT
ATOM      1  O   UNL     1      -8.801  -0.966 126.080  0.00  0.00    +0.000 OA
ENDROOT
BRANCH   1   5
ATOM      2  C   UNL     1      -7.350  -2.896 129.480  0.00  0.00    +0.000 A 
ATOM      3  C   UNL     1      -8.124  -3.543 128.500  0.00  0.00    +0.000 A 
ATOM      4  C   UNL     1      -8.551  -2.866 127.365  0.00  0.00    +0.000 A 
ATOM      5  C   UNL     1      -8.276  -1.518 127.211  0.00  0.00    +0.000 A 
ATOM      6  C   UNL     1      -7.522  -0.852 128.183  0.00  0.00    +0.000 A 
ATOM      7  C   UNL     1      -7.059  -1.542 129.307  0.00  0.00    +0.000 A 
BRANCH   2   8
ATOM      8  C   UNL     1      -6.768  -3.635 130.666  0.00  0.00    +0.000 C 
BRANCH   8   9
ATOM      9  C   UNL     1      -5.475  -4.368 130.328  0.00  0.00    +0.000 C 
BRANCH   9  11
ATOM     10  C   UNL     1      -3.576  -3.565 129.267  0.00  0.00    +0.000 C 
ATOM     11  O   UNL     1      -4.334  -3.530 130.473  0.00  0.00    +0.000 OA
ENDBRANCH   9  11
ENDBRANCH   8   9
ENDBRANCH   2   8
ENDBRANCH   1   5
BRANCH   1  12
ATOM     12  C   UNL     1      -9.025   0.437 126.123  0.00  0.00    +0.000 C 
BRANCH  12  13
ATOM     13  C   UNL     1      -9.714   0.877 124.827  0.00  0.00    +0.000 C 
BRANCH  13  14
ATOM     14  O   UNL     1      -9.725   2.307 124.700  0.00  0.00    +0.000 OA
ATOM     15  H   UNL     1     -10.564   2.566 124.286  0.00  0.00    +0.000 HD
ENDBRANCH  13  14
BRANCH  13  16
ATOM     16  C   UNL     1      -8.949   0.263 123.649  0.00  0.00    +0.000 C 
BRANCH  16  17
ATOM     17  N   UNL     1      -9.685  -0.856 123.061  0.00  0.00    +0.000 NA
ATOM     18  H   UNL     1     -10.194  -0.518 122.241  0.00  0.00    +0.000 HD
BRANCH  17  19
ATOM     19  C   UNL     1      -8.817  -1.984 122.718  0.00  0.00    +0.000 C 
ATOM     20  C   UNL     1      -7.358  -1.693 123.080  0.00  0.00    +0.000 C 
ATOM     21  C   UNL     1      -9.289  -3.220 123.484  0.00  0.00    +0.000 C 
ENDBRANCH  17  19
ENDBRANCH  16  17
ENDBRANCH  13  16
ENDBRANCH  12  13
ENDBRANCH   1  12
TORSDOF 10
ENDMDL
MODEL 7
REMARK VINA RESULT:      -5.4      4.383      8.775
REMARK  Name = Metoprolol
REMARK  13 active torsions:
REMARK  status: ('A' for Active; 'I' for Inactive)
REMARK    1  A    between atoms: C_1  and  O_2
REMARK    2  A    between atoms: O_2  and  C_3
REMARK    3  A    between atoms: C_3  and  C_4
REMARK    4  A    between atoms: C_4  and  C_5
REMARK    5  A    between atoms: C_8  and  O_9
REMARK    6  A    between atoms: O_9  and  C_10
REMARK    7  A    between atoms: C_10  and  C_11
REMARK    8  A    between atoms: C_11  and  O_12
REMARK    9  A    between atoms: C_11  and  C_13
REMARK   10  A    between atoms: C_13  and  N_14
REMARK   11  A    between atoms: N_14  and  C_15
REMARK   12  A    between atoms: C_15  and  C_16
REMARK   13  A    between atoms: C_15  and  C_17
REMARK                            x       y       z     vdW  Elec       q    Type
REMARK                         _______ _______ _______ _____ _____    ______ ____
ROOT
ATOM      1  O   UNL     1      -8.397  -1.985 125.953  0.00  0.00    +0.000 OA
ENDROOT
BRANCH   1   5
ATOM      2  C   UNL     1      -6.682  -3.362 129.496  0.00  0.00    +0.000 A 
ATOM      3  C   UNL     1      -8.011  -3.636 129.129  0.00  0.00    +0.000 A 
ATOM      4  C   UNL     1      -8.525  -3.186 127.918  0.00  0.00    +0.000 A 
ATOM      5  C   UNL     1      -7.752  -2.403 127.080  0.00  0.00    +0.000 A 
ATOM      6  C   UNL     1      -6.432  -2.105 127.435  0.00  0.00    +0.000 A 
ATOM      7  C   UNL     1      -5.902  -2.589 128.635  0.00  0.00    +0.000 A 
BRANCH   2   8
ATOM      8  C   UNL     1      -6.057  -3.938 130.748  0.00  0.00    +0.000 C 
BRANCH   8   9
ATOM      9  C   UNL     1      -5.485  -2.867 131.669  0.00  0.00    +0.000 C 
BRANCH   9  11
ATOM     10  C   UNL     1      -7.287  -3.094 133.110  0.00  0.00    +0.000 C 
ATOM     11  O   UNL     1      -5.865  -3.072 133.026  0.00  0.00    +0.000 OA
ENDBRANCH   9  11
ENDBRANCH   8   9
ENDBRANCH   2   8
ENDBRANCH   1   5
BRANCH   1  12
ATOM     12  C   UNL     1      -9.377  -2.876 125.436  0.00  0.00    +0.000 C 
BRANCH  12  13
ATOM     13  C   UNL     1      -9.088  -3.137 123.955  0.00  0.00    +0.000 C 
BRANCH  13  14
ATOM     14  O   UNL     1     -10.263  -3.587 123.264  0.00  0.00    +0.000 OA
ATOM     15  H   UNL     1     -10.788  -2.807 123.022  0.00  0.00    +0.000 HD
ENDBRANCH  13  14
BRANCH  13  16
ATOM     16  C   UNL     1      -8.594  -1.829 123.327  0.00  0.00    +0.000 C 
BRANCH  16  17
ATOM     17  N   UNL     1      -9.673  -0.846 123.226  0.00  0.00    +0.000 NA
ATOM     18  H   UNL     1     -10.353  -1.028 123.969  0.00  0.00    +0.000 HD
BRANCH  17  19
ATOM     19  C   UNL     1      -9.186   0.535 123.282  0.00  0.00    +0.000 C 
ATOM     20  C   UNL     1      -9.910   1.335 124.367  0.00  0.00    +0.000 C 
ATOM     21  C   UNL     1      -7.687   0.516 123.586  0.00  0.00    +0.000 C 
ENDBRANCH  17  19
ENDBRANCH  16  17
ENDBRANCH  13  16
ENDBRANCH  12  13
ENDBRANCH   1  12
TORSDOF 10
ENDMDL
MODEL 8
REMARK VINA RESULT:      -5.4      8.773     10.251
REMARK  Name = Metoprolol
REMARK  13 active torsions:
REMARK  status: ('A' for Active; 'I' for Inactive)
REMARK    1  A    between atoms: C_1  and  O_2
REMARK    2  A    between atoms: O_2  and  C_3
REMARK    3  A    between atoms: C_3  and  C_4
REMARK    4  A    between atoms: C_4  and  C_5
REMARK    5  A    between atoms: C_8  and  O_9
REMARK    6  A    between atoms: O_9  and  C_10
REMARK    7  A    between atoms: C_10  and  C_11
REMARK    8  A    between atoms: C_11  and  O_12
REMARK    9  A    between atoms: C_11  and  C_13
REMARK   10  A    between atoms: C_13  and  N_14
REMARK   11  A    between atoms: N_14  and  C_15
REMARK   12  A    between atoms: C_15  and  C_16
REMARK   13  A    between atoms: C_15  and  C_17
REMARK                            x       y       z     vdW  Elec       q    Type
REMARK                         _______ _______ _______ _____ _____    ______ ____
ROOT
ATOM      1  O   UNL     1      -9.693   6.865 131.235  0.00  0.00    +0.000 OA
ENDROOT
BRANCH   1   5
ATOM      2  C   UNL     1      -5.822   6.029 132.541  0.00  0.00    +0.000 A 
ATOM      3  C   UNL     1      -6.098   6.718 131.346  0.00  0.00    +0.000 A 
ATOM      4  C   UNL     1      -7.406   7.006 130.974  0.00  0.00    +0.000 A 
ATOM      5  C   UNL     1      -8.465   6.561 131.745  0.00  0.00    +0.000 A 
ATOM      6  C   UNL     1      -8.212   5.859 132.928  0.00  0.00    +0.000 A 
ATOM      7  C   UNL     1      -6.896   5.602 133.324  0.00  0.00    +0.000 A 
BRANCH   2   8
ATOM      8  C   UNL     1      -4.409   5.806 133.034  0.00  0.00    +0.000 C 
BRANCH   8   9
ATOM      9  C   UNL     1      -3.461   5.357 131.928  0.00  0.00    +0.000 C 
BRANCH   9  11
ATOM     10  C   UNL     1      -2.596   3.474 132.970  0.00  0.00    +0.000 C 
ATOM     11  O   UNL     1      -3.357   3.939 131.858  0.00  0.00    +0.000 OA
ENDBRANCH   9  11
ENDBRANCH   8   9
ENDBRANCH   2   8
ENDBRANCH   1   5
BRANCH   1  12
ATOM     12  C   UNL     1     -10.715   5.906 131.471  0.00  0.00    +0.000 C 
BRANCH  12  13
ATOM     13  C   UNL     1     -11.135   5.281 130.137  0.00  0.00    +0.000 C 
BRANCH  13  14
ATOM     14  O   UNL     1     -11.522   3.907 130.301  0.00  0.00    +0.000 OA
ATOM     15  H   UNL     1     -12.104   3.668 129.562  0.00  0.00    +0.000 HD
ENDBRANCH  13  14
BRANCH  13  16
ATOM     16  C   UNL     1     -12.319   6.084 129.585  0.00  0.00    +0.000 C 
BRANCH  16  17
ATOM     17  N   UNL     1     -12.033   6.603 128.247  0.00  0.00    +0.000 NA
ATOM     18  H   UNL     1     -12.741   6.247 127.600  0.00  0.00    +0.000 HD
BRANCH  17  19
ATOM     19  C   UNL     1     -11.971   8.066 128.211  0.00  0.00    +0.000 C 
ATOM     20  C   UNL     1     -12.628   8.681 129.449  0.00  0.00    +0.000 C 
ATOM     21  C   UNL     1     -10.504   8.494 128.154  0.00  0.00    +0.000 C 
ENDBRANCH  17  19
ENDBRANCH  16  17
ENDBRANCH  13  16
ENDBRANCH  12  13
ENDBRANCH   1  12
TORSDOF 10
ENDMDL
MODEL 9
REMARK VINA RESULT:      -5.4      9.115     10.111
REMARK  Name = Metoprolol
REMARK  13 active torsions:
REMARK  status: ('A' for Active; 'I' for Inactive)
REMARK    1  A    between atoms: C_1  and  O_2
REMARK    2  A    between atoms: O_2  and  C_3
REMARK    3  A    between atoms: C_3  and  C_4
REMARK    4  A    between atoms: C_4  and  C_5
REMARK    5  A    between atoms: C_8  and  O_9
REMARK    6  A    between atoms: O_9  and  C_10
REMARK    7  A    between atoms: C_10  and  C_11
REMARK    8  A    between atoms: C_11  and  O_12
REMARK    9  A    between atoms: C_11  and  C_13
REMARK   10  A    between atoms: C_13  and  N_14
REMARK   11  A    between atoms: N_14  and  C_15
REMARK   12  A    between atoms: C_15  and  C_16
REMARK   13  A    between atoms: C_15  and  C_17
REMARK                            x       y       z     vdW  Elec       q    Type
REMARK                         _______ _______ _______ _____ _____    ______ ____
ROOT
ATOM      1  O   UNL     1      -9.615   6.390 132.197  0.00  0.00    +0.000 OA
ENDROOT
BRANCH   1   5
ATOM      2  C   UNL     1      -5.453   6.157 132.101  0.00  0.00    +0.000 A 
ATOM      3  C   UNL     1      -6.211   6.783 131.096  0.00  0.00    +0.000 A 
ATOM      4  C   UNL     1      -7.595   6.868 131.193  0.00  0.00    +0.000 A 
ATOM      5  C   UNL     1      -8.257   6.278 132.255  0.00  0.00    +0.000 A 
ATOM      6  C   UNL     1      -7.522   5.636 133.257  0.00  0.00    +0.000 A 
ATOM      7  C   UNL     1      -6.127   5.582 133.180  0.00  0.00    +0.000 A 
BRANCH   2   8
ATOM      8  C   UNL     1      -3.940   6.153 132.085  0.00  0.00    +0.000 C 
BRANCH   8   9
ATOM      9  C   UNL     1      -3.350   7.492 131.657  0.00  0.00    +0.000 C 
BRANCH   9  11
ATOM     10  C   UNL     1      -2.385   6.208 129.985  0.00  0.00    +0.000 C 
ATOM     11  O   UNL     1      -2.941   7.484 130.294  0.00  0.00    +0.000 OA
ENDBRANCH   9  11
ENDBRANCH   8   9
ENDBRANCH   2   8
ENDBRANCH   1   5
BRANCH   1  12
ATOM     12  C   UNL     1     -10.293   5.342 131.517  0.00  0.00    +0.000 C 
BRANCH  12  13
ATOM     13  C   UNL     1     -11.524   5.916 130.808  0.00  0.00    +0.000 C 
BRANCH  13  14
ATOM     14  O   UNL     1     -12.491   6.404 131.750  0.00  0.00    +0.000 OA
ATOM     15  H   UNL     1     -12.646   7.344 131.563  0.00  0.00    +0.000 HD
ENDBRANCH  13  14
BRANCH  13  16
ATOM     16  C   UNL     1     -11.062   7.065 129.905  0.00  0.00    +0.000 C 
BRANCH  16  17
ATOM     17  N   UNL     1     -12.075   8.117 129.820  0.00  0.00    +0.000 NA
ATOM     18  H   UNL     1     -11.742   8.935 130.337  0.00  0.00    +0.000 HD
BRANCH  17  19
ATOM     19  C   UNL     1     -12.414   8.465 128.438  0.00  0.00    +0.000 C 
ATOM     20  C   UNL     1     -11.226   8.233 127.501  0.00  0.00    +0.000 C 
ATOM     21  C   UNL     1     -13.589   7.598 127.986  0.00  0.00    +0.000 C 
ENDBRANCH  17  19
ENDBRANCH  16  17
ENDBRANCH  13  16
ENDBRANCH  12  13
ENDBRANCH   1  12
TORSDOF 10
ENDMDL
