MODEL 1
REMARK VINA RESULT:      -6.4      0.000      0.000
REMARK  Name = Metoclopramide
REMARK  11 active torsions:
REMARK  status: ('A' for Active; 'I' for Inactive)
REMARK    1  A    between atoms: C_1  and  C_2
REMARK    2  A    between atoms: C_2  and  N_3
REMARK    3  A    between atoms: N_3  and  C_4
REMARK    4  A    between atoms: N_3  and  C_6
REMARK    5  A    between atoms: C_4  and  C_5
REMARK    6  A    between atoms: C_6  and  C_7
REMARK    7  A    between atoms: C_7  and  N_8
REMARK    8  A    between atoms: C_9  and  C_11
REMARK    9  A    between atoms: C_15  and  N_16
REMARK   10  A    between atoms: C_18  and  O_19
REMARK   11  A    between atoms: O_19  and  C_20
REMARK                            x       y       z     vdW  Elec       q    Type
REMARK                         _______ _______ _______ _____ _____    ______ ____
ROOT
ATOM      1  C   UNL     1      -8.076   3.139 122.340  0.00  0.00    +0.000 A 
ATOM      2  C   UNL     1      -8.910   3.399 121.237  0.00  0.00    +0.000 A 
ATOM      3  C   UNL     1      -8.381   3.969 120.073  0.00  0.00    +0.000 A 
ATOM      4 CL   UNL     1      -9.443   4.292 118.745  0.00  0.00    +0.000 Cl
ATOM      5  C   UNL     1      -7.015   4.272 119.975  0.00  0.00    +0.000 A 
ATOM      6  C   UNL     1      -6.198   4.000 121.077  0.00  0.00    +0.000 A 
ATOM      7  C   UNL     1      -6.705   3.430 122.257  0.00  0.00    +0.000 A 
ENDROOT
BRANCH   1   9
ATOM      8  N   UNL     1      -8.793   1.124 123.553  0.00  0.00    +0.000 N 
ATOM      9  C   UNL     1      -8.701   2.507 123.542  0.00  0.00    +0.000 C 
ATOM     10  O   UNL     1      -9.060   3.212 124.471  0.00  0.00    +0.000 OA
ATOM     11  H   UNL     1      -8.476   0.601 122.748  0.00  0.00    +0.000 HD
BRANCH   8  12
ATOM     12  C   UNL     1      -9.397   0.434 124.682  0.00  0.00    +0.000 C 
BRANCH  12  13
ATOM     13  C   UNL     1      -8.419  -0.443 125.502  0.00  0.00    +0.000 C 
BRANCH  13  14
ATOM     14  N   UNL     1      -8.809  -1.885 125.613  0.00  0.00    +0.000 NA
BRANCH  14  16
ATOM     15  C   UNL     1      -9.456  -3.192 123.518  0.00  0.00    +0.000 C 
ATOM     16  C   UNL     1      -8.355  -2.599 124.397  0.00  0.00    +0.000 C 
ENDBRANCH  14  16
BRANCH  14  17
ATOM     17  C   UNL     1      -8.265  -2.453 126.866  0.00  0.00    +0.000 C 
ATOM     18  C   UNL     1      -8.921  -3.721 127.390  0.00  0.00    +0.000 C 
ENDBRANCH  14  17
ENDBRANCH  13  14
ENDBRANCH  12  13
ENDBRANCH   8  12
ENDBRANCH   1   9
BRANCH   5  19
ATOM     19  N   UNL     1      -6.464   4.911 118.868  0.00  0.00    +0.000 N 
ATOM     20  H   UNL     1      -5.645   5.494 119.000  0.00  0.00    +0.000 HD
ATOM     21  H   UNL     1      -6.974   4.991 117.999  0.00  0.00    +0.000 HD
ENDBRANCH   5  19
BRANCH   7  22
ATOM     22  O   UNL     1      -5.923   3.122 123.341  0.00  0.00    +0.000 OA
ATOM     23  C   UNL     1      -5.505   4.208 124.164  0.00  0.00    +0.000 C 
ENDBRANCH   7  22
TORSDOF 8
ENDMDL
MODEL 2
REMARK VINA RESULT:      -6.4      1.496      1.958
REMARK  Name = Metoclopramide
REMARK  11 active torsions:
REMARK  status: ('A' for Active; 'I' for Inactive)
REMARK    1  A    between atoms: C_1  and  C_2
REMARK    2  A    between atoms: C_2  and  N_3
REMARK    3  A    between atoms: N_3  and  C_4
REMARK    4  A    between atoms: N_3  and  C_6
REMARK    5  A    between atoms: C_4  and  C_5
REMARK    6  A    between atoms: C_6  and  C_7
REMARK    7  A    between atoms: C_7  and  N_8
REMARK    8  A    between atoms: C_9  and  C_11
REMARK    9  A    between atoms: C_15  and  N_16
REMARK   10  A    between atoms: C_18  and  O_19
REMARK   11  A    between atoms: O_19  and  C_20
REMARK                            x       y       z     vdW  Elec       q    Type
REMARK                         _______ _______ _______ _____ _____    ______ ____
ROOT
ATOM      1  C   UNL     1      -7.320   3.234 122.308  0.00  0.00    +0.000 A 
ATOM      2  C   UNL     1      -7.848   3.434 121.019  0.00  0.00    +0.000 A 
ATOM      3  C   UNL     1      -7.115   4.142 120.060  0.00  0.00    +0.000 A 
ATOM      4 CL   UNL     1      -7.807   4.384 118.492  0.00  0.00    +0.000 Cl
ATOM      5  C   UNL     1      -5.840   4.645 120.354  0.00  0.00    +0.000 A 
ATOM      6  C   UNL     1      -5.326   4.431 121.637  0.00  0.00    +0.000 A 
ATOM      7  C   UNL     1      -6.043   3.726 122.618  0.00  0.00    +0.000 A 
ENDROOT
BRANCH   1   9
ATOM      8  N   UNL     1      -7.761   1.139 123.518  0.00  0.00    +0.000 N 
ATOM      9  C   UNL     1      -8.146   2.449 123.276  0.00  0.00    +0.000 C 
ATOM     10  O   UNL     1      -9.082   2.990 123.842  0.00  0.00    +0.000 OA
ATOM     11  H   UNL     1      -6.974   0.754 123.013  0.00  0.00    +0.000 HD
BRANCH   8  12
ATOM     12  C   UNL     1      -8.518   0.306 124.439  0.00  0.00    +0.000 C 
BRANCH  12  13
ATOM     13  C   UNL     1      -7.824  -1.022 124.828  0.00  0.00    +0.000 C 
BRANCH  13  14
ATOM     14  N   UNL     1      -7.361  -1.853 123.670  0.00  0.00    +0.000 NA
BRANCH  14  16
ATOM     15  C   UNL     1      -5.163  -3.149 123.584  0.00  0.00    +0.000 C 
ATOM     16  C   UNL     1      -6.558  -2.987 124.186  0.00  0.00    +0.000 C 
ENDBRANCH  14  16
BRANCH  14  17
ATOM     17  C   UNL     1      -8.525  -2.275 122.863  0.00  0.00    +0.000 C 
ATOM     18  C   UNL     1      -9.471  -3.287 123.493  0.00  0.00    +0.000 C 
ENDBRANCH  14  17
ENDBRANCH  13  14
ENDBRANCH  12  13
ENDBRANCH   8  12
ENDBRANCH   1   9
BRANCH   5  19
ATOM     19  N   UNL     1      -5.112   5.422 119.457  0.00  0.00    +0.000 N 
ATOM     20  H   UNL     1      -4.799   5.001 118.589  0.00  0.00    +0.000 HD
ATOM     21  H   UNL     1      -4.704   6.304 119.735  0.00  0.00    +0.000 HD
ENDBRANCH   5  19
BRANCH   7  22
ATOM     22  O   UNL     1      -5.551   3.473 123.874  0.00  0.00    +0.000 OA
ATOM     23  C   UNL     1      -5.645   4.527 124.827  0.00  0.00    +0.000 C 
ENDBRANCH   7  22
TORSDOF 8
ENDMDL
MODEL 3
REMARK VINA RESULT:      -6.2      2.074      3.002
REMARK  Name = Metoclopramide
REMARK  11 active torsions:
REMARK  status: ('A' for Active; 'I' for Inactive)
REMARK    1  A    between atoms: C_1  and  C_2
REMARK    2  A    between atoms: C_2  and  N_3
REMARK    3  A    between atoms: N_3  and  C_4
REMARK    4  A    between atoms: N_3  and  C_6
REMARK    5  A    between atoms: C_4  and  C_5
REMARK    6  A    between atoms: C_6  and  C_7
REMARK    7  A    between atoms: C_7  and  N_8
REMARK    8  A    between atoms: C_9  and  C_11
REMARK    9  A    between atoms: C_15  and  N_16
REMARK   10  A    between atoms: C_18  and  O_19
REMARK   11  A    between atoms: O_19  and  C_20
REMARK                            x       y       z     vdW  Elec       q    Type
REMARK                         _______ _______ _______ _____ _____    ______ ____
ROOT
ATOM      1  C   UNL     1      -7.130   2.857 122.656  0.00  0.00    +0.000 A 
ATOM      2  C   UNL     1      -6.200   3.511 121.827  0.00  0.00    +0.000 A 
ATOM      3  C   UNL     1      -6.612   4.075 120.614  0.00  0.00    +0.000 A 
ATOM      4 CL   UNL     1      -5.435   4.854 119.613  0.00  0.00    +0.000 Cl
ATOM      5  C   UNL     1      -7.954   4.019 120.212  0.00  0.00    +0.000 A 
ATOM      6  C   UNL     1      -8.868   3.371 121.051  0.00  0.00    +0.000 A 
ATOM      7  C   UNL     1      -8.479   2.796 122.272  0.00  0.00    +0.000 A 
ENDROOT
BRANCH   1   9
ATOM      8  N   UNL     1      -6.794   0.937 124.155  0.00  0.00    +0.000 N 
ATOM      9  C   UNL     1      -6.626   2.298 123.948  0.00  0.00    +0.000 C 
ATOM     10  O   UNL     1      -6.057   3.033 124.738  0.00  0.00    +0.000 OA
ATOM     11  H   UNL     1      -7.276   0.387 123.457  0.00  0.00    +0.000 HD
BRANCH   8  12
ATOM     12  C   UNL     1      -6.341   0.318 125.391  0.00  0.00    +0.000 C 
BRANCH  12  13
ATOM     13  C   UNL     1      -5.822  -1.133 125.234  0.00  0.00    +0.000 C 
BRANCH  13  14
ATOM     14  N   UNL     1      -6.540  -1.950 124.205  0.00  0.00    +0.000 NA
BRANCH  14  16
ATOM     15  C   UNL     1      -4.811  -3.793 123.846  0.00  0.00    +0.000 C 
ATOM     16  C   UNL     1      -5.540  -2.567 123.301  0.00  0.00    +0.000 C 
ENDBRANCH  14  16
BRANCH  14  17
ATOM     17  C   UNL     1      -7.415  -2.937 124.874  0.00  0.00    +0.000 C 
ATOM     18  C   UNL     1      -8.658  -3.380 124.118  0.00  0.00    +0.000 C 
ENDBRANCH  14  17
ENDBRANCH  13  14
ENDBRANCH  12  13
ENDBRANCH   8  12
ENDBRANCH   1   9
BRANCH   5  19
ATOM     19  N   UNL     1      -8.391   4.495 118.980  0.00  0.00    +0.000 N 
ATOM     20  H   UNL     1      -8.731   3.831 118.293  0.00  0.00    +0.000 HD
ATOM     21  H   UNL     1      -8.177   5.434 118.672  0.00  0.00    +0.000 HD
ENDBRANCH   5  19
BRANCH   7  22
ATOM     22  O   UNL     1      -9.357   2.184 123.130  0.00  0.00    +0.000 OA
ATOM     23  C   UNL     1     -10.035   1.030 122.643  0.00  0.00    +0.000 C 
ENDBRANCH   7  22
TORSDOF 8
ENDMDL
MODEL 4
REMARK VINA RESULT:      -5.6      8.284     10.112
REMARK  Name = Metoclopramide
REMARK  11 active torsions:
REMARK  status: ('A' for Active; 'I' for Inactive)
REMARK    1  A    between atoms: C_1  and  C_2
REMARK    2  A    between atoms: C_2  and  N_3
REMARK    3  A    between atoms: N_3  and  C_4
REMARK    4  A    between atoms: N_3  and  C_6
REMARK    5  A    between atoms: C_4  and  C_5
REMARK    6  A    between atoms: C_6  and  C_7
REMARK    7  A    between atoms: C_7  and  N_8
REMARK    8  A    between atoms: C_9  and  C_11
REMARK    9  A    between atoms: C_15  and  N_16
REMARK   10  A    between atoms: C_18  and  O_19
REMARK   11  A    between atoms: O_19  and  C_20
REMARK                            x       y       z     vdW  Elec       q    Type
REMARK                         _______ _______ _______ _____ _____    ______ ____
ROOT
ATOM      1  C   UNL     1      -8.813   6.567 130.891  0.00  0.00    +0.000 A 
ATOM      2  C   UNL     1      -9.485   7.335 129.922  0.00  0.00    +0.000 A 
ATOM      3  C   UNL     1     -10.866   7.539 130.019  0.00  0.00    +0.000 A 
ATOM      4 CL   UNL     1     -11.660   8.473 128.797  0.00  0.00    +0.000 Cl
ATOM      5  C   UNL     1     -11.600   7.004 131.088  0.00  0.00    +0.000 A 
ATOM      6  C   UNL     1     -10.916   6.250 132.047  0.00  0.00    +0.000 A 
ATOM      7  C   UNL     1      -9.531   6.029 131.971  0.00  0.00    +0.000 A 
ENDROOT
BRANCH   1   9
ATOM      8  N   UNL     1      -6.865   5.146 130.408  0.00  0.00    +0.000 N 
ATOM      9  C   UNL     1      -7.334   6.408 130.739  0.00  0.00    +0.000 C 
ATOM     10  O   UNL     1      -6.610   7.383 130.864  0.00  0.00    +0.000 OA
ATOM     11  H   UNL     1      -7.522   4.382 130.320  0.00  0.00    +0.000 HD
BRANCH   8  12
ATOM     12  C   UNL     1      -5.439   4.907 130.252  0.00  0.00    +0.000 C 
BRANCH  12  13
ATOM     13  C   UNL     1      -4.990   4.598 128.802  0.00  0.00    +0.000 C 
BRANCH  13  14
ATOM     14  N   UNL     1      -3.510   4.464 128.616  0.00  0.00    +0.000 NA
BRANCH  14  16
ATOM     15  C   UNL     1      -2.049   3.127 127.006  0.00  0.00    +0.000 C 
ATOM     16  C   UNL     1      -3.223   3.156 127.983  0.00  0.00    +0.000 C 
ENDBRANCH  14  16
BRANCH  14  17
ATOM     17  C   UNL     1      -2.999   5.616 127.843  0.00  0.00    +0.000 C 
ATOM     18  C   UNL     1      -2.112   6.606 128.584  0.00  0.00    +0.000 C 
ENDBRANCH  14  17
ENDBRANCH  13  14
ENDBRANCH  12  13
ENDBRANCH   8  12
ENDBRANCH   1   9
BRANCH   5  19
ATOM     19  N   UNL     1     -12.985   7.116 131.180  0.00  0.00    +0.000 N 
ATOM     20  H   UNL     1     -13.471   7.712 130.519  0.00  0.00    +0.000 HD
ATOM     21  H   UNL     1     -13.484   6.807 132.002  0.00  0.00    +0.000 HD
ENDBRANCH   5  19
BRANCH   7  22
ATOM     22  O   UNL     1      -8.828   5.322 132.913  0.00  0.00    +0.000 OA
ATOM     23  C   UNL     1      -9.236   3.977 133.145  0.00  0.00    +0.000 C 
ENDBRANCH   7  22
TORSDOF 8
ENDMDL
MODEL 5
REMARK VINA RESULT:      -5.6      1.911      2.853
REMARK  Name = Metoclopramide
REMARK  11 active torsions:
REMARK  status: ('A' for Active; 'I' for Inactive)
REMARK    1  A    between atoms: C_1  and  C_2
REMARK    2  A    between atoms: C_2  and  N_3
REMARK    3  A    between atoms: N_3  and  C_4
REMARK    4  A    between atoms: N_3  and  C_6
REMARK    5  A    between atoms: C_4  and  C_5
REMARK    6  A    between atoms: C_6  and  C_7
REMARK    7  A    between atoms: C_7  and  N_8
REMARK    8  A    between atoms: C_9  and  C_11
REMARK    9  A    between atoms: C_15  and  N_16
REMARK   10  A    between atoms: C_18  and  O_19
REMARK   11  A    between atoms: O_19  and  C_20
REMARK                            x       y       z     vdW  Elec       q    Type
REMARK                         _______ _______ _______ _____ _____    ______ ____
ROOT
ATOM      1  C   UNL     1      -7.203   2.762 123.000  0.00  0.00    +0.000 A 
ATOM      2  C   UNL     1      -6.200   3.394 122.244  0.00  0.00    +0.000 A 
ATOM      3  C   UNL     1      -6.504   3.955 120.999  0.00  0.00    +0.000 A 
ATOM      4 CL   UNL     1      -5.238   4.707 120.090  0.00  0.00    +0.000 Cl
ATOM      5  C   UNL     1      -7.811   3.919 120.492  0.00  0.00    +0.000 A 
ATOM      6  C   UNL     1      -8.799   3.294 121.260  0.00  0.00    +0.000 A 
ATOM      7  C   UNL     1      -8.519   2.721 122.511  0.00  0.00    +0.000 A 
ENDROOT
BRANCH   1   9
ATOM      8  N   UNL     1      -7.039   0.851 124.539  0.00  0.00    +0.000 N 
ATOM      9  C   UNL     1      -6.814   2.203 124.331  0.00  0.00    +0.000 C 
ATOM     10  O   UNL     1      -6.282   2.931 125.154  0.00  0.00    +0.000 OA
ATOM     11  H   UNL     1      -7.486   0.307 123.813  0.00  0.00    +0.000 HD
BRANCH   8  12
ATOM     12  C   UNL     1      -6.697   0.234 125.811  0.00  0.00    +0.000 C 
BRANCH  12  13
ATOM     13  C   UNL     1      -7.859  -0.534 126.490  0.00  0.00    +0.000 C 
BRANCH  13  14
ATOM     14  N   UNL     1      -7.440  -1.722 127.300  0.00  0.00    +0.000 NA
BRANCH  14  16
ATOM     15  C   UNL     1      -9.315  -2.680 125.857  0.00  0.00    +0.000 C 
ATOM     16  C   UNL     1      -8.416  -2.816 127.085  0.00  0.00    +0.000 C 
ENDBRANCH  14  16
BRANCH  14  17
ATOM     17  C   UNL     1      -6.052  -2.095 126.955  0.00  0.00    +0.000 C 
ATOM     18  C   UNL     1      -5.098  -2.348 128.113  0.00  0.00    +0.000 C 
ENDBRANCH  14  17
ENDBRANCH  13  14
ENDBRANCH  12  13
ENDBRANCH   8  12
ENDBRANCH   1   9
BRANCH   5  19
ATOM     19  N   UNL     1      -8.141   4.394 119.226  0.00  0.00    +0.000 N 
ATOM     20  H   UNL     1      -7.770   5.291 118.929  0.00  0.00    +0.000 HD
ATOM     21  H   UNL     1      -8.898   3.990 118.693  0.00  0.00    +0.000 HD
ENDBRANCH   5  19
BRANCH   7  22
ATOM     22  O   UNL     1      -9.473   2.130 123.300  0.00  0.00    +0.000 OA
ATOM     23  C   UNL     1     -10.127   0.981 122.770  0.00  0.00    +0.000 C 
ENDBRANCH   7  22
TORSDOF 8
ENDMDL
MODEL 6
REMARK VINA RESULT:      -5.5      3.616      8.250
REMARK  Name = Metoclopramide
REMARK  11 active torsions:
REMARK  status: ('A' for Active; 'I' for Inactive)
REMARK    1  A    between atoms: C_1  and  C_2
REMARK    2  A    between atoms: C_2  and  N_3
REMARK    3  A    between atoms: N_3  and  C_4
REMARK    4  A    between atoms: N_3  and  C_6
REMARK    5  A    between atoms: C_4  and  C_5
REMARK    6  A    between atoms: C_6  and  C_7
REMARK    7  A    between atoms: C_7  and  N_8
REMARK    8  A    between atoms: C_9  and  C_11
REMARK    9  A    between atoms: C_15  and  N_16
REMARK   10  A    between atoms: C_18  and  O_19
REMARK   11  A    between atoms: O_19  and  C_20
REMARK                            x       y       z     vdW  Elec       q    Type
REMARK                         _______ _______ _______ _____ _____    ______ ____
ROOT
ATOM      1  C   UNL     1      -7.712  -1.554 125.828  0.00  0.00    +0.000 A 
ATOM      2  C   UNL     1      -7.113  -1.794 127.079  0.00  0.00    +0.000 A 
ATOM      3  C   UNL     1      -7.664  -2.737 127.954  0.00  0.00    +0.000 A 
ATOM      4 CL   UNL     1      -6.910  -2.990 129.491  0.00  0.00    +0.000 Cl
ATOM      5  C   UNL     1      -8.803  -3.473 127.597  0.00  0.00    +0.000 A 
ATOM      6  C   UNL     1      -9.382  -3.227 126.347  0.00  0.00    +0.000 A 
ATOM      7  C   UNL     1      -8.849  -2.285 125.452  0.00  0.00    +0.000 A 
ENDROOT
BRANCH   1   9
ATOM      8  N   UNL     1      -7.892   0.301 124.224  0.00  0.00    +0.000 N 
ATOM      9  C   UNL     1      -7.058  -0.550 124.934  0.00  0.00    +0.000 C 
ATOM     10  O   UNL     1      -5.840  -0.485 124.895  0.00  0.00    +0.000 OA
ATOM     11  H   UNL     1      -8.894   0.191 124.303  0.00  0.00    +0.000 HD
BRANCH   8  12
ATOM     12  C   UNL     1      -7.334   1.298 123.324  0.00  0.00    +0.000 C 
BRANCH  12  13
ATOM     13  C   UNL     1      -8.368   2.297 122.747  0.00  0.00    +0.000 C 
BRANCH  13  14
ATOM     14  N   UNL     1      -7.776   3.466 122.020  0.00  0.00    +0.000 NA
BRANCH  14  16
ATOM     15  C   UNL     1      -5.364   4.301 122.013  0.00  0.00    +0.000 C 
ATOM     16  C   UNL     1      -6.354   3.174 121.722  0.00  0.00    +0.000 C 
ENDBRANCH  14  16
BRANCH  14  17
ATOM     17  C   UNL     1      -8.581   3.762 120.816  0.00  0.00    +0.000 C 
ATOM     18  C   UNL     1      -7.820   4.131 119.551  0.00  0.00    +0.000 C 
ENDBRANCH  14  17
ENDBRANCH  13  14
ENDBRANCH  12  13
ENDBRANCH   8  12
ENDBRANCH   1   9
BRANCH   5  19
ATOM     19  N   UNL     1      -9.428  -4.361 128.467  0.00  0.00    +0.000 N 
ATOM     20  H   UNL     1      -9.114  -4.403 129.430  0.00  0.00    +0.000 HD
ATOM     21  H   UNL     1     -10.019  -5.106 128.124  0.00  0.00    +0.000 HD
ENDBRANCH   5  19
BRANCH   7  22
ATOM     22  O   UNL     1      -9.376  -2.046 124.208  0.00  0.00    +0.000 OA
ATOM     23  C   UNL     1      -9.511  -3.167 123.339  0.00  0.00    +0.000 C 
ENDBRANCH   7  22
TORSDOF 8
ENDMDL
MODEL 7
REMARK VINA RESULT:      -5.3      4.615      5.646
REMARK  Name = Metoclopramide
REMARK  11 active torsions:
REMARK  status: ('A' for Active; 'I' for Inactive)
REMARK    1  A    between atoms: C_1  and  C_2
REMARK    2  A    between atoms: C_2  and  N_3
REMARK    3  A    between atoms: N_3  and  C_4
REMARK    4  A    between atoms: N_3  and  C_6
REMARK    5  A    between atoms: C_4  and  C_5
REMARK    6  A    between atoms: C_6  and  C_7
REMARK    7  A    between atoms: C_7  and  N_8
REMARK    8  A    between atoms: C_9  and  C_11
REMARK    9  A    between atoms: C_15  and  N_16
REMARK   10  A    between atoms: C_18  and  O_19
REMARK   11  A    between atoms: O_19  and  C_20
REMARK                            x       y       z     vdW  Elec       q    Type
REMARK                         _______ _______ _______ _____ _____    ______ ____
ROOT
ATOM      1  C   UNL     1      -5.303   2.945 126.323  0.00  0.00    +0.000 A 
ATOM      2  C   UNL     1      -3.950   2.567 126.238  0.00  0.00    +0.000 A 
ATOM      3  C   UNL     1      -2.957   3.374 126.804  0.00  0.00    +0.000 A 
ATOM      4 CL   UNL     1      -1.303   2.885 126.661  0.00  0.00    +0.000 Cl
ATOM      5  C   UNL     1      -3.287   4.557 127.481  0.00  0.00    +0.000 A 
ATOM      6  C   UNL     1      -4.637   4.915 127.564  0.00  0.00    +0.000 A 
ATOM      7  C   UNL     1      -5.653   4.123 127.003  0.00  0.00    +0.000 A 
ENDROOT
BRANCH   1   9
ATOM      8  N   UNL     1      -7.036   1.221 126.587  0.00  0.00    +0.000 N 
ATOM      9  C   UNL     1      -6.314   2.026 125.718  0.00  0.00    +0.000 C 
ATOM     10  O   UNL     1      -6.497   2.047 124.512  0.00  0.00    +0.000 OA
ATOM     11  H   UNL     1      -6.832   1.255 127.576  0.00  0.00    +0.000 HD
BRANCH   8  12
ATOM     12  C   UNL     1      -8.032   0.292 126.075  0.00  0.00    +0.000 C 
BRANCH  12  13
ATOM     13  C   UNL     1      -7.675  -1.203 126.260  0.00  0.00    +0.000 C 
BRANCH  13  14
ATOM     14  N   UNL     1      -7.553  -1.983 124.987  0.00  0.00    +0.000 NA
BRANCH  14  16
ATOM     15  C   UNL     1      -9.329  -3.126 123.553  0.00  0.00    +0.000 C 
ATOM     16  C   UNL     1      -8.816  -1.852 124.222  0.00  0.00    +0.000 C 
ENDBRANCH  14  16
BRANCH  14  17
ATOM     17  C   UNL     1      -6.362  -1.531 124.237  0.00  0.00    +0.000 C 
ATOM     18  C   UNL     1      -5.542  -2.602 123.533  0.00  0.00    +0.000 C 
ENDBRANCH  14  17
ENDBRANCH  13  14
ENDBRANCH  12  13
ENDBRANCH   8  12
ENDBRANCH   1   9
BRANCH   5  19
ATOM     19  N   UNL     1      -2.327   5.427 127.988  0.00  0.00    +0.000 N 
ATOM     20  H   UNL     1      -2.181   5.463 128.991  0.00  0.00    +0.000 HD
ATOM     21  H   UNL     1      -1.936   6.167 127.421  0.00  0.00    +0.000 HD
ENDBRANCH   5  19
BRANCH   7  22
ATOM     22  O   UNL     1      -6.986   4.431 127.096  0.00  0.00    +0.000 OA
ATOM     23  C   UNL     1      -7.588   4.308 128.381  0.00  0.00    +0.000 C 
ENDBRANCH   7  22
TORSDOF 8
ENDMDL
MODEL 8
REMARK VINA RESULT:      -5.3      3.760      6.103
REMARK  Name = Metoclopramide
REMARK  11 active torsions:
REMARK  status: ('A' for Active; 'I' for Inactive)
REMARK    1  A    between atoms: C_1  and  C_2
REMARK    2  A    between atoms: C_2  and  N_3
REMARK    3  A    between atoms: N_3  and  C_4
REMARK    4  A    between atoms: N_3  and  C_6
REMARK    5  A    between atoms: C_4  and  C_5
REMARK    6  A    between atoms: C_6  and  C_7
REMARK    7  A    between atoms: C_7  and  N_8
REMARK    8  A    between atoms: C_9  and  C_11
REMARK    9  A    between atoms: C_15  and  N_16
REMARK   10  A    between atoms: C_18  and  O_19
REMARK   11  A    between atoms: O_19  and  C_20
REMARK                            x       y       z     vdW  Elec       q    Type
REMARK                         _______ _______ _______ _____ _____    ______ ____
ROOT
ATOM      1  C   UNL     1      -6.894   3.837 124.730  0.00  0.00    +0.000 A 
ATOM      2  C   UNL     1      -5.768   4.315 124.035  0.00  0.00    +0.000 A 
ATOM      3  C   UNL     1      -5.696   4.197 122.643  0.00  0.00    +0.000 A 
ATOM      4 CL   UNL     1      -4.285   4.779 121.827  0.00  0.00    +0.000 Cl
ATOM      5  C   UNL     1      -6.747   3.622 121.913  0.00  0.00    +0.000 A 
ATOM      6  C   UNL     1      -7.863   3.159 122.618  0.00  0.00    +0.000 A 
ATOM      7  C   UNL     1      -7.958   3.264 124.015  0.00  0.00    +0.000 A 
ENDROOT
BRANCH   1   9
ATOM      8  N   UNL     1      -6.212   3.093 126.972  0.00  0.00    +0.000 N 
ATOM      9  C   UNL     1      -6.916   4.016 126.214  0.00  0.00    +0.000 C 
ATOM     10  O   UNL     1      -7.501   4.974 126.694  0.00  0.00    +0.000 OA
ATOM     11  H   UNL     1      -5.749   2.323 126.508  0.00  0.00    +0.000 HD
BRANCH   8  12
ATOM     12  C   UNL     1      -6.192   3.193 128.423  0.00  0.00    +0.000 C 
BRANCH  12  13
ATOM     13  C   UNL     1      -4.781   3.362 129.039  0.00  0.00    +0.000 C 
BRANCH  13  14
ATOM     14  N   UNL     1      -3.821   4.155 128.207  0.00  0.00    +0.000 NA
BRANCH  14  16
ATOM     15  C   UNL     1      -3.256   6.640 128.064  0.00  0.00    +0.000 C 
ATOM     16  C   UNL     1      -3.475   5.401 128.931  0.00  0.00    +0.000 C 
ENDBRANCH  14  16
BRANCH  14  17
ATOM     17  C   UNL     1      -2.646   3.322 127.873  0.00  0.00    +0.000 C 
ATOM     18  C   UNL     1      -2.151   3.373 126.435  0.00  0.00    +0.000 C 
ENDBRANCH  14  17
ENDBRANCH  13  14
ENDBRANCH  12  13
ENDBRANCH   8  12
ENDBRANCH   1   9
BRANCH   5  19
ATOM     19  N   UNL     1      -6.682   3.413 120.539  0.00  0.00    +0.000 N 
ATOM     20  H   UNL     1      -6.671   2.461 120.190  0.00  0.00    +0.000 HD
ATOM     21  H   UNL     1      -6.426   4.157 119.905  0.00  0.00    +0.000 HD
ENDBRANCH   5  19
BRANCH   7  22
ATOM     22  O   UNL     1      -9.053   2.849 124.729  0.00  0.00    +0.000 OA
ATOM     23  C   UNL     1      -9.730   1.688 124.254  0.00  0.00    +0.000 C 
ENDBRANCH   7  22
TORSDOF 8
ENDMDL
MODEL 9
REMARK VINA RESULT:      -5.3      7.649     10.127
REMARK  Name = Metoclopramide
REMARK  11 active torsions:
REMARK  status: ('A' for Active; 'I' for Inactive)
REMARK    1  A    between atoms: C_1  and  C_2
REMARK    2  A    between atoms: C_2  and  N_3
REMARK    3  A    between atoms: N_3  and  C_4
REMARK    4  A    between atoms: N_3  and  C_6
REMARK    5  A    between atoms: C_4  and  C_5
REMARK    6  A    between atoms: C_6  and  C_7
REMARK    7  A    between atoms: C_7  and  N_8
REMARK    8  A    between atoms: C_9  and  C_11
REMARK    9  A    between atoms: C_15  and  N_16
REMARK   10  A    between atoms: C_18  and  O_19
REMARK   11  A    between atoms: O_19  and  C_20
REMARK                            x       y       z     vdW  Elec       q    Type
REMARK                         _______ _______ _______ _____ _____    ______ ____
ROOT
ATOM      1  C   UNL     1      -9.246   3.214 130.446  0.00  0.00    +0.000 A 
ATOM      2  C   UNL     1      -9.235   2.144 131.360  0.00  0.00    +0.000 A 
ATOM      3  C   UNL     1      -8.675   0.914 130.998  0.00  0.00    +0.000 A 
ATOM      4 CL   UNL     1      -8.698  -0.384 132.142  0.00  0.00    +0.000 Cl
ATOM      5  C   UNL     1      -8.097   0.729 129.733  0.00  0.00    +0.000 A 
ATOM      6  C   UNL     1      -8.109   1.805 128.839  0.00  0.00    +0.000 A 
ATOM      7  C   UNL     1      -8.667   3.049 129.178  0.00  0.00    +0.000 A 
ENDROOT
BRANCH   1   9
ATOM      8  N   UNL     1     -10.709   5.148 130.037  0.00  0.00    +0.000 N 
ATOM      9  C   UNL     1      -9.839   4.507 130.906  0.00  0.00    +0.000 C 
ATOM     10  O   UNL     1      -9.579   4.921 132.025  0.00  0.00    +0.000 OA
ATOM     11  H   UNL     1     -10.879   4.747 129.124  0.00  0.00    +0.000 HD
BRANCH   8  12
ATOM     12  C   UNL     1     -11.320   6.415 130.406  0.00  0.00    +0.000 C 
BRANCH  12  13
ATOM     13  C   UNL     1     -10.742   7.649 129.671  0.00  0.00    +0.000 C 
BRANCH  13  14
ATOM     14  N   UNL     1     -11.753   8.474 128.936  0.00  0.00    +0.000 NA
BRANCH  14  16
ATOM     15  C   UNL     1     -13.757   7.317 127.859  0.00  0.00    +0.000 C 
ATOM     16  C   UNL     1     -12.276   7.686 127.795  0.00  0.00    +0.000 C 
ENDBRANCH  14  16
BRANCH  14  17
ATOM     17  C   UNL     1     -12.805   8.923 129.872  0.00  0.00    +0.000 C 
ATOM     18  C   UNL     1     -13.208  10.389 129.807  0.00  0.00    +0.000 C 
ENDBRANCH  14  17
ENDBRANCH  13  14
ENDBRANCH  12  13
ENDBRANCH   8  12
ENDBRANCH   1   9
BRANCH   5  19
ATOM     19  N   UNL     1      -7.602  -0.498 129.305  0.00  0.00    +0.000 N 
ATOM     20  H   UNL     1      -6.741  -0.517 128.768  0.00  0.00    +0.000 HD
ATOM     21  H   UNL     1      -8.174  -1.331 129.318  0.00  0.00    +0.000 HD
ENDBRANCH   5  19
BRANCH   7  22
ATOM     22  O   UNL     1      -8.664   4.131 128.335  0.00  0.00    +0.000 OA
ATOM     23  C   UNL     1      -7.694   4.132 127.291  0.00  0.00    +0.000 C 
ENDBRANCH   7  22
TORSDOF 8
ENDMDL
