MODEL 1
REMARK VINA RESULT:      -7.5      0.000      0.000
REMARK  Name = Metolazone
REMARK  5 active torsions:
REMARK  status: ('A' for Active; 'I' for Inactive)
REMARK    1  A    between atoms: C_1  and  C_2
REMARK    2  A    between atoms: C_8  and  S_21
REMARK    3  A    between atoms: N_13  and  C_14
REMARK    4  A    between atoms: C_19  and  C_20
REMARK    5  A    between atoms: S_21  and  N_22
REMARK                            x       y       z     vdW  Elec       q    Type
REMARK                         _______ _______ _______ _____ _____    ______ ____
ROOT
ATOM      1  C   UNL     1      -6.837  -0.104 130.920  0.00  0.00    +0.000 C 
ATOM      2  C   UNL     1      -7.534  -0.630 129.670  0.00  0.00    +0.000 C 
ATOM      3  N   UNL     1      -7.108   0.117 128.487  0.00  0.00    +0.000 N 
ATOM      4  C   UNL     1      -7.566  -0.299 127.245  0.00  0.00    +0.000 A 
ATOM      5  C   UNL     1      -7.476   0.524 126.112  0.00  0.00    +0.000 A 
ATOM      6  C   UNL     1      -7.954   0.101 124.855  0.00  0.00    +0.000 A 
ATOM      7 CL   UNL     1      -7.809   1.225 123.548  0.00  0.00    +0.000 Cl
ATOM      8  C   UNL     1      -8.536  -1.163 124.725  0.00  0.00    +0.000 A 
ATOM      9  C   UNL     1      -8.650  -1.992 125.852  0.00  0.00    +0.000 A 
ATOM     10  C   UNL     1      -8.174  -1.554 127.099  0.00  0.00    +0.000 A 
ATOM     11  C   UNL     1      -8.163  -2.478 128.275  0.00  0.00    +0.000 C 
ATOM     12  O   UNL     1      -8.766  -3.544 128.222  0.00  0.00    +0.000 OA
ATOM     13  N   UNL     1      -7.401  -2.042 129.360  0.00  0.00    +0.000 N 
ATOM     14  H   UNL     1      -6.522   0.935 128.591  0.00  0.00    +0.000 HD
ENDROOT
BRANCH  13  15
ATOM     15  C   UNL     1      -6.553  -2.939 130.091  0.00  0.00    +0.000 A 
ATOM     16  C   UNL     1      -6.949  -3.456 131.334  0.00  0.00    +0.000 A 
ATOM     17  C   UNL     1      -6.053  -4.134 132.171  0.00  0.00    +0.000 A 
ATOM     18  C   UNL     1      -4.780  -4.442 131.717  0.00  0.00    +0.000 A 
ATOM     19  C   UNL     1      -4.407  -4.061 130.432  0.00  0.00    +0.000 A 
ATOM     20  C   UNL     1      -5.251  -3.255 129.637  0.00  0.00    +0.000 A 
ATOM     21  C   UNL     1      -4.665  -2.653 128.390  0.00  0.00    +0.000 C 
ENDBRANCH  13  15
BRANCH   8  22
ATOM     22  S   UNL     1      -9.098  -1.776 123.155  0.00  0.00    +0.000 S 
ATOM     23  O   UNL     1     -10.119  -0.879 122.657  0.00  0.00    +0.000 OA
ATOM     24  O   UNL     1      -7.943  -2.131 122.370  0.00  0.00    +0.000 OA
BRANCH  22  25
ATOM     25  N   UNL     1      -9.831  -3.215 123.568  0.00  0.00    +0.000 NA
ATOM     26  H   UNL     1      -9.863  -3.922 122.838  0.00  0.00    +0.000 HD
ATOM     27  H   UNL     1     -10.564  -3.163 124.270  0.00  0.00    +0.000 HD
ENDBRANCH  22  25
ENDBRANCH   8  22
TORSDOF 3
ENDMDL
MODEL 2
REMARK VINA RESULT:      -7.5      7.689      9.213
REMARK  Name = Metolazone
REMARK  5 active torsions:
REMARK  status: ('A' for Active; 'I' for Inactive)
REMARK    1  A    between atoms: C_1  and  C_2
REMARK    2  A    between atoms: C_8  and  S_21
REMARK    3  A    between atoms: N_13  and  C_14
REMARK    4  A    between atoms: C_19  and  C_20
REMARK    5  A    between atoms: S_21  and  N_22
REMARK                            x       y       z     vdW  Elec       q    Type
REMARK                         _______ _______ _______ _____ _____    ______ ____
ROOT
ATOM      1  C   UNL     1      -6.608   4.263 133.499  0.00  0.00    +0.000 C 
ATOM      2  C   UNL     1      -7.485   4.547 132.284  0.00  0.00    +0.000 C 
ATOM      3  N   UNL     1      -8.603   5.417 132.646  0.00  0.00    +0.000 N 
ATOM      4  C   UNL     1      -9.445   5.864 131.637  0.00  0.00    +0.000 A 
ATOM      5  C   UNL     1     -10.699   6.425 131.918  0.00  0.00    +0.000 A 
ATOM      6  C   UNL     1     -11.556   6.865 130.888  0.00  0.00    +0.000 A 
ATOM      7 CL   UNL     1     -13.087   7.510 131.369  0.00  0.00    +0.000 Cl
ATOM      8  C   UNL     1     -11.157   6.740 129.554  0.00  0.00    +0.000 A 
ATOM      9  C   UNL     1      -9.911   6.164 129.255  0.00  0.00    +0.000 A 
ATOM     10  C   UNL     1      -9.072   5.726 130.292  0.00  0.00    +0.000 A 
ATOM     11  C   UNL     1      -7.689   5.240 129.996  0.00  0.00    +0.000 C 
ATOM     12  O   UNL     1      -7.355   5.013 128.839  0.00  0.00    +0.000 OA
ATOM     13  N   UNL     1      -6.855   5.121 131.109  0.00  0.00    +0.000 N 
ATOM     14  H   UNL     1      -8.766   5.652 133.617  0.00  0.00    +0.000 HD
ENDROOT
BRANCH  13  15
ATOM     15  C   UNL     1      -5.486   5.547 131.070  0.00  0.00    +0.000 A 
ATOM     16  C   UNL     1      -5.143   6.895 131.259  0.00  0.00    +0.000 A 
ATOM     17  C   UNL     1      -3.854   7.374 130.990  0.00  0.00    +0.000 A 
ATOM     18  C   UNL     1      -2.839   6.486 130.671  0.00  0.00    +0.000 A 
ATOM     19  C   UNL     1      -3.121   5.125 130.611  0.00  0.00    +0.000 A 
ATOM     20  C   UNL     1      -4.445   4.649 130.739  0.00  0.00    +0.000 A 
ATOM     21  C   UNL     1      -4.704   3.212 130.381  0.00  0.00    +0.000 C 
ENDBRANCH  13  15
BRANCH   8  22
ATOM     22  S   UNL     1     -12.164   7.335 128.217  0.00  0.00    +0.000 S 
ATOM     23  O   UNL     1     -13.410   6.599 128.226  0.00  0.00    +0.000 OA
ATOM     24  O   UNL     1     -12.127   8.775 128.230  0.00  0.00    +0.000 OA
BRANCH  22  25
ATOM     25  N   UNL     1     -11.296   6.867 126.872  0.00  0.00    +0.000 NA
ATOM     26  H   UNL     1     -10.817   7.611 126.373  0.00  0.00    +0.000 HD
ATOM     27  H   UNL     1     -11.640   6.049 126.377  0.00  0.00    +0.000 HD
ENDBRANCH  22  25
ENDBRANCH   8  22
TORSDOF 3
ENDMDL
MODEL 3
REMARK VINA RESULT:      -7.4      7.183      8.639
REMARK  Name = Metolazone
REMARK  5 active torsions:
REMARK  status: ('A' for Active; 'I' for Inactive)
REMARK    1  A    between atoms: C_1  and  C_2
REMARK    2  A    between atoms: C_8  and  S_21
REMARK    3  A    between atoms: N_13  and  C_14
REMARK    4  A    between atoms: C_19  and  C_20
REMARK    5  A    between atoms: S_21  and  N_22
REMARK                            x       y       z     vdW  Elec       q    Type
REMARK                         _______ _______ _______ _____ _____    ______ ____
ROOT
ATOM      1  C   UNL     1      -8.147   3.125 133.720  0.00  0.00    +0.000 C 
ATOM      2  C   UNL     1      -8.930   3.590 132.497  0.00  0.00    +0.000 C 
ATOM      3  N   UNL     1      -9.639   4.837 132.781  0.00  0.00    +0.000 N 
ATOM      4  C   UNL     1     -10.319   5.459 131.743  0.00  0.00    +0.000 A 
ATOM      5  C   UNL     1     -11.272   6.461 131.982  0.00  0.00    +0.000 A 
ATOM      6  C   UNL     1     -11.969   7.081 130.925  0.00  0.00    +0.000 A 
ATOM      7 CL   UNL     1     -13.138   8.280 131.359  0.00  0.00    +0.000 Cl
ATOM      8  C   UNL     1     -11.715   6.693 129.606  0.00  0.00    +0.000 A 
ATOM      9  C   UNL     1     -10.778   5.679 129.351  0.00  0.00    +0.000 A 
ATOM     10  C   UNL     1     -10.096   5.067 130.415  0.00  0.00    +0.000 A 
ATOM     11  C   UNL     1      -8.998   4.087 130.150  0.00  0.00    +0.000 C 
ATOM     12  O   UNL     1      -8.831   3.645 129.019  0.00  0.00    +0.000 OA
ATOM     13  N   UNL     1      -8.202   3.781 131.255  0.00  0.00    +0.000 N 
ATOM     14  H   UNL     1      -9.653   5.206 133.722  0.00  0.00    +0.000 HD
ENDROOT
BRANCH  13  15
ATOM     15  C   UNL     1      -6.775   3.676 131.147  0.00  0.00    +0.000 A 
ATOM     16  C   UNL     1      -6.155   2.432 130.957  0.00  0.00    +0.000 A 
ATOM     17  C   UNL     1      -4.769   2.270 131.087  0.00  0.00    +0.000 A 
ATOM     18  C   UNL     1      -3.956   3.380 131.260  0.00  0.00    +0.000 A 
ATOM     19  C   UNL     1      -4.536   4.643 131.315  0.00  0.00    +0.000 A 
ATOM     20  C   UNL     1      -5.939   4.802 131.328  0.00  0.00    +0.000 A 
ATOM     21  C   UNL     1      -6.481   6.161 131.673  0.00  0.00    +0.000 C 
ENDBRANCH  13  15
BRANCH   8  22
ATOM     22  S   UNL     1     -12.514   7.482 128.230  0.00  0.00    +0.000 S 
ATOM     23  O   UNL     1     -13.887   7.025 128.179  0.00  0.00    +0.000 OA
ATOM     24  O   UNL     1     -12.176   8.882 128.253  0.00  0.00    +0.000 OA
BRANCH  22  25
ATOM     25  N   UNL     1     -11.706   6.837 126.922  0.00  0.00    +0.000 NA
ATOM     26  H   UNL     1     -11.952   7.224 126.014  0.00  0.00    +0.000 HD
ATOM     27  H   UNL     1     -11.407   5.870 127.008  0.00  0.00    +0.000 HD
ENDBRANCH  22  25
ENDBRANCH   8  22
TORSDOF 3
ENDMDL
MODEL 4
REMARK VINA RESULT:      -7.4      4.896      6.833
REMARK  Name = Metolazone
REMARK  5 active torsions:
REMARK  status: ('A' for Active; 'I' for Inactive)
REMARK    1  A    between atoms: C_1  and  C_2
REMARK    2  A    between atoms: C_8  and  S_21
REMARK    3  A    between atoms: N_13  and  C_14
REMARK    4  A    between atoms: C_19  and  C_20
REMARK    5  A    between atoms: S_21  and  N_22
REMARK                            x       y       z     vdW  Elec       q    Type
REMARK                         _______ _______ _______ _____ _____    ______ ____
ROOT
ATOM      1  C   UNL     1      -1.910   3.469 127.136  0.00  0.00    +0.000 C 
ATOM      2  C   UNL     1      -3.268   3.307 126.461  0.00  0.00    +0.000 C 
ATOM      3  N   UNL     1      -3.753   1.935 126.598  0.00  0.00    +0.000 N 
ATOM      4  C   UNL     1      -5.026   1.635 126.132  0.00  0.00    +0.000 A 
ATOM      5  C   UNL     1      -5.445   0.312 125.931  0.00  0.00    +0.000 A 
ATOM      6  C   UNL     1      -6.735   0.014 125.445  0.00  0.00    +0.000 A 
ATOM      7 CL   UNL     1      -7.114  -1.657 125.215  0.00  0.00    +0.000 Cl
ATOM      8  C   UNL     1      -7.621   1.054 125.149  0.00  0.00    +0.000 A 
ATOM      9  C   UNL     1      -7.210   2.385 125.327  0.00  0.00    +0.000 A 
ATOM     10  C   UNL     1      -5.920   2.666 125.807  0.00  0.00    +0.000 A 
ATOM     11  C   UNL     1      -5.520   4.069 126.133  0.00  0.00    +0.000 C 
ATOM     12  O   UNL     1      -6.227   5.005 125.779  0.00  0.00    +0.000 OA
ATOM     13  N   UNL     1      -4.344   4.189 126.875  0.00  0.00    +0.000 N 
ATOM     14  H   UNL     1      -3.152   1.225 126.995  0.00  0.00    +0.000 HD
ENDROOT
BRANCH  13  15
ATOM     15  C   UNL     1      -4.237   5.116 127.966  0.00  0.00    +0.000 A 
ATOM     16  C   UNL     1      -3.664   6.384 127.782  0.00  0.00    +0.000 A 
ATOM     17  C   UNL     1      -3.331   7.207 128.865  0.00  0.00    +0.000 A 
ATOM     18  C   UNL     1      -3.701   6.843 130.151  0.00  0.00    +0.000 A 
ATOM     19  C   UNL     1      -4.393   5.652 130.346  0.00  0.00    +0.000 A 
ATOM     20  C   UNL     1      -4.607   4.750 129.281  0.00  0.00    +0.000 A 
ATOM     21  C   UNL     1      -5.103   3.373 129.625  0.00  0.00    +0.000 C 
ENDBRANCH  13  15
BRANCH   8  22
ATOM     22  S   UNL     1      -9.279   0.740 124.595  0.00  0.00    +0.000 S 
ATOM     23  O   UNL     1      -9.213   0.165 123.268  0.00  0.00    +0.000 OA
ATOM     24  O   UNL     1     -10.000   0.105 125.667  0.00  0.00    +0.000 OA
BRANCH  22  25
ATOM     25  N   UNL     1      -9.915   2.276 124.461  0.00  0.00    +0.000 NA
ATOM     26  H   UNL     1     -10.470   2.455 123.629  0.00  0.00    +0.000 HD
ATOM     27  H   UNL     1      -9.385   3.023 124.900  0.00  0.00    +0.000 HD
ENDBRANCH  22  25
ENDBRANCH   8  22
TORSDOF 3
ENDMDL
MODEL 5
REMARK VINA RESULT:      -6.9      2.747      4.075
REMARK  Name = Metolazone
REMARK  5 active torsions:
REMARK  status: ('A' for Active; 'I' for Inactive)
REMARK    1  A    between atoms: C_1  and  C_2
REMARK    2  A    between atoms: C_8  and  S_21
REMARK    3  A    between atoms: N_13  and  C_14
REMARK    4  A    between atoms: C_19  and  C_20
REMARK    5  A    between atoms: S_21  and  N_22
REMARK                            x       y       z     vdW  Elec       q    Type
REMARK                         _______ _______ _______ _____ _____    ______ ____
ROOT
ATOM      1  C   UNL     1      -5.131   1.511 129.736  0.00  0.00    +0.000 C 
ATOM      2  C   UNL     1      -5.912   1.188 128.467  0.00  0.00    +0.000 C 
ATOM      3  N   UNL     1      -5.501  -0.106 127.923  0.00  0.00    +0.000 N 
ATOM      4  C   UNL     1      -6.186  -0.607 126.825  0.00  0.00    +0.000 A 
ATOM      5  C   UNL     1      -5.672  -1.660 126.053  0.00  0.00    +0.000 A 
ATOM      6  C   UNL     1      -6.366  -2.156 124.930  0.00  0.00    +0.000 A 
ATOM      7 CL   UNL     1      -5.607  -3.435 124.047  0.00  0.00    +0.000 Cl
ATOM      8  C   UNL     1      -7.592  -1.591 124.568  0.00  0.00    +0.000 A 
ATOM      9  C   UNL     1      -8.112  -0.525 125.320  0.00  0.00    +0.000 A 
ATOM     10  C   UNL     1      -7.406  -0.038 126.432  0.00  0.00    +0.000 A 
ATOM     11  C   UNL     1      -8.012   1.001 127.321  0.00  0.00    +0.000 C 
ATOM     12  O   UNL     1      -9.027   1.592 126.968  0.00  0.00    +0.000 OA
ATOM     13  N   UNL     1      -7.362   1.183 128.542  0.00  0.00    +0.000 N 
ATOM     14  H   UNL     1      -4.714  -0.596 128.327  0.00  0.00    +0.000 HD
ENDROOT
BRANCH  13  15
ATOM     15  C   UNL     1      -8.094   1.344 129.765  0.00  0.00    +0.000 A 
ATOM     16  C   UNL     1      -8.465   2.617 130.223  0.00  0.00    +0.000 A 
ATOM     17  C   UNL     1      -8.963   2.821 131.517  0.00  0.00    +0.000 A 
ATOM     18  C   UNL     1      -9.243   1.733 132.330  0.00  0.00    +0.000 A 
ATOM     19  C   UNL     1      -9.012   0.448 131.848  0.00  0.00    +0.000 A 
ATOM     20  C   UNL     1      -8.379   0.240 130.603  0.00  0.00    +0.000 A 
ATOM     21  C   UNL     1      -7.911  -1.154 130.286  0.00  0.00    +0.000 C 
ENDBRANCH  13  15
BRANCH   8  22
ATOM     22  S   UNL     1      -8.543  -2.216 123.203  0.00  0.00    +0.000 S 
ATOM     23  O   UNL     1      -7.733  -2.126 122.007  0.00  0.00    +0.000 OA
ATOM     24  O   UNL     1      -9.165  -3.448 123.614  0.00  0.00    +0.000 OA
BRANCH  22  25
ATOM     25  N   UNL     1      -9.776  -1.100 123.078  0.00  0.00    +0.000 NA
ATOM     26  H   UNL     1      -9.594  -0.190 123.493  0.00  0.00    +0.000 HD
ATOM     27  H   UNL     1     -10.719  -1.473 123.043  0.00  0.00    +0.000 HD
ENDBRANCH  22  25
ENDBRANCH   8  22
TORSDOF 3
ENDMDL
MODEL 6
REMARK VINA RESULT:      -6.9      4.280      7.204
REMARK  Name = Metolazone
REMARK  5 active torsions:
REMARK  status: ('A' for Active; 'I' for Inactive)
REMARK    1  A    between atoms: C_1  and  C_2
REMARK    2  A    between atoms: C_8  and  S_21
REMARK    3  A    between atoms: N_13  and  C_14
REMARK    4  A    between atoms: C_19  and  C_20
REMARK    5  A    between atoms: S_21  and  N_22
REMARK                            x       y       z     vdW  Elec       q    Type
REMARK                         _______ _______ _______ _____ _____    ______ ____
ROOT
ATOM      1  C   UNL     1      -9.407  -3.138 125.888  0.00  0.00    +0.000 C 
ATOM      2  C   UNL     1      -8.483  -2.457 126.892  0.00  0.00    +0.000 C 
ATOM      3  N   UNL     1      -8.161  -3.362 127.994  0.00  0.00    +0.000 N 
ATOM      4  C   UNL     1      -7.245  -2.941 128.947  0.00  0.00    +0.000 A 
ATOM      5  C   UNL     1      -7.116  -3.590 130.184  0.00  0.00    +0.000 A 
ATOM      6  C   UNL     1      -6.192  -3.149 131.154  0.00  0.00    +0.000 A 
ATOM      7 CL   UNL     1      -6.155  -4.020 132.648  0.00  0.00    +0.000 Cl
ATOM      8  C   UNL     1      -5.385  -2.039 130.888  0.00  0.00    +0.000 A 
ATOM      9  C   UNL     1      -5.514  -1.367 129.662  0.00  0.00    +0.000 A 
ATOM     10  C   UNL     1      -6.443  -1.815 128.708  0.00  0.00    +0.000 A 
ATOM     11  C   UNL     1      -6.493  -1.196 127.348  0.00  0.00    +0.000 C 
ATOM     12  O   UNL     1      -5.884  -0.156 127.125  0.00  0.00    +0.000 OA
ATOM     13  N   UNL     1      -7.231  -1.910 126.402  0.00  0.00    +0.000 N 
ATOM     14  H   UNL     1      -8.628  -4.256 128.065  0.00  0.00    +0.000 HD
ENDROOT
BRANCH  13  15
ATOM     15  C   UNL     1      -6.760  -2.083 125.058  0.00  0.00    +0.000 A 
ATOM     16  C   UNL     1      -5.822  -3.079 124.744  0.00  0.00    +0.000 A 
ATOM     17  C   UNL     1      -5.172  -3.115 123.503  0.00  0.00    +0.000 A 
ATOM     18  C   UNL     1      -5.556  -2.245 122.494  0.00  0.00    +0.000 A 
ATOM     19  C   UNL     1      -6.581  -1.336 122.736  0.00  0.00    +0.000 A 
ATOM     20  C   UNL     1      -7.143  -1.197 124.025  0.00  0.00    +0.000 A 
ATOM     21  C   UNL     1      -8.034  -0.010 124.270  0.00  0.00    +0.000 C 
ENDBRANCH  13  15
BRANCH   8  22
ATOM     22  S   UNL     1      -4.159  -1.477 132.043  0.00  0.00    +0.000 S 
ATOM     23  O   UNL     1      -4.792  -1.316 133.335  0.00  0.00    +0.000 OA
ATOM     24  O   UNL     1      -2.973  -2.276 131.868  0.00  0.00    +0.000 OA
BRANCH  22  25
ATOM     25  N   UNL     1      -3.779   0.039 131.462  0.00  0.00    +0.000 NA
ATOM     26  H   UNL     1      -4.125   0.257 130.531  0.00  0.00    +0.000 HD
ATOM     27  H   UNL     1      -2.913   0.448 131.800  0.00  0.00    +0.000 HD
ENDBRANCH  22  25
ENDBRANCH   8  22
TORSDOF 3
ENDMDL
MODEL 7
REMARK VINA RESULT:      -6.9      4.315      6.214
REMARK  Name = Metolazone
REMARK  5 active torsions:
REMARK  status: ('A' for Active; 'I' for Inactive)
REMARK    1  A    between atoms: C_1  and  C_2
REMARK    2  A    between atoms: C_8  and  S_21
REMARK    3  A    between atoms: N_13  and  C_14
REMARK    4  A    between atoms: C_19  and  C_20
REMARK    5  A    between atoms: S_21  and  N_22
REMARK                            x       y       z     vdW  Elec       q    Type
REMARK                         _______ _______ _______ _____ _____    ______ ____
ROOT
ATOM      1  C   UNL     1      -7.611  -3.510 128.800  0.00  0.00    +0.000 C 
ATOM      2  C   UNL     1      -7.986  -2.036 128.692  0.00  0.00    +0.000 C 
ATOM      3  N   UNL     1      -7.257  -1.243 129.681  0.00  0.00    +0.000 N 
ATOM      4  C   UNL     1      -7.398   0.137 129.653  0.00  0.00    +0.000 A 
ATOM      5  C   UNL     1      -7.003   0.940 130.734  0.00  0.00    +0.000 A 
ATOM      6  C   UNL     1      -7.161   2.341 130.706  0.00  0.00    +0.000 A 
ATOM      7 CL   UNL     1      -6.662   3.210 132.116  0.00  0.00    +0.000 Cl
ATOM      8  C   UNL     1      -7.726   2.953 129.583  0.00  0.00    +0.000 A 
ATOM      9  C   UNL     1      -8.142   2.161 128.500  0.00  0.00    +0.000 A 
ATOM     10  C   UNL     1      -7.983   0.767 128.545  0.00  0.00    +0.000 A 
ATOM     11  C   UNL     1      -8.293  -0.072 127.347  0.00  0.00    +0.000 C 
ATOM     12  O   UNL     1      -8.892   0.417 126.395  0.00  0.00    +0.000 OA
ATOM     13  N   UNL     1      -7.817  -1.383 127.406  0.00  0.00    +0.000 N 
ATOM     14  H   UNL     1      -6.694  -1.706 130.382  0.00  0.00    +0.000 HD
ENDROOT
BRANCH  13  15
ATOM     15  C   UNL     1      -7.205  -2.011 126.271  0.00  0.00    +0.000 A 
ATOM     16  C   UNL     1      -5.864  -1.759 125.941  0.00  0.00    +0.000 A 
ATOM     17  C   UNL     1      -5.316  -2.163 124.717  0.00  0.00    +0.000 A 
ATOM     18  C   UNL     1      -6.054  -2.963 123.858  0.00  0.00    +0.000 A 
ATOM     19  C   UNL     1      -7.342  -3.343 124.224  0.00  0.00    +0.000 A 
ATOM     20  C   UNL     1      -7.953  -2.824 125.387  0.00  0.00    +0.000 A 
ATOM     21  C   UNL     1      -9.428  -3.055 125.559  0.00  0.00    +0.000 C 
ENDBRANCH  13  15
BRANCH   8  22
ATOM     22  S   UNL     1      -7.891   4.717 129.463  0.00  0.00    +0.000 S 
ATOM     23  O   UNL     1      -8.893   5.145 130.416  0.00  0.00    +0.000 OA
ATOM     24  O   UNL     1      -6.570   5.293 129.432  0.00  0.00    +0.000 OA
BRANCH  22  25
ATOM     25  N   UNL     1      -8.515   4.921 127.930  0.00  0.00    +0.000 NA
ATOM     26  H   UNL     1      -8.086   4.360 127.199  0.00  0.00    +0.000 HD
ATOM     27  H   UNL     1      -8.905   5.834 127.720  0.00  0.00    +0.000 HD
ENDBRANCH  22  25
ENDBRANCH   8  22
TORSDOF 3
ENDMDL
MODEL 8
REMARK VINA RESULT:      -6.9      3.370      5.393
REMARK  Name = Metolazone
REMARK  5 active torsions:
REMARK  status: ('A' for Active; 'I' for Inactive)
REMARK    1  A    between atoms: C_1  and  C_2
REMARK    2  A    between atoms: C_8  and  S_21
REMARK    3  A    between atoms: N_13  and  C_14
REMARK    4  A    between atoms: C_19  and  C_20
REMARK    5  A    between atoms: S_21  and  N_22
REMARK                            x       y       z     vdW  Elec       q    Type
REMARK                         _______ _______ _______ _____ _____    ______ ____
ROOT
ATOM      1  C   UNL     1      -6.313  -0.529 133.824  0.00  0.00    +0.000 C 
ATOM      2  C   UNL     1      -6.367  -0.445 132.303  0.00  0.00    +0.000 C 
ATOM      3  N   UNL     1      -7.209  -1.509 131.756  0.00  0.00    +0.000 N 
ATOM      4  C   UNL     1      -7.454  -1.519 130.390  0.00  0.00    +0.000 A 
ATOM      5  C   UNL     1      -7.970  -2.651 129.742  0.00  0.00    +0.000 A 
ATOM      6  C   UNL     1      -8.205  -2.660 128.352  0.00  0.00    +0.000 A 
ATOM      7 CL   UNL     1      -8.815  -4.130 127.674  0.00  0.00    +0.000 Cl
ATOM      8  C   UNL     1      -7.917  -1.522 127.593  0.00  0.00    +0.000 A 
ATOM      9  C   UNL     1      -7.384  -0.387 128.223  0.00  0.00    +0.000 A 
ATOM     10  C   UNL     1      -7.150  -0.395 129.608  0.00  0.00    +0.000 A 
ATOM     11  C   UNL     1      -6.714   0.850 130.313  0.00  0.00    +0.000 C 
ATOM     12  O   UNL     1      -6.346   1.823 129.664  0.00  0.00    +0.000 OA
ATOM     13  N   UNL     1      -6.806   0.803 131.704  0.00  0.00    +0.000 N 
ATOM     14  H   UNL     1      -7.568  -2.231 132.366  0.00  0.00    +0.000 HD
ENDROOT
BRANCH  13  15
ATOM     15  C   UNL     1      -7.307   1.914 132.461  0.00  0.00    +0.000 A 
ATOM     16  C   UNL     1      -6.436   2.759 133.167  0.00  0.00    +0.000 A 
ATOM     17  C   UNL     1      -6.907   3.694 134.097  0.00  0.00    +0.000 A 
ATOM     18  C   UNL     1      -8.270   3.910 134.232  0.00  0.00    +0.000 A 
ATOM     19  C   UNL     1      -9.154   3.180 133.443  0.00  0.00    +0.000 A 
ATOM     20  C   UNL     1      -8.696   2.137 132.609  0.00  0.00    +0.000 A 
ATOM     21  C   UNL     1      -9.727   1.219 132.014  0.00  0.00    +0.000 C 
ENDBRANCH  13  15
BRANCH   8  22
ATOM     22  S   UNL     1      -8.252  -1.452 125.850  0.00  0.00    +0.000 S 
ATOM     23  O   UNL     1      -7.323  -2.331 125.173  0.00  0.00    +0.000 OA
ATOM     24  O   UNL     1      -9.677  -1.553 125.660  0.00  0.00    +0.000 OA
BRANCH  22  25
ATOM     25  N   UNL     1      -7.850   0.120 125.466  0.00  0.00    +0.000 NA
ATOM     26  H   UNL     1      -8.472   0.838 125.826  0.00  0.00    +0.000 HD
ATOM     27  H   UNL     1      -7.355   0.257 124.590  0.00  0.00    +0.000 HD
ENDBRANCH  22  25
ENDBRANCH   8  22
TORSDOF 3
ENDMDL
MODEL 9
REMARK VINA RESULT:      -6.9      7.650     10.142
REMARK  Name = Metolazone
REMARK  5 active torsions:
REMARK  status: ('A' for Active; 'I' for Inactive)
REMARK    1  A    between atoms: C_1  and  C_2
REMARK    2  A    between atoms: C_8  and  S_21
REMARK    3  A    between atoms: N_13  and  C_14
REMARK    4  A    between atoms: C_19  and  C_20
REMARK    5  A    between atoms: S_21  and  N_22
REMARK                            x       y       z     vdW  Elec       q    Type
REMARK                         _______ _______ _______ _____ _____    ______ ____
ROOT
ATOM      1  C   UNL     1     -11.244   3.698 130.333  0.00  0.00    +0.000 C 
ATOM      2  C   UNL     1      -9.836   4.226 130.589  0.00  0.00    +0.000 C 
ATOM      3  N   UNL     1      -8.847   3.435 129.858  0.00  0.00    +0.000 N 
ATOM      4  C   UNL     1      -7.521   3.843 129.893  0.00  0.00    +0.000 A 
ATOM      5  C   UNL     1      -6.477   2.992 129.500  0.00  0.00    +0.000 A 
ATOM      6  C   UNL     1      -5.131   3.407 129.550  0.00  0.00    +0.000 A 
ATOM      7 CL   UNL     1      -3.940   2.250 129.066  0.00  0.00    +0.000 Cl
ATOM      8  C   UNL     1      -4.818   4.692 130.004  0.00  0.00    +0.000 A 
ATOM      9  C   UNL     1      -5.850   5.550 130.418  0.00  0.00    +0.000 A 
ATOM     10  C   UNL     1      -7.186   5.120 130.367  0.00  0.00    +0.000 A 
ATOM     11  C   UNL     1      -8.301   6.068 130.672  0.00  0.00    +0.000 C 
ATOM     12  O   UNL     1      -8.057   7.157 131.179  0.00  0.00    +0.000 OA
ATOM     13  N   UNL     1      -9.571   5.624 130.300  0.00  0.00    +0.000 N 
ATOM     14  H   UNL     1      -9.132   2.596 129.371  0.00  0.00    +0.000 HD
ENDROOT
BRANCH  13  15
ATOM     15  C   UNL     1     -10.519   6.500 129.675  0.00  0.00    +0.000 A 
ATOM     16  C   UNL     1     -10.364   6.896 128.337  0.00  0.00    +0.000 A 
ATOM     17  C   UNL     1     -11.130   7.928 127.779  0.00  0.00    +0.000 A 
ATOM     18  C   UNL     1     -12.173   8.484 128.503  0.00  0.00    +0.000 A 
ATOM     19  C   UNL     1     -12.437   8.013 129.785  0.00  0.00    +0.000 A 
ATOM     20  C   UNL     1     -11.583   7.076 130.407  0.00  0.00    +0.000 A 
ATOM     21  C   UNL     1     -11.770   6.836 131.880  0.00  0.00    +0.000 C 
ENDBRANCH  13  15
BRANCH   8  22
ATOM     22  S   UNL     1      -3.147   5.293 130.029  0.00  0.00    +0.000 S 
ATOM     23  O   UNL     1      -2.458   4.673 131.141  0.00  0.00    +0.000 OA
ATOM     24  O   UNL     1      -2.629   5.243 128.685  0.00  0.00    +0.000 OA
BRANCH  22  25
ATOM     25  N   UNL     1      -3.348   6.910 130.383  0.00  0.00    +0.000 NA
ATOM     26  H   UNL     1      -3.616   7.125 131.339  0.00  0.00    +0.000 HD
ATOM     27  H   UNL     1      -3.646   7.505 129.616  0.00  0.00    +0.000 HD
ENDBRANCH  22  25
ENDBRANCH   8  22
TORSDOF 3
ENDMDL
