MODEL 1
REMARK VINA RESULT:      -9.8      0.000      0.000
REMARK  Name = Metocurine
REMARK  12 active torsions:
REMARK  status: ('A' for Active; 'I' for Inactive)
REMARK    1  A    between atoms: N_14  and  C_15
REMARK    2  A    between atoms: N_14  and  C_16
REMARK    3  A    between atoms: C_25  and  O_26
REMARK    4  A    between atoms: O_26  and  C_27
REMARK    5  A    between atoms: N_32  and  C_33
REMARK    6  A    between atoms: N_32  and  C_34
REMARK    7  A    between atoms: C_37  and  O_38
REMARK    8  A    between atoms: O_38  and  C_39
REMARK    9  A    between atoms: C_43  and  O_44
REMARK   10  A    between atoms: O_44  and  C_45
REMARK   11  A    between atoms: C_46  and  O_47
REMARK   12  A    between atoms: O_47  and  C_48
REMARK                            x       y       z     vdW  Elec       q    Type
REMARK                         _______ _______ _______ _____ _____    ______ ____
ROOT
ATOM      1  C   UNL     1      -6.374  -2.476 126.747  0.00  0.00    +0.000 C 
ATOM      2  C   UNL     1      -5.562  -1.159 126.357  0.00  0.00    +0.000 C 
ATOM      3  C   UNL     1      -6.145   0.132 126.926  0.00  0.00    +0.000 A 
ATOM      4  C   UNL     1      -7.508   0.386 127.076  0.00  0.00    +0.000 A 
ATOM      5  C   UNL     1      -8.177   1.267 127.898  0.00  0.00    +0.000 A 
ATOM      6  C   UNL     1      -7.404   2.256 128.398  0.00  0.00    +0.000 A 
ATOM      7  O   UNL     1      -8.031   2.993 129.378  0.00  0.00    +0.000 OA
ATOM      8  C   UNL     1      -7.267   3.793 130.191  0.00  0.00    +0.000 A 
ATOM      9  C   UNL     1      -6.417   3.281 131.189  0.00  0.00    +0.000 A 
ATOM     10  C   UNL     1      -5.572   4.109 131.923  0.00  0.00    +0.000 A 
ATOM     11  C   UNL     1      -4.576   3.593 132.915  0.00  0.00    +0.000 C 
ATOM     12  C   UNL     1      -4.328   2.085 132.782  0.00  0.00    +0.000 C 
ATOM     13  N   UNL     1      -5.766   1.402 132.781  0.00  0.00    +0.000 N 
ATOM     14  C   UNL     1      -6.176   1.444 134.205  0.00  0.00    +0.000 C 
ATOM     15  C   UNL     1      -6.251  -0.015 132.703  0.00  0.00    +0.000 C 
ATOM     16  C   UNL     1      -6.326   1.837 131.459  0.00  0.00    +0.000 C 
ATOM     17  C   UNL     1      -5.348   1.175 130.440  0.00  0.00    +0.000 C 
ATOM     18  C   UNL     1      -4.899  -0.245 130.612  0.00  0.00    +0.000 A 
ATOM     19  C   UNL     1      -3.846  -0.913 131.736  0.00  0.00    +0.000 A 
ATOM     20  C   UNL     1      -3.614  -2.762 131.813  0.00  0.00    +0.000 A 
ATOM     21  O   UNL     1      -2.904  -2.459 130.600  0.00  0.00    +0.000 OA
ATOM     22  C   UNL     1      -4.179  -2.231 130.232  0.00  0.00    +0.000 A 
ATOM     23  C   UNL     1      -5.663  -2.340 131.551  0.00  0.00    +0.000 A 
ATOM     24  C   UNL     1      -7.329  -2.540 131.012  0.00  0.00    +0.000 A 
ATOM     25  C   UNL     1      -7.551  -2.641 129.285  0.00  0.00    +0.000 A 
ATOM     26  C   UNL     1      -8.758  -3.315 128.765  0.00  0.00    +0.000 C 
ATOM     27  C   UNL     1      -8.502  -3.775 127.275  0.00  0.00    +0.000 C 
ATOM     28  N   UNL     1      -7.827  -2.629 126.349  0.00  0.00    +0.000 N 
ATOM     29  C   UNL     1      -9.077  -1.800 126.132  0.00  0.00    +0.000 C 
ATOM     30  C   UNL     1      -7.326  -2.471 124.925  0.00  0.00    +0.000 C 
ATOM     31  C   UNL     1      -6.170  -2.456 128.124  0.00  0.00    +0.000 A 
ATOM     32  C   UNL     1      -4.433  -2.266 128.561  0.00  0.00    +0.000 A 
ATOM     33  C   UNL     1      -4.614  -4.088 130.952  0.00  0.00    +0.000 A 
ATOM     34  C   UNL     1      -5.640  -3.336 129.906  0.00  0.00    +0.000 A 
ATOM     35  C   UNL     1      -5.855  -1.363 129.838  0.00  0.00    +0.000 A 
ATOM     36  C   UNL     1      -5.666   5.463 131.769  0.00  0.00    +0.000 A 
ATOM     37  C   UNL     1      -6.544   5.994 130.854  0.00  0.00    +0.000 A 
ATOM     38  C   UNL     1      -7.364   5.167 130.040  0.00  0.00    +0.000 A 
ATOM     39  C   UNL     1      -6.025   2.264 128.040  0.00  0.00    +0.000 A 
ATOM     40  C   UNL     1      -5.381   1.104 127.495  0.00  0.00    +0.000 A 
ENDROOT
BRANCH  23  41
ATOM     41  O   UNL     1      -5.660  -2.473 132.975  0.00  0.00    +0.000 OA
ATOM     42  C   UNL     1      -6.516  -2.967 134.020  0.00  0.00    +0.000 C 
ENDBRANCH  23  41
BRANCH  33  43
ATOM     43  O   UNL     1      -5.525  -5.130 131.399  0.00  0.00    +0.000 OA
ATOM     44  C   UNL     1      -5.206  -5.905 132.697  0.00  0.00    +0.000 C 
ENDBRANCH  33  43
BRANCH  37  45
ATOM     45  O   UNL     1      -6.431   7.339 130.638  0.00  0.00    +0.000 OA
ATOM     46  C   UNL     1      -5.148   7.863 130.341  0.00  0.00    +0.000 C 
ENDBRANCH  37  45
BRANCH  38  47
ATOM     47  O   UNL     1      -8.260   5.612 129.084  0.00  0.00    +0.000 OA
ATOM     48  C   UNL     1      -9.451   6.018 129.731  0.00  0.00    +0.000 C 
ENDBRANCH  38  47
TORSDOF 4
ENDMDL
MODEL 2
REMARK VINA RESULT:      -9.7      2.325      6.112
REMARK  Name = Metocurine
REMARK  12 active torsions:
REMARK  status: ('A' for Active; 'I' for Inactive)
REMARK    1  A    between atoms: N_14  and  C_15
REMARK    2  A    between atoms: N_14  and  C_16
REMARK    3  A    between atoms: C_25  and  O_26
REMARK    4  A    between atoms: O_26  and  C_27
REMARK    5  A    between atoms: N_32  and  C_33
REMARK    6  A    between atoms: N_32  and  C_34
REMARK    7  A    between atoms: C_37  and  O_38
REMARK    8  A    between atoms: O_38  and  C_39
REMARK    9  A    between atoms: C_43  and  O_44
REMARK   10  A    between atoms: O_44  and  C_45
REMARK   11  A    between atoms: C_46  and  O_47
REMARK   12  A    between atoms: O_47  and  C_48
REMARK                            x       y       z     vdW  Elec       q    Type
REMARK                         _______ _______ _______ _____ _____    ______ ____
ROOT
ATOM      1  C   UNL     1      -6.899   1.346 133.042  0.00  0.00    +0.000 C 
ATOM      2  C   UNL     1      -8.252   1.703 132.274  0.00  0.00    +0.000 C 
ATOM      3  C   UNL     1      -8.048   2.254 130.865  0.00  0.00    +0.000 A 
ATOM      4  C   UNL     1      -6.998   3.089 130.485  0.00  0.00    +0.000 A 
ATOM      5  C   UNL     1      -6.447   3.341 129.248  0.00  0.00    +0.000 A 
ATOM      6  C   UNL     1      -7.233   2.986 128.207  0.00  0.00    +0.000 A 
ATOM      7  O   UNL     1      -6.587   3.044 126.993  0.00  0.00    +0.000 OA
ATOM      8  C   UNL     1      -7.149   2.404 125.916  0.00  0.00    +0.000 A 
ATOM      9  C   UNL     1      -7.168   1.003 125.783  0.00  0.00    +0.000 A 
ATOM     10  C   UNL     1      -7.841   0.378 124.738  0.00  0.00    +0.000 A 
ATOM     11  C   UNL     1      -7.978  -1.109 124.621  0.00  0.00    +0.000 C 
ATOM     12  C   UNL     1      -7.630  -1.843 125.922  0.00  0.00    +0.000 C 
ATOM     13  N   UNL     1      -6.211  -1.283 126.376  0.00  0.00    +0.000 N 
ATOM     14  C   UNL     1      -5.257  -1.960 125.465  0.00  0.00    +0.000 C 
ATOM     15  C   UNL     1      -5.291  -1.572 127.524  0.00  0.00    +0.000 C 
ATOM     16  C   UNL     1      -6.538   0.124 126.782  0.00  0.00    +0.000 C 
ATOM     17  C   UNL     1      -7.512  -0.086 127.983  0.00  0.00    +0.000 C 
ATOM     18  C   UNL     1      -7.221  -1.104 129.043  0.00  0.00    +0.000 A 
ATOM     19  C   UNL     1      -7.282  -2.780 128.973  0.00  0.00    +0.000 A 
ATOM     20  C   UNL     1      -6.690  -3.797 130.420  0.00  0.00    +0.000 A 
ATOM     21  O   UNL     1      -7.925  -3.286 130.948  0.00  0.00    +0.000 OA
ATOM     22  C   UNL     1      -7.169  -2.174 130.904  0.00  0.00    +0.000 A 
ATOM     23  C   UNL     1      -5.347  -2.202 130.108  0.00  0.00    +0.000 A 
ATOM     24  C   UNL     1      -4.184  -0.933 130.484  0.00  0.00    +0.000 A 
ATOM     25  C   UNL     1      -4.748   0.300 131.583  0.00  0.00    +0.000 A 
ATOM     26  C   UNL     1      -3.752   1.069 132.356  0.00  0.00    +0.000 C 
ATOM     27  C   UNL     1      -4.445   1.695 133.629  0.00  0.00    +0.000 C 
ATOM     28  N   UNL     1      -5.861   2.414 133.310  0.00  0.00    +0.000 N 
ATOM     29  C   UNL     1      -5.297   3.681 132.697  0.00  0.00    +0.000 C 
ATOM     30  C   UNL     1      -6.968   3.127 134.066  0.00  0.00    +0.000 C 
ATOM     31  C   UNL     1      -6.448   0.320 132.217  0.00  0.00    +0.000 A 
ATOM     32  C   UNL     1      -7.708  -0.930 131.914  0.00  0.00    +0.000 A 
ATOM     33  C   UNL     1      -5.750  -3.218 131.931  0.00  0.00    +0.000 A 
ATOM     34  C   UNL     1      -5.709  -1.572 131.889  0.00  0.00    +0.000 A 
ATOM     35  C   UNL     1      -6.361  -0.516 130.339  0.00  0.00    +0.000 A 
ATOM     36  C   UNL     1      -8.380   1.142 123.741  0.00  0.00    +0.000 A 
ATOM     37  C   UNL     1      -8.308   2.513 123.807  0.00  0.00    +0.000 A 
ATOM     38  C   UNL     1      -7.691   3.175 124.902  0.00  0.00    +0.000 A 
ATOM     39  C   UNL     1      -8.497   2.397 128.503  0.00  0.00    +0.000 A 
ATOM     40  C   UNL     1      -8.790   1.852 129.797  0.00  0.00    +0.000 A 
ENDROOT
BRANCH  23  41
ATOM     41  O   UNL     1      -4.651  -3.206 129.364  0.00  0.00    +0.000 OA
ATOM     42  C   UNL     1      -3.315  -3.719 129.221  0.00  0.00    +0.000 C 
ENDBRANCH  23  41
BRANCH  33  43
ATOM     43  O   UNL     1      -4.404  -3.431 132.438  0.00  0.00    +0.000 OA
ATOM     44  C   UNL     1      -3.963  -2.709 133.731  0.00  0.00    +0.000 C 
ENDBRANCH  33  43
BRANCH  37  45
ATOM     45  O   UNL     1      -9.036   3.189 122.868  0.00  0.00    +0.000 OA
ATOM     46  C   UNL     1      -8.444   3.421 121.602  0.00  0.00    +0.000 C 
ENDBRANCH  37  45
BRANCH  38  47
ATOM     47  O   UNL     1      -7.589   4.546 125.060  0.00  0.00    +0.000 OA
ATOM     48  C   UNL     1      -6.283   4.951 124.696  0.00  0.00    +0.000 C 
ENDBRANCH  38  47
TORSDOF 4
ENDMDL
MODEL 3
REMARK VINA RESULT:      -9.7      2.098      6.280
REMARK  Name = Metocurine
REMARK  12 active torsions:
REMARK  status: ('A' for Active; 'I' for Inactive)
REMARK    1  A    between atoms: N_14  and  C_15
REMARK    2  A    between atoms: N_14  and  C_16
REMARK    3  A    between atoms: C_25  and  O_26
REMARK    4  A    between atoms: O_26  and  C_27
REMARK    5  A    between atoms: N_32  and  C_33
REMARK    6  A    between atoms: N_32  and  C_34
REMARK    7  A    between atoms: C_37  and  O_38
REMARK    8  A    between atoms: O_38  and  C_39
REMARK    9  A    between atoms: C_43  and  O_44
REMARK   10  A    between atoms: O_44  and  C_45
REMARK   11  A    between atoms: C_46  and  O_47
REMARK   12  A    between atoms: O_47  and  C_48
REMARK                            x       y       z     vdW  Elec       q    Type
REMARK                         _______ _______ _______ _____ _____    ______ ____
ROOT
ATOM      1  C   UNL     1      -6.577   1.977 133.694  0.00  0.00    +0.000 C 
ATOM      2  C   UNL     1      -8.042   2.110 133.074  0.00  0.00    +0.000 C 
ATOM      3  C   UNL     1      -8.066   2.401 131.575  0.00  0.00    +0.000 A 
ATOM      4  C   UNL     1      -7.143   3.207 130.910  0.00  0.00    +0.000 A 
ATOM      5  C   UNL     1      -6.779   3.254 129.582  0.00  0.00    +0.000 A 
ATOM      6  C   UNL     1      -7.661   2.670 128.742  0.00  0.00    +0.000 A 
ATOM      7  O   UNL     1      -7.184   2.537 127.457  0.00  0.00    +0.000 OA
ATOM      8  C   UNL     1      -7.827   1.678 126.601  0.00  0.00    +0.000 A 
ATOM      9  C   UNL     1      -7.751   0.277 126.721  0.00  0.00    +0.000 A 
ATOM     10  C   UNL     1      -8.502  -0.566 125.908  0.00  0.00    +0.000 A 
ATOM     11  C   UNL     1      -8.533  -2.054 126.076  0.00  0.00    +0.000 C 
ATOM     12  C   UNL     1      -7.963  -2.514 127.424  0.00  0.00    +0.000 C 
ATOM     13  N   UNL     1      -6.547  -1.802 127.568  0.00  0.00    +0.000 N 
ATOM     14  C   UNL     1      -5.667  -2.583 126.664  0.00  0.00    +0.000 C 
ATOM     15  C   UNL     1      -5.466  -1.822 128.607  0.00  0.00    +0.000 C 
ATOM     16  C   UNL     1      -6.929  -0.364 127.760  0.00  0.00    +0.000 C 
ATOM     17  C   UNL     1      -7.721  -0.401 129.105  0.00  0.00    +0.000 C 
ATOM     18  C   UNL     1      -7.215  -1.187 130.277  0.00  0.00    +0.000 A 
ATOM     19  C   UNL     1      -7.150  -2.848 130.513  0.00  0.00    +0.000 A 
ATOM     20  C   UNL     1      -6.297  -3.544 132.018  0.00  0.00    +0.000 A 
ATOM     21  O   UNL     1      -7.491  -3.012 132.616  0.00  0.00    +0.000 OA
ATOM     22  C   UNL     1      -6.838  -1.887 132.271  0.00  0.00    +0.000 A 
ATOM     23  C   UNL     1      -5.137  -1.963 131.243  0.00  0.00    +0.000 A 
ATOM     24  C   UNL     1      -4.041  -0.584 131.220  0.00  0.00    +0.000 A 
ATOM     25  C   UNL     1      -4.555   0.798 132.153  0.00  0.00    +0.000 A 
ATOM     26  C   UNL     1      -3.532   1.751 132.629  0.00  0.00    +0.000 C 
ATOM     27  C   UNL     1      -4.103   2.564 133.857  0.00  0.00    +0.000 C 
ATOM     28  N   UNL     1      -5.602   3.132 133.619  0.00  0.00    +0.000 N 
ATOM     29  C   UNL     1      -5.224   4.292 132.719  0.00  0.00    +0.000 C 
ATOM     30  C   UNL     1      -6.655   3.911 134.387  0.00  0.00    +0.000 C 
ATOM     31  C   UNL     1      -6.155   0.842 133.007  0.00  0.00    +0.000 A 
ATOM     32  C   UNL     1      -7.340  -0.510 133.111  0.00  0.00    +0.000 A 
ATOM     33  C   UNL     1      -5.220  -2.644 133.254  0.00  0.00    +0.000 A 
ATOM     34  C   UNL     1      -5.316  -1.034 132.917  0.00  0.00    +0.000 A 
ATOM     35  C   UNL     1      -6.245  -0.322 131.313  0.00  0.00    +0.000 A 
ATOM     36  C   UNL     1      -9.224  -0.032 124.879  0.00  0.00    +0.000 A 
ATOM     37  C   UNL     1      -9.253   1.329 124.691  0.00  0.00    +0.000 A 
ATOM     38  C   UNL     1      -8.556   2.217 125.554  0.00  0.00    +0.000 A 
ATOM     39  C   UNL     1      -8.825   2.078 129.312  0.00  0.00    +0.000 A 
ATOM     40  C   UNL     1      -8.905   1.767 130.711  0.00  0.00    +0.000 A 
ENDROOT
BRANCH  23  41
ATOM     41  O   UNL     1      -4.466  -3.048 130.597  0.00  0.00    +0.000 OA
ATOM     42  C   UNL     1      -3.138  -3.403 130.173  0.00  0.00    +0.000 C 
ENDBRANCH  23  41
BRANCH  33  43
ATOM     43  O   UNL     1      -3.807  -2.684 133.596  0.00  0.00    +0.000 OA
ATOM     44  C   UNL     1      -3.264  -1.719 134.674  0.00  0.00    +0.000 C 
ENDBRANCH  33  43
BRANCH  37  45
ATOM     45  O   UNL     1     -10.149   1.778 123.760  0.00  0.00    +0.000 OA
ATOM     46  C   UNL     1     -10.317   1.021 122.575  0.00  0.00    +0.000 C 
ENDBRANCH  37  45
BRANCH  38  47
ATOM     47  O   UNL     1      -8.544   3.596 125.451  0.00  0.00    +0.000 OA
ATOM     48  C   UNL     1      -7.546   3.976 124.523  0.00  0.00    +0.000 C 
ENDBRANCH  38  47
TORSDOF 4
ENDMDL
MODEL 4
REMARK VINA RESULT:      -9.5      2.921      6.741
REMARK  Name = Metocurine
REMARK  12 active torsions:
REMARK  status: ('A' for Active; 'I' for Inactive)
REMARK    1  A    between atoms: N_14  and  C_15
REMARK    2  A    between atoms: N_14  and  C_16
REMARK    3  A    between atoms: C_25  and  O_26
REMARK    4  A    between atoms: O_26  and  C_27
REMARK    5  A    between atoms: N_32  and  C_33
REMARK    6  A    between atoms: N_32  and  C_34
REMARK    7  A    between atoms: C_37  and  O_38
REMARK    8  A    between atoms: O_38  and  C_39
REMARK    9  A    between atoms: C_43  and  O_44
REMARK   10  A    between atoms: O_44  and  C_45
REMARK   11  A    between atoms: C_46  and  O_47
REMARK   12  A    between atoms: O_47  and  C_48
REMARK                            x       y       z     vdW  Elec       q    Type
REMARK                         _______ _______ _______ _____ _____    ______ ____
ROOT
ATOM      1  C   UNL     1      -6.314   4.062 132.000  0.00  0.00    +0.000 C 
ATOM      2  C   UNL     1      -7.444   4.567 130.993  0.00  0.00    +0.000 C 
ATOM      3  C   UNL     1      -7.017   4.585 129.528  0.00  0.00    +0.000 A 
ATOM      4  C   UNL     1      -5.738   4.908 129.079  0.00  0.00    +0.000 A 
ATOM      5  C   UNL     1      -5.088   4.601 127.903  0.00  0.00    +0.000 A 
ATOM      6  C   UNL     1      -5.907   4.208 126.903  0.00  0.00    +0.000 A 
ATOM      7  O   UNL     1      -5.232   3.703 125.814  0.00  0.00    +0.000 OA
ATOM      8  C   UNL     1      -5.933   2.973 124.885  0.00  0.00    +0.000 A 
ATOM      9  C   UNL     1      -6.406   1.671 125.133  0.00  0.00    +0.000 A 
ATOM     10  C   UNL     1      -7.207   0.999 124.216  0.00  0.00    +0.000 A 
ATOM     11  C   UNL     1      -7.820  -0.341 124.487  0.00  0.00    +0.000 C 
ATOM     12  C   UNL     1      -7.783  -0.724 125.972  0.00  0.00    +0.000 C 
ATOM     13  N   UNL     1      -6.276  -0.511 126.442  0.00  0.00    +0.000 N 
ATOM     14  C   UNL     1      -5.564  -1.684 125.881  0.00  0.00    +0.000 C 
ATOM     15  C   UNL     1      -5.547  -0.710 127.736  0.00  0.00    +0.000 C 
ATOM     16  C   UNL     1      -6.138   0.982 126.406  0.00  0.00    +0.000 C 
ATOM     17  C   UNL     1      -7.171   1.445 127.480  0.00  0.00    +0.000 C 
ATOM     18  C   UNL     1      -7.271   0.751 128.805  0.00  0.00    +0.000 A 
ATOM     19  C   UNL     1      -7.877  -0.769 129.182  0.00  0.00    +0.000 A 
ATOM     20  C   UNL     1      -7.707  -1.438 130.914  0.00  0.00    +0.000 A 
ATOM     21  O   UNL     1      -8.725  -0.443 131.116  0.00  0.00    +0.000 OA
ATOM     22  C   UNL     1      -7.643   0.322 130.875  0.00  0.00    +0.000 A 
ATOM     23  C   UNL     1      -5.903  -0.494 130.364  0.00  0.00    +0.000 A 
ATOM     24  C   UNL     1      -4.403   0.415 130.533  0.00  0.00    +0.000 A 
ATOM     25  C   UNL     1      -4.572   2.029 131.175  0.00  0.00    +0.000 A 
ATOM     26  C   UNL     1      -3.408   2.652 131.836  0.00  0.00    +0.000 C 
ATOM     27  C   UNL     1      -3.904   3.809 132.791  0.00  0.00    +0.000 C 
ATOM     28  N   UNL     1      -4.993   4.794 132.105  0.00  0.00    +0.000 N 
ATOM     29  C   UNL     1      -4.021   5.587 131.253  0.00  0.00    +0.000 C 
ATOM     30  C   UNL     1      -5.832   6.000 132.488  0.00  0.00    +0.000 C 
ATOM     31  C   UNL     1      -6.193   2.751 131.550  0.00  0.00    +0.000 A 
ATOM     32  C   UNL     1      -7.782   1.912 131.432  0.00  0.00    +0.000 A 
ATOM     33  C   UNL     1      -6.687  -0.749 132.323  0.00  0.00    +0.000 A 
ATOM     34  C   UNL     1      -6.105   0.717 131.844  0.00  0.00    +0.000 A 
ATOM     35  C   UNL     1      -6.315   1.409 129.995  0.00  0.00    +0.000 A 
ATOM     36  C   UNL     1      -7.427   1.557 122.988  0.00  0.00    +0.000 A 
ATOM     37  C   UNL     1      -6.911   2.795 122.691  0.00  0.00    +0.000 A 
ATOM     38  C   UNL     1      -6.153   3.534 123.638  0.00  0.00    +0.000 A 
ATOM     39  C   UNL     1      -7.304   4.146 127.176  0.00  0.00    +0.000 A 
ATOM     40  C   UNL     1      -7.809   4.128 128.519  0.00  0.00    +0.000 A 
ENDROOT
BRANCH  23  41
ATOM     41  O   UNL     1      -5.549  -1.835 130.016  0.00  0.00    +0.000 OA
ATOM     42  C   UNL     1      -4.491  -2.777 130.268  0.00  0.00    +0.000 C 
ENDBRANCH  23  41
BRANCH  33  43
ATOM     43  O   UNL     1      -5.506  -1.198 133.042  0.00  0.00    +0.000 OA
ATOM     44  C   UNL     1      -4.914  -0.303 134.154  0.00  0.00    +0.000 C 
ENDBRANCH  33  43
BRANCH  37  45
ATOM     45  O   UNL     1      -7.341   3.349 121.517  0.00  0.00    +0.000 OA
ATOM     46  C   UNL     1      -8.736   3.399 121.273  0.00  0.00    +0.000 C 
ENDBRANCH  37  45
BRANCH  38  47
ATOM     47  O   UNL     1      -5.612   4.791 123.433  0.00  0.00    +0.000 OA
ATOM     48  C   UNL     1      -4.631   4.704 122.417  0.00  0.00    +0.000 C 
ENDBRANCH  38  47
TORSDOF 4
ENDMDL
MODEL 5
REMARK VINA RESULT:      -9.5      2.292      6.835
REMARK  Name = Metocurine
REMARK  12 active torsions:
REMARK  status: ('A' for Active; 'I' for Inactive)
REMARK    1  A    between atoms: N_14  and  C_15
REMARK    2  A    between atoms: N_14  and  C_16
REMARK    3  A    between atoms: C_25  and  O_26
REMARK    4  A    between atoms: O_26  and  C_27
REMARK    5  A    between atoms: N_32  and  C_33
REMARK    6  A    between atoms: N_32  and  C_34
REMARK    7  A    between atoms: C_37  and  O_38
REMARK    8  A    between atoms: O_38  and  C_39
REMARK    9  A    between atoms: C_43  and  O_44
REMARK   10  A    between atoms: O_44  and  C_45
REMARK   11  A    between atoms: C_46  and  O_47
REMARK   12  A    between atoms: O_47  and  C_48
REMARK                            x       y       z     vdW  Elec       q    Type
REMARK                         _______ _______ _______ _____ _____    ______ ____
ROOT
ATOM      1  C   UNL     1      -6.558   4.352 132.041  0.00  0.00    +0.000 C 
ATOM      2  C   UNL     1      -7.992   4.035 131.417  0.00  0.00    +0.000 C 
ATOM      3  C   UNL     1      -7.947   3.365 130.046  0.00  0.00    +0.000 A 
ATOM      4  C   UNL     1      -7.000   3.639 129.061  0.00  0.00    +0.000 A 
ATOM      5  C   UNL     1      -6.572   2.891 127.986  0.00  0.00    +0.000 A 
ATOM      6  C   UNL     1      -7.409   1.889 127.639  0.00  0.00    +0.000 A 
ATOM      7  O   UNL     1      -6.869   1.026 126.710  0.00  0.00    +0.000 OA
ATOM      8  C   UNL     1      -7.465  -0.197 126.524  0.00  0.00    +0.000 A 
ATOM      9  C   UNL     1      -7.384  -1.239 127.466  0.00  0.00    +0.000 A 
ATOM     10  C   UNL     1      -8.089  -2.428 127.300  0.00  0.00    +0.000 A 
ATOM     11  C   UNL     1      -8.118  -3.515 128.330  0.00  0.00    +0.000 C 
ATOM     12  C   UNL     1      -7.609  -3.052 129.701  0.00  0.00    +0.000 C 
ATOM     13  N   UNL     1      -6.207  -2.348 129.434  0.00  0.00    +0.000 N 
ATOM     14  C   UNL     1      -5.279  -3.484 129.214  0.00  0.00    +0.000 C 
ATOM     15  C   UNL     1      -5.177  -1.701 130.311  0.00  0.00    +0.000 C 
ATOM     16  C   UNL     1      -6.609  -1.098 128.709  0.00  0.00    +0.000 C 
ATOM     17  C   UNL     1      -7.463  -0.346 129.776  0.00  0.00    +0.000 C 
ATOM     18  C   UNL     1      -7.009  -0.251 131.201  0.00  0.00    +0.000 A 
ATOM     19  C   UNL     1      -6.943  -1.432 132.392  0.00  0.00    +0.000 A 
ATOM     20  C   UNL     1      -6.158  -1.052 134.041  0.00  0.00    +0.000 A 
ATOM     21  O   UNL     1      -7.383  -0.310 134.157  0.00  0.00    +0.000 OA
ATOM     22  C   UNL     1      -6.722   0.403 133.226  0.00  0.00    +0.000 A 
ATOM     23  C   UNL     1      -4.974  -0.217 132.510  0.00  0.00    +0.000 A 
ATOM     24  C   UNL     1      -3.888   0.909 131.698  0.00  0.00    +0.000 A 
ATOM     25  C   UNL     1      -4.456   2.555 131.591  0.00  0.00    +0.000 A 
ATOM     26  C   UNL     1      -3.464   3.637 131.432  0.00  0.00    +0.000 C 
ATOM     27  C   UNL     1      -4.099   5.005 131.902  0.00  0.00    +0.000 C 
ATOM     28  N   UNL     1      -5.589   5.263 131.319  0.00  0.00    +0.000 N 
ATOM     29  C   UNL     1      -5.177   5.660 129.915  0.00  0.00    +0.000 C 
ATOM     30  C   UNL     1      -6.684   6.309 131.426  0.00  0.00    +0.000 C 
ATOM     31  C   UNL     1      -6.096   3.048 132.192  0.00  0.00    +0.000 A 
ATOM     32  C   UNL     1      -7.275   1.991 133.049  0.00  0.00    +0.000 A 
ATOM     33  C   UNL     1      -5.148   0.447 134.521  0.00  0.00    +0.000 A 
ATOM     34  C   UNL     1      -5.240   1.526 133.279  0.00  0.00    +0.000 A 
ATOM     35  C   UNL     1      -6.096   1.097 131.540  0.00  0.00    +0.000 A 
ATOM     36  C   UNL     1      -8.765  -2.646 126.133  0.00  0.00    +0.000 A 
ATOM     37  C   UNL     1      -8.795  -1.673 125.162  0.00  0.00    +0.000 A 
ATOM     38  C   UNL     1      -8.146  -0.422 125.339  0.00  0.00    +0.000 A 
ATOM     39  C   UNL     1      -8.595   1.719 128.411  0.00  0.00    +0.000 A 
ATOM     40  C   UNL     1      -8.739   2.310 129.710  0.00  0.00    +0.000 A 
ENDROOT
BRANCH  23  41
ATOM     41  O   UNL     1      -4.264  -1.448 132.671  0.00  0.00    +0.000 OA
ATOM     42  C   UNL     1      -2.914  -1.904 132.864  0.00  0.00    +0.000 C 
ENDBRANCH  23  41
BRANCH  33  43
ATOM     43  O   UNL     1      -3.753   0.669 134.865  0.00  0.00    +0.000 OA
ATOM     44  C   UNL     1      -3.145  -0.081 136.072  0.00  0.00    +0.000 C 
ENDBRANCH  33  43
BRANCH  37  45
ATOM     45  O   UNL     1      -9.648  -1.906 124.119  0.00  0.00    +0.000 OA
ATOM     46  C   UNL     1      -9.440  -3.065 123.331  0.00  0.00    +0.000 C 
ENDBRANCH  37  45
BRANCH  38  47
ATOM     47  O   UNL     1      -8.139   0.618 124.427  0.00  0.00    +0.000 OA
ATOM     48  C   UNL     1      -7.174   0.343 123.430  0.00  0.00    +0.000 C 
ENDBRANCH  38  47
TORSDOF 4
ENDMDL
MODEL 6
REMARK VINA RESULT:      -9.5      2.283      7.728
REMARK  Name = Metocurine
REMARK  12 active torsions:
REMARK  status: ('A' for Active; 'I' for Inactive)
REMARK    1  A    between atoms: N_14  and  C_15
REMARK    2  A    between atoms: N_14  and  C_16
REMARK    3  A    between atoms: C_25  and  O_26
REMARK    4  A    between atoms: O_26  and  C_27
REMARK    5  A    between atoms: N_32  and  C_33
REMARK    6  A    between atoms: N_32  and  C_34
REMARK    7  A    between atoms: C_37  and  O_38
REMARK    8  A    between atoms: O_38  and  C_39
REMARK    9  A    between atoms: C_43  and  O_44
REMARK   10  A    between atoms: O_44  and  C_45
REMARK   11  A    between atoms: C_46  and  O_47
REMARK   12  A    between atoms: O_47  and  C_48
REMARK                            x       y       z     vdW  Elec       q    Type
REMARK                         _______ _______ _______ _____ _____    ______ ____
ROOT
ATOM      1  C   UNL     1      -5.968   4.723 130.424  0.00  0.00    +0.000 C 
ATOM      2  C   UNL     1      -4.821   3.937 131.207  0.00  0.00    +0.000 C 
ATOM      3  C   UNL     1      -5.321   2.750 132.028  0.00  0.00    +0.000 A 
ATOM      4  C   UNL     1      -6.536   2.714 132.710  0.00  0.00    +0.000 A 
ATOM      5  C   UNL     1      -7.300   1.651 133.138  0.00  0.00    +0.000 A 
ATOM      6  C   UNL     1      -6.634   0.477 133.199  0.00  0.00    +0.000 A 
ATOM      7  O   UNL     1      -7.457  -0.605 133.419  0.00  0.00    +0.000 OA
ATOM      8  C   UNL     1      -6.968  -1.864 133.173  0.00  0.00    +0.000 A 
ATOM      9  C   UNL     1      -6.746  -2.360 131.875  0.00  0.00    +0.000 A 
ATOM     10  C   UNL     1      -6.147  -3.597 131.659  0.00  0.00    +0.000 A 
ATOM     11  C   UNL     1      -5.793  -4.112 130.297  0.00  0.00    +0.000 C 
ATOM     12  C   UNL     1      -5.819  -3.019 129.222  0.00  0.00    +0.000 C 
ATOM     13  N   UNL     1      -7.224  -2.286 129.374  0.00  0.00    +0.000 N 
ATOM     14  C   UNL     1      -8.184  -3.237 128.762  0.00  0.00    +0.000 C 
ATOM     15  C   UNL     1      -7.902  -1.163 128.648  0.00  0.00    +0.000 C 
ATOM     16  C   UNL     1      -7.069  -1.564 130.679  0.00  0.00    +0.000 C 
ATOM     17  C   UNL     1      -5.904  -0.570 130.382  0.00  0.00    +0.000 C 
ATOM     18  C   UNL     1      -5.865   0.213 129.104  0.00  0.00    +0.000 A 
ATOM     19  C   UNL     1      -5.548  -0.298 127.537  0.00  0.00    +0.000 A 
ATOM     20  C   UNL     1      -5.745   0.887 126.111  0.00  0.00    +0.000 A 
ATOM     21  O   UNL     1      -4.542   1.397 126.710  0.00  0.00    +0.000 OA
ATOM     22  C   UNL     1      -5.465   1.725 127.634  0.00  0.00    +0.000 A 
ATOM     23  C   UNL     1      -7.358   1.146 127.444  0.00  0.00    +0.000 A 
ATOM     24  C   UNL     1      -8.638   1.961 128.339  0.00  0.00    +0.000 A 
ATOM     25  C   UNL     1      -8.119   3.277 129.360  0.00  0.00    +0.000 A 
ATOM     26  C   UNL     1      -9.098   4.325 129.716  0.00  0.00    +0.000 C 
ATOM     27  C   UNL     1      -8.330   5.637 130.143  0.00  0.00    +0.000 C 
ATOM     28  N   UNL     1      -7.111   5.369 131.177  0.00  0.00    +0.000 N 
ATOM     29  C   UNL     1      -7.956   5.171 132.420  0.00  0.00    +0.000 C 
ATOM     30  C   UNL     1      -6.031   6.163 131.889  0.00  0.00    +0.000 C 
ATOM     31  C   UNL     1      -6.369   3.711 129.556  0.00  0.00    +0.000 A 
ATOM     32  C   UNL     1      -4.985   2.962 128.681  0.00  0.00    +0.000 A 
ATOM     33  C   UNL     1      -6.526   2.587 126.121  0.00  0.00    +0.000 A 
ATOM     34  C   UNL     1      -6.836   2.981 127.691  0.00  0.00    +0.000 A 
ATOM     35  C   UNL     1      -6.603   1.701 129.190  0.00  0.00    +0.000 A 
ATOM     36  C   UNL     1      -5.894  -4.411 132.727  0.00  0.00    +0.000 A 
ATOM     37  C   UNL     1      -6.174  -3.982 134.002  0.00  0.00    +0.000 A 
ATOM     38  C   UNL     1      -6.716  -2.693 134.254  0.00  0.00    +0.000 A 
ATOM     39  C   UNL     1      -5.262   0.473 132.812  0.00  0.00    +0.000 A 
ATOM     40  C   UNL     1      -4.694   1.542 132.042  0.00  0.00    +0.000 A 
ENDROOT
BRANCH  23  41
ATOM     41  O   UNL     1      -7.988   0.243 126.531  0.00  0.00    +0.000 OA
ATOM     42  C   UNL     1      -9.199   0.149 125.762  0.00  0.00    +0.000 C 
ENDBRANCH  23  41
BRANCH  33  43
ATOM     43  O   UNL     1      -7.729   3.160 125.539  0.00  0.00    +0.000 OA
ATOM     44  C   UNL     1      -8.029   4.661 125.753  0.00  0.00    +0.000 C 
ENDBRANCH  33  43
BRANCH  37  45
ATOM     45  O   UNL     1      -5.713  -4.783 135.010  0.00  0.00    +0.000 OA
ATOM     46  C   UNL     1      -6.484  -5.917 135.369  0.00  0.00    +0.000 C 
ENDBRANCH  37  45
BRANCH  38  47
ATOM     47  O   UNL     1      -7.011  -2.173 135.501  0.00  0.00    +0.000 OA
ATOM     48  C   UNL     1      -5.815  -1.704 136.094  0.00  0.00    +0.000 C 
ENDBRANCH  38  47
TORSDOF 4
ENDMDL
MODEL 7
REMARK VINA RESULT:      -9.2      2.592      6.393
REMARK  Name = Metocurine
REMARK  12 active torsions:
REMARK  status: ('A' for Active; 'I' for Inactive)
REMARK    1  A    between atoms: N_14  and  C_15
REMARK    2  A    between atoms: N_14  and  C_16
REMARK    3  A    between atoms: C_25  and  O_26
REMARK    4  A    between atoms: O_26  and  C_27
REMARK    5  A    between atoms: N_32  and  C_33
REMARK    6  A    between atoms: N_32  and  C_34
REMARK    7  A    between atoms: C_37  and  O_38
REMARK    8  A    between atoms: O_38  and  C_39
REMARK    9  A    between atoms: C_43  and  O_44
REMARK   10  A    between atoms: O_44  and  C_45
REMARK   11  A    between atoms: C_46  and  O_47
REMARK   12  A    between atoms: O_47  and  C_48
REMARK                            x       y       z     vdW  Elec       q    Type
REMARK                         _______ _______ _______ _____ _____    ______ ____
ROOT
ATOM      1  C   UNL     1      -4.018  -2.903 132.567  0.00  0.00    +0.000 C 
ATOM      2  C   UNL     1      -3.500  -2.934 131.058  0.00  0.00    +0.000 C 
ATOM      3  C   UNL     1      -4.612  -2.973 130.013  0.00  0.00    +0.000 A 
ATOM      4  C   UNL     1      -5.818  -3.655 130.164  0.00  0.00    +0.000 A 
ATOM      5  C   UNL     1      -7.038  -3.482 129.547  0.00  0.00    +0.000 A 
ATOM      6  C   UNL     1      -6.983  -2.768 128.401  0.00  0.00    +0.000 A 
ATOM      7  O   UNL     1      -8.225  -2.423 127.915  0.00  0.00    +0.000 OA
ATOM      8  C   UNL     1      -8.310  -1.435 126.965  0.00  0.00    +0.000 A 
ATOM      9  C   UNL     1      -8.100  -0.074 127.256  0.00  0.00    +0.000 A 
ATOM     10  C   UNL     1      -8.083   0.891 126.254  0.00  0.00    +0.000 A 
ATOM     11  C   UNL     1      -7.755   2.331 126.506  0.00  0.00    +0.000 C 
ATOM     12  C   UNL     1      -7.100   2.563 127.873  0.00  0.00    +0.000 C 
ATOM     13  N   UNL     1      -8.037   1.838 128.938  0.00  0.00    +0.000 N 
ATOM     14  C   UNL     1      -9.191   2.760 129.074  0.00  0.00    +0.000 C 
ATOM     15  C   UNL     1      -8.005   1.688 130.429  0.00  0.00    +0.000 C 
ATOM     16  C   UNL     1      -7.817   0.388 128.624  0.00  0.00    +0.000 C 
ATOM     17  C   UNL     1      -6.299   0.200 128.936  0.00  0.00    +0.000 C 
ATOM     18  C   UNL     1      -5.688   0.782 130.175  0.00  0.00    +0.000 A 
ATOM     19  C   UNL     1      -5.354   2.381 130.563  0.00  0.00    +0.000 A 
ATOM     20  C   UNL     1      -4.745   2.820 132.270  0.00  0.00    +0.000 A 
ATOM     21  O   UNL     1      -3.571   2.194 131.726  0.00  0.00    +0.000 OA
ATOM     22  C   UNL     1      -4.402   1.144 131.855  0.00  0.00    +0.000 A 
ATOM     23  C   UNL     1      -6.287   1.391 132.438  0.00  0.00    +0.000 A 
ATOM     24  C   UNL     1      -7.212   0.037 133.082  0.00  0.00    +0.000 A 
ATOM     25  C   UNL     1      -6.357  -1.482 133.169  0.00  0.00    +0.000 A 
ATOM     26  C   UNL     1      -6.816  -2.498 134.137  0.00  0.00    +0.000 C 
ATOM     27  C   UNL     1      -5.637  -3.505 134.441  0.00  0.00    +0.000 C 
ATOM     28  N   UNL     1      -4.872  -4.028 133.112  0.00  0.00    +0.000 N 
ATOM     29  C   UNL     1      -5.925  -5.022 132.665  0.00  0.00    +0.000 C 
ATOM     30  C   UNL     1      -3.699  -4.924 132.757  0.00  0.00    +0.000 C 
ATOM     31  C   UNL     1      -4.662  -1.669 132.549  0.00  0.00    +0.000 A 
ATOM     32  C   UNL     1      -3.621  -0.355 131.890  0.00  0.00    +0.000 A 
ATOM     33  C   UNL     1      -4.680   1.729 133.788  0.00  0.00    +0.000 A 
ATOM     34  C   UNL     1      -5.061   0.197 133.316  0.00  0.00    +0.000 A 
ATOM     35  C   UNL     1      -5.693  -0.241 131.485  0.00  0.00    +0.000 A 
ATOM     36  C   UNL     1      -8.414   0.534 124.977  0.00  0.00    +0.000 A 
ATOM     37  C   UNL     1      -8.699  -0.778 124.681  0.00  0.00    +0.000 A 
ATOM     38  C   UNL     1      -8.649  -1.795 125.672  0.00  0.00    +0.000 A 
ATOM     39  C   UNL     1      -5.711  -2.280 127.984  0.00  0.00    +0.000 A 
ATOM     40  C   UNL     1      -4.599  -2.206 128.888  0.00  0.00    +0.000 A 
ENDROOT
BRANCH  23  41
ATOM     41  O   UNL     1      -7.076   2.569 132.625  0.00  0.00    +0.000 OA
ATOM     42  C   UNL     1      -8.052   3.085 133.547  0.00  0.00    +0.000 C 
ENDBRANCH  23  41
BRANCH  33  43
ATOM     43  O   UNL     1      -5.378   1.715 135.064  0.00  0.00    +0.000 OA
ATOM     44  C   UNL     1      -5.078   0.585 136.075  0.00  0.00    +0.000 C 
ENDBRANCH  33  43
BRANCH  37  45
ATOM     45  O   UNL     1      -8.830  -1.068 123.351  0.00  0.00    +0.000 OA
ATOM     46  C   UNL     1      -9.797  -0.351 122.602  0.00  0.00    +0.000 C 
ENDBRANCH  37  45
BRANCH  38  47
ATOM     47  O   UNL     1      -8.902  -3.138 125.460  0.00  0.00    +0.000 OA
ATOM     48  C   UNL     1      -7.781  -3.718 124.822  0.00  0.00    +0.000 C 
ENDBRANCH  38  47
TORSDOF 4
ENDMDL
MODEL 8
REMARK VINA RESULT:      -8.9      2.538      8.985
REMARK  Name = Metocurine
REMARK  12 active torsions:
REMARK  status: ('A' for Active; 'I' for Inactive)
REMARK    1  A    between atoms: N_14  and  C_15
REMARK    2  A    between atoms: N_14  and  C_16
REMARK    3  A    between atoms: C_25  and  O_26
REMARK    4  A    between atoms: O_26  and  C_27
REMARK    5  A    between atoms: N_32  and  C_33
REMARK    6  A    between atoms: N_32  and  C_34
REMARK    7  A    between atoms: C_37  and  O_38
REMARK    8  A    between atoms: O_38  and  C_39
REMARK    9  A    between atoms: C_43  and  O_44
REMARK   10  A    between atoms: O_44  and  C_45
REMARK   11  A    between atoms: C_46  and  O_47
REMARK   12  A    between atoms: O_47  and  C_48
REMARK                            x       y       z     vdW  Elec       q    Type
REMARK                         _______ _______ _______ _____ _____    ______ ____
ROOT
ATOM      1  C   UNL     1      -4.901   6.122 134.486  0.00  0.00    +0.000 C 
ATOM      2  C   UNL     1      -3.562   5.376 134.042  0.00  0.00    +0.000 C 
ATOM      3  C   UNL     1      -3.564   3.872 134.303  0.00  0.00    +0.000 A 
ATOM      4  C   UNL     1      -4.160   3.260 135.405  0.00  0.00    +0.000 A 
ATOM      5  C   UNL     1      -4.598   1.967 135.593  0.00  0.00    +0.000 A 
ATOM      6  C   UNL     1      -4.090   1.076 134.713  0.00  0.00    +0.000 A 
ATOM      7  O   UNL     1      -4.697  -0.159 134.778  0.00  0.00    +0.000 OA
ATOM      8  C   UNL     1      -4.517  -1.037 133.738  0.00  0.00    +0.000 A 
ATOM      9  C   UNL     1      -5.117  -0.864 132.477  0.00  0.00    +0.000 A 
ATOM     10  C   UNL     1      -4.828  -1.708 131.409  0.00  0.00    +0.000 A 
ATOM     11  C   UNL     1      -5.358  -1.494 130.025  0.00  0.00    +0.000 C 
ATOM     12  C   UNL     1      -5.936  -0.088 129.820  0.00  0.00    +0.000 C 
ATOM     13  N   UNL     1      -6.948   0.152 131.026  0.00  0.00    +0.000 N 
ATOM     14  C   UNL     1      -8.139  -0.647 130.649  0.00  0.00    +0.000 C 
ATOM     15  C   UNL     1      -7.853   1.279 131.424  0.00  0.00    +0.000 C 
ATOM     16  C   UNL     1      -6.024   0.262 132.202  0.00  0.00    +0.000 C 
ATOM     17  C   UNL     1      -5.189   1.535 131.859  0.00  0.00    +0.000 C 
ATOM     18  C   UNL     1      -5.850   2.772 131.329  0.00  0.00    +0.000 A 
ATOM     19  C   UNL     1      -6.529   3.069 129.822  0.00  0.00    +0.000 A 
ATOM     20  C   UNL     1      -7.444   4.663 129.509  0.00  0.00    +0.000 A 
ATOM     21  O   UNL     1      -6.088   5.140 129.535  0.00  0.00    +0.000 OA
ATOM     22  C   UNL     1      -6.284   4.813 130.825  0.00  0.00    +0.000 A 
ATOM     23  C   UNL     1      -7.968   3.936 131.417  0.00  0.00    +0.000 A 
ATOM     24  C   UNL     1      -8.444   3.960 133.114  0.00  0.00    +0.000 A 
ATOM     25  C   UNL     1      -7.353   4.799 134.186  0.00  0.00    +0.000 A 
ATOM     26  C   UNL     1      -7.880   5.328 135.460  0.00  0.00    +0.000 C 
ATOM     27  C   UNL     1      -6.930   6.475 135.986  0.00  0.00    +0.000 C 
ATOM     28  N   UNL     1      -5.357   6.091 135.929  0.00  0.00    +0.000 N 
ATOM     29  C   UNL     1      -5.337   5.188 137.146  0.00  0.00    +0.000 C 
ATOM     30  C   UNL     1      -4.019   6.740 136.237  0.00  0.00    +0.000 C 
ATOM     31  C   UNL     1      -5.790   5.512 133.605  0.00  0.00    +0.000 A 
ATOM     32  C   UNL     1      -5.214   5.561 131.899  0.00  0.00    +0.000 A 
ATOM     33  C   UNL     1      -7.972   5.956 130.754  0.00  0.00    +0.000 A 
ATOM     34  C   UNL     1      -7.292   5.557 132.201  0.00  0.00    +0.000 A 
ATOM     35  C   UNL     1      -6.311   3.857 132.500  0.00  0.00    +0.000 A 
ATOM     36  C   UNL     1      -4.052  -2.813 131.624  0.00  0.00    +0.000 A 
ATOM     37  C   UNL     1      -3.517  -3.048 132.867  0.00  0.00    +0.000 A 
ATOM     38  C   UNL     1      -3.735  -2.160 133.954  0.00  0.00    +0.000 A 
ATOM     39  C   UNL     1      -3.199   1.565 133.715  0.00  0.00    +0.000 A 
ATOM     40  C   UNL     1      -3.118   2.961 133.396  0.00  0.00    +0.000 A 
ENDROOT
BRANCH  23  41
ATOM     41  O   UNL     1      -9.063   3.387 130.678  0.00  0.00    +0.000 OA
ATOM     42  C   UNL     1     -10.500   3.430 130.677  0.00  0.00    +0.000 C 
ENDBRANCH  23  41
BRANCH  33  43
ATOM     43  O   UNL     1      -9.253   6.417 131.264  0.00  0.00    +0.000 OA
ATOM     44  C   UNL     1     -10.241   7.114 130.302  0.00  0.00    +0.000 C 
ENDBRANCH  33  43
BRANCH  37  45
ATOM     45  O   UNL     1      -2.606  -4.066 132.936  0.00  0.00    +0.000 OA
ATOM     46  C   UNL     1      -3.003  -5.277 133.556  0.00  0.00    +0.000 C 
ENDBRANCH  37  45
BRANCH  38  47
ATOM     47  O   UNL     1      -3.223  -2.307 135.231  0.00  0.00    +0.000 OA
ATOM     48  C   UNL     1      -1.877  -1.872 135.234  0.00  0.00    +0.000 C 
ENDBRANCH  38  47
TORSDOF 4
ENDMDL
MODEL 9
REMARK VINA RESULT:      -8.7      2.732      5.645
REMARK  Name = Metocurine
REMARK  12 active torsions:
REMARK  status: ('A' for Active; 'I' for Inactive)
REMARK    1  A    between atoms: N_14  and  C_15
REMARK    2  A    between atoms: N_14  and  C_16
REMARK    3  A    between atoms: C_25  and  O_26
REMARK    4  A    between atoms: O_26  and  C_27
REMARK    5  A    between atoms: N_32  and  C_33
REMARK    6  A    between atoms: N_32  and  C_34
REMARK    7  A    between atoms: C_37  and  O_38
REMARK    8  A    between atoms: O_38  and  C_39
REMARK    9  A    between atoms: C_43  and  O_44
REMARK   10  A    between atoms: O_44  and  C_45
REMARK   11  A    between atoms: C_46  and  O_47
REMARK   12  A    between atoms: O_47  and  C_48
REMARK                            x       y       z     vdW  Elec       q    Type
REMARK                         _______ _______ _______ _____ _____    ______ ____
ROOT
ATOM      1  C   UNL     1      -4.652  -2.442 131.202  0.00  0.00    +0.000 C 
ATOM      2  C   UNL     1      -4.118  -2.170 129.723  0.00  0.00    +0.000 C 
ATOM      3  C   UNL     1      -5.212  -1.845 128.709  0.00  0.00    +0.000 A 
ATOM      4  C   UNL     1      -6.484  -2.415 128.707  0.00  0.00    +0.000 A 
ATOM      5  C   UNL     1      -7.670  -1.974 128.160  0.00  0.00    +0.000 A 
ATOM      6  C   UNL     1      -7.524  -1.020 127.214  0.00  0.00    +0.000 A 
ATOM      7  O   UNL     1      -8.716  -0.443 126.836  0.00  0.00    +0.000 OA
ATOM      8  C   UNL     1      -8.683   0.744 126.147  0.00  0.00    +0.000 A 
ATOM      9  C   UNL     1      -8.338   1.969 126.748  0.00  0.00    +0.000 A 
ATOM     10  C   UNL     1      -8.206   3.136 126.002  0.00  0.00    +0.000 A 
ATOM     11  C   UNL     1      -7.735   4.434 126.583  0.00  0.00    +0.000 C 
ATOM     12  C   UNL     1      -7.080   4.267 127.960  0.00  0.00    +0.000 C 
ATOM     13  N   UNL     1      -8.103   3.414 128.833  0.00  0.00    +0.000 N 
ATOM     14  C   UNL     1      -9.157   4.393 129.194  0.00  0.00    +0.000 C 
ATOM     15  C   UNL     1      -8.108   2.914 130.246  0.00  0.00    +0.000 C 
ATOM     16  C   UNL     1      -8.029   2.064 128.184  0.00  0.00    +0.000 C 
ATOM     17  C   UNL     1      -6.544   1.650 128.428  0.00  0.00    +0.000 C 
ATOM     18  C   UNL     1      -5.895   1.857 129.763  0.00  0.00    +0.000 A 
ATOM     19  C   UNL     1      -5.403   3.276 130.513  0.00  0.00    +0.000 A 
ATOM     20  C   UNL     1      -4.778   3.234 132.270  0.00  0.00    +0.000 A 
ATOM     21  O   UNL     1      -3.666   2.635 131.582  0.00  0.00    +0.000 OA
ATOM     22  C   UNL     1      -4.604   1.676 131.469  0.00  0.00    +0.000 A 
ATOM     23  C   UNL     1      -6.462   1.975 132.112  0.00  0.00    +0.000 A 
ATOM     24  C   UNL     1      -7.532   0.611 132.427  0.00  0.00    +0.000 A 
ATOM     25  C   UNL     1      -6.840  -0.966 132.145  0.00  0.00    +0.000 A 
ATOM     26  C   UNL     1      -7.417  -2.128 132.850  0.00  0.00    +0.000 C 
ATOM     27  C   UNL     1      -6.354  -3.296 132.897  0.00  0.00    +0.000 C 
ATOM     28  N   UNL     1      -5.627  -3.568 131.474  0.00  0.00    +0.000 N 
ATOM     29  C   UNL     1      -6.771  -4.314 130.816  0.00  0.00    +0.000 C 
ATOM     30  C   UNL     1      -4.548  -4.473 130.906  0.00  0.00    +0.000 C 
ATOM     31  C   UNL     1      -5.165  -1.178 131.481  0.00  0.00    +0.000 A 
ATOM     32  C   UNL     1      -3.983   0.138 131.141  0.00  0.00    +0.000 A 
ATOM     33  C   UNL     1      -4.849   1.816 133.488  0.00  0.00    +0.000 A 
ATOM     34  C   UNL     1      -5.379   0.486 132.671  0.00  0.00    +0.000 A 
ATOM     35  C   UNL     1      -6.025   0.560 130.795  0.00  0.00    +0.000 A 
ATOM     36  C   UNL     1      -8.552   3.126 124.680  0.00  0.00    +0.000 A 
ATOM     37  C   UNL     1      -8.968   1.958 124.085  0.00  0.00    +0.000 A 
ATOM     38  C   UNL     1      -9.039   0.737 124.808  0.00  0.00    +0.000 A 
ATOM     39  C   UNL     1      -6.202  -0.584 126.912  0.00  0.00    +0.000 A 
ATOM     40  C   UNL     1      -5.103  -0.841 127.797  0.00  0.00    +0.000 A 
ENDROOT
BRANCH  23  41
ATOM     41  O   UNL     1      -7.127   3.151 132.579  0.00  0.00    +0.000 OA
ATOM     42  C   UNL     1      -8.051   3.536 133.612  0.00  0.00    +0.000 C 
ENDBRANCH  23  41
BRANCH  33  43
ATOM     43  O   UNL     1      -5.564   1.574 134.731  0.00  0.00    +0.000 OA
ATOM     44  C   UNL     1      -5.419   0.203 135.430  0.00  0.00    +0.000 C 
ENDBRANCH  33  43
BRANCH  37  45
ATOM     45  O   UNL     1      -9.108   2.005 122.726  0.00  0.00    +0.000 OA
ATOM     46  C   UNL     1      -8.557   3.112 122.035  0.00  0.00    +0.000 C 
ENDBRANCH  37  45
BRANCH  38  47
ATOM     47  O   UNL     1      -9.427  -0.485 124.288  0.00  0.00    +0.000 OA
ATOM     48  C   UNL     1      -8.343  -1.038 123.567  0.00  0.00    +0.000 C 
ENDBRANCH  38  47
TORSDOF 4
ENDMDL
