MODEL 1
REMARK VINA RESULT:      -5.2      0.000      0.000
REMARK  Name = Metronidazole
REMARK  5 active torsions:
REMARK  status: ('A' for Active; 'I' for Inactive)
REMARK    1  A    between atoms: C_1  and  C_2
REMARK    2  A    between atoms: C_5  and  N_10
REMARK    3  A    between atoms: N_6  and  C_7
REMARK    4  A    between atoms: C_7  and  C_8
REMARK    5  A    between atoms: C_8  and  O_9
REMARK                            x       y       z     vdW  Elec       q    Type
REMARK                         _______ _______ _______ _____ _____    ______ ____
ROOT
ATOM      1  C   UNL     1     -12.851   7.488 131.004  0.00  0.00    +0.000 C 
ATOM      2  C   UNL     1     -12.620   7.369 129.536  0.00  0.00    +0.000 A 
ATOM      3  N   UNL     1     -13.605   7.191 128.677  0.00  0.00    +0.000 NA
ATOM      4  C   UNL     1     -13.036   7.124 127.437  0.00  0.00    +0.000 A 
ATOM      5  C   UNL     1     -11.675   7.260 127.534  0.00  0.00    +0.000 A 
ATOM      6  N   UNL     1     -11.392   7.421 128.879  0.00  0.00    +0.000 N 
ENDROOT
BRANCH   5   7
ATOM      7  N   UNL     1     -10.731   7.237 126.465  0.00  0.00    +0.000 N 
ATOM      8  O   UNL     1      -9.879   6.337 126.462  0.00  0.00    +0.000 OA
ATOM      9  O   UNL     1     -10.838   8.121 125.612  0.00  0.00    +0.000 OA
ENDBRANCH   5   7
BRANCH   6  10
ATOM     10  C   UNL     1     -10.064   7.601 129.446  0.00  0.00    +0.000 C 
BRANCH  10  11
ATOM     11  C   UNL     1      -9.383   6.372 130.029  0.00  0.00    +0.000 C 
BRANCH  11  12
ATOM     12  O   UNL     1      -9.517   5.234 129.196  0.00  0.00    +0.000 OA
ATOM     13  H   UNL     1     -10.456   4.982 129.195  0.00  0.00    +0.000 HD
ENDBRANCH  11  12
ENDBRANCH  10  11
ENDBRANCH   6  10
TORSDOF 4
ENDMDL
MODEL 2
REMARK VINA RESULT:      -5.2      1.613      3.093
REMARK  Name = Metronidazole
REMARK  5 active torsions:
REMARK  status: ('A' for Active; 'I' for Inactive)
REMARK    1  A    between atoms: C_1  and  C_2
REMARK    2  A    between atoms: C_5  and  N_10
REMARK    3  A    between atoms: N_6  and  C_7
REMARK    4  A    between atoms: C_7  and  C_8
REMARK    5  A    between atoms: C_8  and  O_9
REMARK                            x       y       z     vdW  Elec       q    Type
REMARK                         _______ _______ _______ _____ _____    ______ ____
ROOT
ATOM      1  C   UNL     1     -13.213   9.616 129.208  0.00  0.00    +0.000 C 
ATOM      2  C   UNL     1     -12.370   8.486 129.692  0.00  0.00    +0.000 A 
ATOM      3  N   UNL     1     -12.635   7.834 130.808  0.00  0.00    +0.000 NA
ATOM      4  C   UNL     1     -11.668   6.878 130.941  0.00  0.00    +0.000 A 
ATOM      5  C   UNL     1     -10.790   6.944 129.890  0.00  0.00    +0.000 A 
ATOM      6  N   UNL     1     -11.230   7.972 129.077  0.00  0.00    +0.000 N 
ENDROOT
BRANCH   5   7
ATOM      7  N   UNL     1      -9.646   6.120 129.674  0.00  0.00    +0.000 N 
ATOM      8  O   UNL     1      -9.804   5.054 129.064  0.00  0.00    +0.000 OA
ATOM      9  O   UNL     1      -8.571   6.539 130.109  0.00  0.00    +0.000 OA
ENDBRANCH   5   7
BRANCH   6  10
ATOM     10  C   UNL     1     -10.595   8.398 127.838  0.00  0.00    +0.000 C 
BRANCH  10  11
ATOM     11  C   UNL     1     -10.969   7.648 126.569  0.00  0.00    +0.000 C 
BRANCH  11  12
ATOM     12  O   UNL     1     -10.161   6.503 126.360  0.00  0.00    +0.000 OA
ATOM     13  H   UNL     1      -9.310   6.808 126.004  0.00  0.00    +0.000 HD
ENDBRANCH  11  12
ENDBRANCH  10  11
ENDBRANCH   6  10
TORSDOF 4
ENDMDL
MODEL 3
REMARK VINA RESULT:      -4.8      2.679      4.504
REMARK  Name = Metronidazole
REMARK  5 active torsions:
REMARK  status: ('A' for Active; 'I' for Inactive)
REMARK    1  A    between atoms: C_1  and  C_2
REMARK    2  A    between atoms: C_5  and  N_10
REMARK    3  A    between atoms: N_6  and  C_7
REMARK    4  A    between atoms: C_7  and  C_8
REMARK    5  A    between atoms: C_8  and  O_9
REMARK                            x       y       z     vdW  Elec       q    Type
REMARK                         _______ _______ _______ _____ _____    ______ ____
ROOT
ATOM      1  C   UNL     1     -11.176   7.669 126.658  0.00  0.00    +0.000 C 
ATOM      2  C   UNL     1     -10.850   7.146 128.016  0.00  0.00    +0.000 A 
ATOM      3  N   UNL     1      -9.767   6.431 128.258  0.00  0.00    +0.000 NA
ATOM      4  C   UNL     1      -9.791   6.124 129.588  0.00  0.00    +0.000 A 
ATOM      5  C   UNL     1     -10.909   6.656 130.177  0.00  0.00    +0.000 A 
ATOM      6  N   UNL     1     -11.599   7.319 129.178  0.00  0.00    +0.000 N 
ENDROOT
BRANCH   5   7
ATOM      7  N   UNL     1     -11.293   6.548 131.546  0.00  0.00    +0.000 N 
ATOM      8  O   UNL     1     -10.401   6.586 132.405  0.00  0.00    +0.000 OA
ATOM      9  O   UNL     1     -12.499   6.430 131.777  0.00  0.00    +0.000 OA
ENDBRANCH   5   7
BRANCH   6  10
ATOM     10  C   UNL     1     -12.855   8.035 129.353  0.00  0.00    +0.000 C 
BRANCH  10  11
ATOM     11  C   UNL     1     -12.773   9.531 129.615  0.00  0.00    +0.000 C 
BRANCH  11  12
ATOM     12  O   UNL     1     -13.389  10.293 128.591  0.00  0.00    +0.000 OA
ATOM     13  H   UNL     1     -13.543   9.698 127.838  0.00  0.00    +0.000 HD
ENDBRANCH  11  12
ENDBRANCH  10  11
ENDBRANCH   6  10
TORSDOF 4
ENDMDL
MODEL 4
REMARK VINA RESULT:      -4.8      2.670      3.494
REMARK  Name = Metronidazole
REMARK  5 active torsions:
REMARK  status: ('A' for Active; 'I' for Inactive)
REMARK    1  A    between atoms: C_1  and  C_2
REMARK    2  A    between atoms: C_5  and  N_10
REMARK    3  A    between atoms: N_6  and  C_7
REMARK    4  A    between atoms: C_7  and  C_8
REMARK    5  A    between atoms: C_8  and  O_9
REMARK                            x       y       z     vdW  Elec       q    Type
REMARK                         _______ _______ _______ _____ _____    ______ ____
ROOT
ATOM      1  C   UNL     1     -10.920   7.533 126.391  0.00  0.00    +0.000 C 
ATOM      2  C   UNL     1     -11.801   7.385 127.584  0.00  0.00    +0.000 A 
ATOM      3  N   UNL     1     -13.085   7.095 127.486  0.00  0.00    +0.000 NA
ATOM      4  C   UNL     1     -13.573   7.041 128.760  0.00  0.00    +0.000 A 
ATOM      5  C   UNL     1     -12.573   7.305 129.661  0.00  0.00    +0.000 A 
ATOM      6  N   UNL     1     -11.427   7.526 128.919  0.00  0.00    +0.000 N 
ENDROOT
BRANCH   5   7
ATOM      7  N   UNL     1     -12.687   7.348 131.082  0.00  0.00    +0.000 N 
ATOM      8  O   UNL     1     -12.384   6.331 131.720  0.00  0.00    +0.000 OA
ATOM      9  O   UNL     1     -13.077   8.409 131.575  0.00  0.00    +0.000 OA
ENDBRANCH   5   7
BRANCH   6  10
ATOM     10  C   UNL     1     -10.116   7.843 129.468  0.00  0.00    +0.000 C 
BRANCH  10  11
ATOM     11  C   UNL     1      -9.349   6.714 130.139  0.00  0.00    +0.000 C 
BRANCH  11  12
ATOM     12  O   UNL     1      -9.408   6.787 131.553  0.00  0.00    +0.000 OA
ATOM     13  H   UNL     1      -9.973   6.059 131.859  0.00  0.00    +0.000 HD
ENDBRANCH  11  12
ENDBRANCH  10  11
ENDBRANCH   6  10
TORSDOF 4
ENDMDL
MODEL 5
REMARK VINA RESULT:      -4.5      7.062      8.259
REMARK  Name = Metronidazole
REMARK  5 active torsions:
REMARK  status: ('A' for Active; 'I' for Inactive)
REMARK    1  A    between atoms: C_1  and  C_2
REMARK    2  A    between atoms: C_5  and  N_10
REMARK    3  A    between atoms: N_6  and  C_7
REMARK    4  A    between atoms: C_7  and  C_8
REMARK    5  A    between atoms: C_8  and  O_9
REMARK                            x       y       z     vdW  Elec       q    Type
REMARK                         _______ _______ _______ _____ _____    ______ ____
ROOT
ATOM      1  C   UNL     1      -5.286   4.176 120.890  0.00  0.00    +0.000 C 
ATOM      2  C   UNL     1      -6.609   3.763 121.440  0.00  0.00    +0.000 A 
ATOM      3  N   UNL     1      -7.697   3.702 120.695  0.00  0.00    +0.000 NA
ATOM      4  C   UNL     1      -8.710   3.296 121.516  0.00  0.00    +0.000 A 
ATOM      5  C   UNL     1      -8.239   3.106 122.790  0.00  0.00    +0.000 A 
ATOM      6  N   UNL     1      -6.888   3.400 122.756  0.00  0.00    +0.000 N 
ENDROOT
BRANCH   5   7
ATOM      7  N   UNL     1      -8.989   2.691 123.930  0.00  0.00    +0.000 N 
ATOM      8  O   UNL     1      -9.008   3.440 124.917  0.00  0.00    +0.000 OA
ATOM      9  O   UNL     1      -9.574   1.609 123.845  0.00  0.00    +0.000 OA
ENDBRANCH   5   7
BRANCH   6  10
ATOM     10  C   UNL     1      -5.982   3.335 123.893  0.00  0.00    +0.000 C 
BRANCH  10  11
ATOM     11  C   UNL     1      -5.624   4.646 124.576  0.00  0.00    +0.000 C 
BRANCH  11  12
ATOM     12  O   UNL     1      -6.753   5.479 124.771  0.00  0.00    +0.000 OA
ATOM     13  H   UNL     1      -6.782   5.714 125.713  0.00  0.00    +0.000 HD
ENDBRANCH  11  12
ENDBRANCH  10  11
ENDBRANCH   6  10
TORSDOF 4
ENDMDL
MODEL 6
REMARK VINA RESULT:      -4.5      3.313      4.654
REMARK  Name = Metronidazole
REMARK  5 active torsions:
REMARK  status: ('A' for Active; 'I' for Inactive)
REMARK    1  A    between atoms: C_1  and  C_2
REMARK    2  A    between atoms: C_5  and  N_10
REMARK    3  A    between atoms: N_6  and  C_7
REMARK    4  A    between atoms: C_7  and  C_8
REMARK    5  A    between atoms: C_8  and  O_9
REMARK                            x       y       z     vdW  Elec       q    Type
REMARK                         _______ _______ _______ _____ _____    ______ ____
ROOT
ATOM      1  C   UNL     1      -6.760   6.440 131.780  0.00  0.00    +0.000 C 
ATOM      2  C   UNL     1      -8.119   6.590 131.185  0.00  0.00    +0.000 A 
ATOM      3  N   UNL     1      -8.385   7.474 130.243  0.00  0.00    +0.000 NA
ATOM      4  C   UNL     1      -9.710   7.336 129.940  0.00  0.00    +0.000 A 
ATOM      5  C   UNL     1     -10.271   6.351 130.711  0.00  0.00    +0.000 A 
ATOM      6  N   UNL     1      -9.259   5.859 131.515  0.00  0.00    +0.000 N 
ENDROOT
BRANCH   5   7
ATOM      7  N   UNL     1     -11.629   5.916 130.695  0.00  0.00    +0.000 N 
ATOM      8  O   UNL     1     -12.412   6.425 131.510  0.00  0.00    +0.000 OA
ATOM      9  O   UNL     1     -11.928   5.062 129.857  0.00  0.00    +0.000 OA
ENDBRANCH   5   7
BRANCH   6  10
ATOM     10  C   UNL     1      -9.404   4.795 132.498  0.00  0.00    +0.000 C 
BRANCH  10  11
ATOM     11  C   UNL     1      -9.301   3.364 131.996  0.00  0.00    +0.000 C 
BRANCH  11  12
ATOM     12  O   UNL     1     -10.540   2.866 131.522  0.00  0.00    +0.000 OA
ATOM     13  H   UNL     1     -11.136   3.626 131.414  0.00  0.00    +0.000 HD
ENDBRANCH  11  12
ENDBRANCH  10  11
ENDBRANCH   6  10
TORSDOF 4
ENDMDL
MODEL 7
REMARK VINA RESULT:      -4.2      1.927      3.662
REMARK  Name = Metronidazole
REMARK  5 active torsions:
REMARK  status: ('A' for Active; 'I' for Inactive)
REMARK    1  A    between atoms: C_1  and  C_2
REMARK    2  A    between atoms: C_5  and  N_10
REMARK    3  A    between atoms: N_6  and  C_7
REMARK    4  A    between atoms: C_7  and  C_8
REMARK    5  A    between atoms: C_8  and  O_9
REMARK                            x       y       z     vdW  Elec       q    Type
REMARK                         _______ _______ _______ _____ _____    ______ ____
ROOT
ATOM      1  C   UNL     1     -12.934   7.690 131.254  0.00  0.00    +0.000 C 
ATOM      2  C   UNL     1     -11.704   6.850 131.180  0.00  0.00    +0.000 A 
ATOM      3  N   UNL     1     -11.133   6.334 132.252  0.00  0.00    +0.000 NA
ATOM      4  C   UNL     1     -10.043   5.636 131.817  0.00  0.00    +0.000 A 
ATOM      5  C   UNL     1      -9.938   5.725 130.452  0.00  0.00    +0.000 A 
ATOM      6  N   UNL     1     -11.001   6.501 130.028  0.00  0.00    +0.000 N 
ENDROOT
BRANCH   5   7
ATOM      7  N   UNL     1      -8.932   5.139 129.628  0.00  0.00    +0.000 N 
ATOM      8  O   UNL     1      -7.867   5.755 129.484  0.00  0.00    +0.000 OA
ATOM      9  O   UNL     1      -9.199   4.047 129.119  0.00  0.00    +0.000 OA
ENDBRANCH   5   7
BRANCH   6  10
ATOM     10  C   UNL     1     -11.285   6.859 128.646  0.00  0.00    +0.000 C 
BRANCH  10  11
ATOM     11  C   UNL     1     -10.599   8.098 128.091  0.00  0.00    +0.000 C 
BRANCH  11  12
ATOM     12  O   UNL     1     -10.838   8.274 126.706  0.00  0.00    +0.000 OA
ATOM     13  H   UNL     1     -11.760   8.019 126.535  0.00  0.00    +0.000 HD
ENDBRANCH  11  12
ENDBRANCH  10  11
ENDBRANCH   6  10
TORSDOF 4
ENDMDL
MODEL 8
REMARK VINA RESULT:      -4.2      8.867      9.835
REMARK  Name = Metronidazole
REMARK  5 active torsions:
REMARK  status: ('A' for Active; 'I' for Inactive)
REMARK    1  A    between atoms: C_1  and  C_2
REMARK    2  A    between atoms: C_5  and  N_10
REMARK    3  A    between atoms: N_6  and  C_7
REMARK    4  A    between atoms: C_7  and  C_8
REMARK    5  A    between atoms: C_8  and  O_9
REMARK                            x       y       z     vdW  Elec       q    Type
REMARK                         _______ _______ _______ _____ _____    ______ ____
ROOT
ATOM      1  C   UNL     1      -6.011  -1.558 126.049  0.00  0.00    +0.000 C 
ATOM      2  C   UNL     1      -6.886  -0.724 125.177  0.00  0.00    +0.000 A 
ATOM      3  N   UNL     1      -6.477   0.410 124.640  0.00  0.00    +0.000 NA
ATOM      4  C   UNL     1      -7.526   0.900 123.915  0.00  0.00    +0.000 A 
ATOM      5  C   UNL     1      -8.601   0.055 124.008  0.00  0.00    +0.000 A 
ATOM      6  N   UNL     1      -8.204  -0.996 124.815  0.00  0.00    +0.000 N 
ENDROOT
BRANCH   5   7
ATOM      7  N   UNL     1      -9.880   0.222 123.399  0.00  0.00    +0.000 N 
ATOM      8  O   UNL     1     -10.145  -0.468 122.405  0.00  0.00    +0.000 OA
ATOM      9  O   UNL     1     -10.638   1.045 123.918  0.00  0.00    +0.000 OA
ENDBRANCH   5   7
BRANCH   6  10
ATOM     10  C   UNL     1      -9.034  -2.134 125.187  0.00  0.00    +0.000 C 
BRANCH  10  11
ATOM     11  C   UNL     1      -9.039  -3.329 124.246  0.00  0.00    +0.000 C 
BRANCH  11  12
ATOM     12  O   UNL     1     -10.156  -3.324 123.374  0.00  0.00    +0.000 OA
ATOM     13  H   UNL     1     -10.088  -4.112 122.810  0.00  0.00    +0.000 HD
ENDBRANCH  11  12
ENDBRANCH  10  11
ENDBRANCH   6  10
TORSDOF 4
ENDMDL
MODEL 9
REMARK VINA RESULT:      -4.2      9.237     10.261
REMARK  Name = Metronidazole
REMARK  5 active torsions:
REMARK  status: ('A' for Active; 'I' for Inactive)
REMARK    1  A    between atoms: C_1  and  C_2
REMARK    2  A    between atoms: C_5  and  N_10
REMARK    3  A    between atoms: N_6  and  C_7
REMARK    4  A    between atoms: C_7  and  C_8
REMARK    5  A    between atoms: C_8  and  O_9
REMARK                            x       y       z     vdW  Elec       q    Type
REMARK                         _______ _______ _______ _____ _____    ______ ____
ROOT
ATOM      1  C   UNL     1      -5.459  -0.721 125.971  0.00  0.00    +0.000 C 
ATOM      2  C   UNL     1      -6.344  -1.211 124.875  0.00  0.00    +0.000 A 
ATOM      3  N   UNL     1      -5.868  -1.686 123.740  0.00  0.00    +0.000 NA
ATOM      4  C   UNL     1      -6.946  -2.035 122.979  0.00  0.00    +0.000 A 
ATOM      5  C   UNL     1      -8.109  -1.768 123.656  0.00  0.00    +0.000 A 
ATOM      6  N   UNL     1      -7.737  -1.240 124.879  0.00  0.00    +0.000 N 
ENDROOT
BRANCH   5   7
ATOM      7  N   UNL     1      -9.441  -1.986 123.194  0.00  0.00    +0.000 N 
ATOM      8  O   UNL     1      -9.928  -3.115 123.339  0.00  0.00    +0.000 OA
ATOM      9  O   UNL     1     -10.016  -1.021 122.686  0.00  0.00    +0.000 OA
ENDBRANCH   5   7
BRANCH   6  10
ATOM     10  C   UNL     1      -8.653  -0.811 125.925  0.00  0.00    +0.000 C 
BRANCH  10  11
ATOM     11  C   UNL     1      -9.217   0.598 125.823  0.00  0.00    +0.000 C 
BRANCH  11  12
ATOM     12  O   UNL     1     -10.462   0.634 125.148  0.00  0.00    +0.000 OA
ATOM     13  H   UNL     1     -10.930   1.433 125.442  0.00  0.00    +0.000 HD
ENDBRANCH  11  12
ENDBRANCH  10  11
ENDBRANCH   6  10
TORSDOF 4
ENDMDL
