MODEL 1
REMARK VINA RESULT:      -6.0      0.000      0.000
REMARK  Name = Metrizoic acid
REMARK  7 active torsions:
REMARK  status: ('A' for Active; 'I' for Inactive)
REMARK    1  A    between atoms: C_1  and  N_2
REMARK    2  A    between atoms: N_2  and  C_6
REMARK    3  A    between atoms: C_3  and  C_4
REMARK    4  A    between atoms: C_9  and  C_10
REMARK    5  A    between atoms: C_10  and  O_11
REMARK    6  A    between atoms: C_15  and  N_16
REMARK    7  A    between atoms: C_17  and  C_18
REMARK                            x       y       z     vdW  Elec       q    Type
REMARK                         _______ _______ _______ _____ _____    ______ ____
ROOT
ATOM      1  C   UNL     1      -7.580  -0.835 124.879  0.00  0.00    +0.000 A 
ATOM      2  C   UNL     1      -7.905   0.538 125.088  0.00  0.00    +0.000 A 
ATOM      3  I   UNL     1      -9.689   1.287 124.012  0.00  0.00    +0.000 I 
ATOM      4  C   UNL     1      -7.197   1.360 126.030  0.00  0.00    +0.000 A 
ATOM      5  C   UNL     1      -6.237   0.682 126.862  0.00  0.00    +0.000 A 
ATOM      6  I   UNL     1      -5.350   1.686 128.626  0.00  0.00    +0.000 I 
ATOM      7  C   UNL     1      -5.822  -0.697 126.661  0.00  0.00    +0.000 A 
ATOM      8  C   UNL     1      -6.455  -1.370 125.560  0.00  0.00    +0.000 A 
ATOM      9  I   UNL     1      -5.522  -3.166 124.180  0.00  0.00    +0.000 I 
ENDROOT
BRANCH   1  11
ATOM     10  C   UNL     1      -7.787  -1.721 122.595  0.00  0.00    +0.000 C 
ATOM     11  N   UNL     1      -8.318  -1.681 123.974  0.00  0.00    +0.000 N 
ATOM     12  C   UNL     1      -9.134  -2.762 124.385  0.00  0.00    +0.000 C 
ATOM     13  C   UNL     1      -9.530  -2.928 125.852  0.00  0.00    +0.000 C 
ATOM     14  O   UNL     1      -9.540  -3.611 123.584  0.00  0.00    +0.000 OA
ENDBRANCH   1  11
BRANCH   7  15
ATOM     15  N   UNL     1      -4.881  -1.209 127.641  0.00  0.00    +0.000 N 
ATOM     16  C   UNL     1      -4.934  -2.126 128.664  0.00  0.00    +0.000 C 
ATOM     17  C   UNL     1      -6.218  -2.794 128.898  0.00  0.00    +0.000 C 
ATOM     18  O   UNL     1      -3.952  -2.381 129.360  0.00  0.00    +0.000 OA
ATOM     19  H   UNL     1      -3.978  -0.732 127.683  0.00  0.00    +0.000 HD
ENDBRANCH   7  15
BRANCH   4  20
ATOM     20  C   UNL     1      -7.464   2.870 126.046  0.00  0.00    +0.000 C 
ATOM     21  O   UNL     1      -6.856   3.679 125.343  0.00  0.00    +0.000 OA
BRANCH  20  22
ATOM     22  O   UNL     1      -8.342   3.406 126.902  0.00  0.00    +0.000 OA
ATOM     23  H   UNL     1      -8.963   4.077 126.575  0.00  0.00    +0.000 HD
ENDBRANCH  20  22
ENDBRANCH   4  20
TORSDOF 4
ENDMDL
MODEL 2
REMARK VINA RESULT:      -5.9      2.400      2.852
REMARK  Name = Metrizoic acid
REMARK  7 active torsions:
REMARK  status: ('A' for Active; 'I' for Inactive)
REMARK    1  A    between atoms: C_1  and  N_2
REMARK    2  A    between atoms: N_2  and  C_6
REMARK    3  A    between atoms: C_3  and  C_4
REMARK    4  A    between atoms: C_9  and  C_10
REMARK    5  A    between atoms: C_10  and  O_11
REMARK    6  A    between atoms: C_15  and  N_16
REMARK    7  A    between atoms: C_17  and  C_18
REMARK                            x       y       z     vdW  Elec       q    Type
REMARK                         _______ _______ _______ _____ _____    ______ ____
ROOT
ATOM      1  C   UNL     1      -7.211   0.794 125.271  0.00  0.00    +0.000 A 
ATOM      2  C   UNL     1      -7.044   2.038 124.592  0.00  0.00    +0.000 A 
ATOM      3  I   UNL     1      -8.573   2.522 123.066  0.00  0.00    +0.000 I 
ATOM      4  C   UNL     1      -6.022   2.979 124.955  0.00  0.00    +0.000 A 
ATOM      5  C   UNL     1      -5.267   2.665 126.140  0.00  0.00    +0.000 A 
ATOM      6  I   UNL     1      -3.941   4.172 127.077  0.00  0.00    +0.000 I 
ATOM      7  C   UNL     1      -5.351   1.393 126.839  0.00  0.00    +0.000 A 
ATOM      8  C   UNL     1      -6.268   0.444 126.272  0.00  0.00    +0.000 A 
ATOM      9  I   UNL     1      -6.111  -2.000 126.338  0.00  0.00    +0.000 I 
ENDROOT
BRANCH   1  11
ATOM     10  C   UNL     1      -9.551   0.131 125.633  0.00  0.00    +0.000 C 
ATOM     11  N   UNL     1      -8.267  -0.134 124.948  0.00  0.00    +0.000 N 
ATOM     12  C   UNL     1      -8.314  -0.902 123.761  0.00  0.00    +0.000 C 
ATOM     13  C   UNL     1      -7.084  -1.027 122.863  0.00  0.00    +0.000 C 
ATOM     14  O   UNL     1      -9.345  -1.484 123.403  0.00  0.00    +0.000 OA
ENDBRANCH   1  11
BRANCH   7  15
ATOM     15  N   UNL     1      -4.544   1.296 128.044  0.00  0.00    +0.000 N 
ATOM     16  C   UNL     1      -4.803   1.144 129.385  0.00  0.00    +0.000 C 
ATOM     17  C   UNL     1      -6.210   1.057 129.790  0.00  0.00    +0.000 C 
ATOM     18  O   UNL     1      -3.900   1.084 130.219  0.00  0.00    +0.000 OA
ATOM     19  H   UNL     1      -3.546   1.476 127.927  0.00  0.00    +0.000 HD
ENDBRANCH   7  15
BRANCH   4  20
ATOM     20  C   UNL     1      -5.774   4.192 124.050  0.00  0.00    +0.000 C 
ATOM     21  O   UNL     1      -5.110   4.145 123.012  0.00  0.00    +0.000 OA
BRANCH  20  22
ATOM     22  O   UNL     1      -6.215   5.408 124.390  0.00  0.00    +0.000 OA
ATOM     23  H   UNL     1      -7.040   5.733 123.995  0.00  0.00    +0.000 HD
ENDBRANCH  20  22
ENDBRANCH   4  20
TORSDOF 4
ENDMDL
MODEL 3
REMARK VINA RESULT:      -5.6      1.888      5.116
REMARK  Name = Metrizoic acid
REMARK  7 active torsions:
REMARK  status: ('A' for Active; 'I' for Inactive)
REMARK    1  A    between atoms: C_1  and  N_2
REMARK    2  A    between atoms: N_2  and  C_6
REMARK    3  A    between atoms: C_3  and  C_4
REMARK    4  A    between atoms: C_9  and  C_10
REMARK    5  A    between atoms: C_10  and  O_11
REMARK    6  A    between atoms: C_15  and  N_16
REMARK    7  A    between atoms: C_17  and  C_18
REMARK                            x       y       z     vdW  Elec       q    Type
REMARK                         _______ _______ _______ _____ _____    ______ ____
ROOT
ATOM      1  C   UNL     1      -7.001  -1.083 128.076  0.00  0.00    +0.000 A 
ATOM      2  C   UNL     1      -6.931   0.338 127.973  0.00  0.00    +0.000 A 
ATOM      3  I   UNL     1      -5.439   1.331 129.273  0.00  0.00    +0.000 I 
ATOM      4  C   UNL     1      -7.691   1.077 127.004  0.00  0.00    +0.000 A 
ATOM      5  C   UNL     1      -8.416   0.291 126.040  0.00  0.00    +0.000 A 
ATOM      6  I   UNL     1      -9.307   1.233 124.243  0.00  0.00    +0.000 I 
ATOM      7  C   UNL     1      -8.571  -1.152 126.123  0.00  0.00    +0.000 A 
ATOM      8  C   UNL     1      -7.928  -1.770 127.250  0.00  0.00    +0.000 A 
ATOM      9  I   UNL     1      -8.622  -3.804 128.427  0.00  0.00    +0.000 I 
ENDROOT
BRANCH   1  11
ATOM     10  C   UNL     1      -4.865  -2.221 128.509  0.00  0.00    +0.000 C 
ATOM     11  N   UNL     1      -6.202  -1.837 129.010  0.00  0.00    +0.000 N 
ATOM     12  C   UNL     1      -6.383  -1.808 130.413  0.00  0.00    +0.000 C 
ATOM     13  C   UNL     1      -7.644  -1.200 131.025  0.00  0.00    +0.000 C 
ATOM     14  O   UNL     1      -5.531  -2.257 131.188  0.00  0.00    +0.000 OA
ENDBRANCH   1  11
BRANCH   7  15
ATOM     15  N   UNL     1      -9.296  -1.761 125.022  0.00  0.00    +0.000 N 
ATOM     16  C   UNL     1      -9.091  -2.837 124.191  0.00  0.00    +0.000 C 
ATOM     17  C   UNL     1      -7.862  -3.613 124.390  0.00  0.00    +0.000 C 
ATOM     18  O   UNL     1      -9.897  -3.144 123.313  0.00  0.00    +0.000 OA
ATOM     19  H   UNL     1     -10.109  -1.244 124.684  0.00  0.00    +0.000 HD
ENDBRANCH   7  15
BRANCH   4  20
ATOM     20  C   UNL     1      -7.723   2.607 127.094  0.00  0.00    +0.000 C 
ATOM     21  O   UNL     1      -8.525   3.234 127.789  0.00  0.00    +0.000 OA
BRANCH  20  22
ATOM     22  O   UNL     1      -6.909   3.359 126.345  0.00  0.00    +0.000 OA
ATOM     23  H   UNL     1      -6.809   3.145 125.403  0.00  0.00    +0.000 HD
ENDBRANCH  20  22
ENDBRANCH   4  20
TORSDOF 4
ENDMDL
MODEL 4
REMARK VINA RESULT:      -5.5      4.461      6.305
REMARK  Name = Metrizoic acid
REMARK  7 active torsions:
REMARK  status: ('A' for Active; 'I' for Inactive)
REMARK    1  A    between atoms: C_1  and  N_2
REMARK    2  A    between atoms: N_2  and  C_6
REMARK    3  A    between atoms: C_3  and  C_4
REMARK    4  A    between atoms: C_9  and  C_10
REMARK    5  A    between atoms: C_10  and  O_11
REMARK    6  A    between atoms: C_15  and  N_16
REMARK    7  A    between atoms: C_17  and  C_18
REMARK                            x       y       z     vdW  Elec       q    Type
REMARK                         _______ _______ _______ _____ _____    ______ ____
ROOT
ATOM      1  C   UNL     1      -5.365   2.611 128.212  0.00  0.00    +0.000 A 
ATOM      2  C   UNL     1      -6.686   3.053 128.524  0.00  0.00    +0.000 A 
ATOM      3  I   UNL     1      -8.327   1.682 127.954  0.00  0.00    +0.000 I 
ATOM      4  C   UNL     1      -6.937   4.255 129.270  0.00  0.00    +0.000 A 
ATOM      5  C   UNL     1      -5.779   4.913 129.816  0.00  0.00    +0.000 A 
ATOM      6  I   UNL     1      -5.989   6.530 131.315  0.00  0.00    +0.000 I 
ATOM      7  C   UNL     1      -4.410   4.545 129.489  0.00  0.00    +0.000 A 
ATOM      8  C   UNL     1      -4.276   3.446 128.573  0.00  0.00    +0.000 A 
ATOM      9  I   UNL     1      -2.467   3.061 126.967  0.00  0.00    +0.000 I 
ENDROOT
BRANCH   1  11
ATOM     10  C   UNL     1      -5.001   0.186 128.377  0.00  0.00    +0.000 C 
ATOM     11  N   UNL     1      -5.102   1.380 127.510  0.00  0.00    +0.000 N 
ATOM     12  C   UNL     1      -5.402   1.164 126.145  0.00  0.00    +0.000 C 
ATOM     13  C   UNL     1      -5.759   2.336 125.230  0.00  0.00    +0.000 C 
ATOM     14  O   UNL     1      -5.401   0.032 125.649  0.00  0.00    +0.000 OA
ENDBRANCH   1  11
BRANCH   7  15
ATOM     15  N   UNL     1      -3.384   5.300 130.187  0.00  0.00    +0.000 N 
ATOM     16  C   UNL     1      -2.456   6.250 129.831  0.00  0.00    +0.000 C 
ATOM     17  C   UNL     1      -2.416   6.653 128.422  0.00  0.00    +0.000 C 
ATOM     18  O   UNL     1      -1.685   6.745 130.653  0.00  0.00    +0.000 OA
ATOM     19  H   UNL     1      -3.207   5.023 131.153  0.00  0.00    +0.000 HD
ENDBRANCH   7  15
BRANCH   4  20
ATOM     20  C   UNL     1      -8.377   4.772 129.383  0.00  0.00    +0.000 C 
ATOM     21  O   UNL     1      -9.105   4.558 130.355  0.00  0.00    +0.000 OA
BRANCH  20  22
ATOM     22  O   UNL     1      -8.954   5.433 128.373  0.00  0.00    +0.000 OA
ATOM     23  H   UNL     1      -9.750   5.958 128.553  0.00  0.00    +0.000 HD
ENDBRANCH  20  22
ENDBRANCH   4  20
TORSDOF 4
ENDMDL
MODEL 5
REMARK VINA RESULT:      -5.4      2.710      4.860
REMARK  Name = Metrizoic acid
REMARK  7 active torsions:
REMARK  status: ('A' for Active; 'I' for Inactive)
REMARK    1  A    between atoms: C_1  and  N_2
REMARK    2  A    between atoms: N_2  and  C_6
REMARK    3  A    between atoms: C_3  and  C_4
REMARK    4  A    between atoms: C_9  and  C_10
REMARK    5  A    between atoms: C_10  and  O_11
REMARK    6  A    between atoms: C_15  and  N_16
REMARK    7  A    between atoms: C_17  and  C_18
REMARK                            x       y       z     vdW  Elec       q    Type
REMARK                         _______ _______ _______ _____ _____    ______ ____
ROOT
ATOM      1  C   UNL     1      -6.647  -1.011 125.497  0.00  0.00    +0.000 A 
ATOM      2  C   UNL     1      -6.069  -0.422 126.661  0.00  0.00    +0.000 A 
ATOM      3  I   UNL     1      -5.443  -1.829 128.251  0.00  0.00    +0.000 I 
ATOM      4  C   UNL     1      -5.795   0.986 126.754  0.00  0.00    +0.000 A 
ATOM      5  C   UNL     1      -5.998   1.748 125.550  0.00  0.00    +0.000 A 
ATOM      6  I   UNL     1      -5.254   3.828 125.382  0.00  0.00    +0.000 I 
ATOM      7  C   UNL     1      -6.635   1.220 124.355  0.00  0.00    +0.000 A 
ATOM      8  C   UNL     1      -7.050  -0.153 124.441  0.00  0.00    +0.000 A 
ATOM      9  I   UNL     1      -8.930  -1.214 123.283  0.00  0.00    +0.000 I 
ENDROOT
BRANCH   1  11
ATOM     10  C   UNL     1      -8.189  -2.887 125.881  0.00  0.00    +0.000 C 
ATOM     11  N   UNL     1      -6.877  -2.429 125.375  0.00  0.00    +0.000 N 
ATOM     12  C   UNL     1      -6.217  -3.263 124.442  0.00  0.00    +0.000 C 
ATOM     13  C   UNL     1      -4.983  -2.768 123.690  0.00  0.00    +0.000 C 
ATOM     14  O   UNL     1      -6.618  -4.406 124.193  0.00  0.00    +0.000 OA
ENDBRANCH   1  11
BRANCH   7  15
ATOM     15  N   UNL     1      -6.697   2.138 123.231  0.00  0.00    +0.000 N 
ATOM     16  C   UNL     1      -7.700   2.794 122.557  0.00  0.00    +0.000 C 
ATOM     17  C   UNL     1      -9.075   2.563 123.012  0.00  0.00    +0.000 C 
ATOM     18  O   UNL     1      -7.465   3.543 121.610  0.00  0.00    +0.000 OA
ATOM     19  H   UNL     1      -5.822   2.284 122.726  0.00  0.00    +0.000 HD
ENDBRANCH   7  15
BRANCH   4  20
ATOM     20  C   UNL     1      -5.371   1.572 128.106  0.00  0.00    +0.000 C 
ATOM     21  O   UNL     1      -6.164   2.020 128.936  0.00  0.00    +0.000 OA
BRANCH  20  22
ATOM     22  O   UNL     1      -4.078   1.696 128.429  0.00  0.00    +0.000 OA
ATOM     23  H   UNL     1      -3.409   1.339 127.823  0.00  0.00    +0.000 HD
ENDBRANCH  20  22
ENDBRANCH   4  20
TORSDOF 4
ENDMDL
MODEL 6
REMARK VINA RESULT:      -5.4      2.897      3.197
REMARK  Name = Metrizoic acid
REMARK  7 active torsions:
REMARK  status: ('A' for Active; 'I' for Inactive)
REMARK    1  A    between atoms: C_1  and  N_2
REMARK    2  A    between atoms: N_2  and  C_6
REMARK    3  A    between atoms: C_3  and  C_4
REMARK    4  A    between atoms: C_9  and  C_10
REMARK    5  A    between atoms: C_10  and  O_11
REMARK    6  A    between atoms: C_15  and  N_16
REMARK    7  A    between atoms: C_17  and  C_18
REMARK                            x       y       z     vdW  Elec       q    Type
REMARK                         _______ _______ _______ _____ _____    ______ ____
ROOT
ATOM      1  C   UNL     1      -7.782   1.157 124.812  0.00  0.00    +0.000 A 
ATOM      2  C   UNL     1      -7.014   2.352 124.683  0.00  0.00    +0.000 A 
ATOM      3  I   UNL     1      -6.683   3.073 122.616  0.00  0.00    +0.000 I 
ATOM      4  C   UNL     1      -6.581   3.114 125.822  0.00  0.00    +0.000 A 
ATOM      5  C   UNL     1      -7.093   2.686 127.098  0.00  0.00    +0.000 A 
ATOM      6  I   UNL     1      -6.869   3.958 128.897  0.00  0.00    +0.000 I 
ATOM      7  C   UNL     1      -7.830   1.449 127.301  0.00  0.00    +0.000 A 
ATOM      8  C   UNL     1      -8.038   0.662 126.117  0.00  0.00    +0.000 A 
ATOM      9  I   UNL     1      -8.255  -1.774 125.971  0.00  0.00    +0.000 I 
ENDROOT
BRANCH   1  11
ATOM     10  C   UNL     1      -7.388  -0.695 123.244  0.00  0.00    +0.000 C 
ATOM     11  N   UNL     1      -8.265   0.415 123.674  0.00  0.00    +0.000 N 
ATOM     12  C   UNL     1      -9.624   0.353 123.285  0.00  0.00    +0.000 C 
ATOM     13  C   UNL     1     -10.650   1.320 123.875  0.00  0.00    +0.000 C 
ATOM     14  O   UNL     1     -10.031  -0.485 122.472  0.00  0.00    +0.000 OA
ENDBRANCH   1  11
BRANCH   7  15
ATOM     15  N   UNL     1      -8.303   1.227 128.656  0.00  0.00    +0.000 N 
ATOM     16  C   UNL     1      -7.935   0.411 129.700  0.00  0.00    +0.000 C 
ATOM     17  C   UNL     1      -6.803  -0.494 129.475  0.00  0.00    +0.000 C 
ATOM     18  O   UNL     1      -8.525   0.430 130.779  0.00  0.00    +0.000 OA
ATOM     19  H   UNL     1      -9.175   1.696 128.906  0.00  0.00    +0.000 HD
ENDBRANCH   7  15
BRANCH   4  20
ATOM     20  C   UNL     1      -5.588   4.263 125.612  0.00  0.00    +0.000 C 
ATOM     21  O   UNL     1      -4.364   4.115 125.599  0.00  0.00    +0.000 OA
BRANCH  20  22
ATOM     22  O   UNL     1      -6.010   5.528 125.506  0.00  0.00    +0.000 OA
ATOM     23  H   UNL     1      -6.961   5.711 125.573  0.00  0.00    +0.000 HD
ENDBRANCH  20  22
ENDBRANCH   4  20
TORSDOF 4
ENDMDL
MODEL 7
REMARK VINA RESULT:      -5.4      2.229      6.114
REMARK  Name = Metrizoic acid
REMARK  7 active torsions:
REMARK  status: ('A' for Active; 'I' for Inactive)
REMARK    1  A    between atoms: C_1  and  N_2
REMARK    2  A    between atoms: N_2  and  C_6
REMARK    3  A    between atoms: C_3  and  C_4
REMARK    4  A    between atoms: C_9  and  C_10
REMARK    5  A    between atoms: C_10  and  O_11
REMARK    6  A    between atoms: C_15  and  N_16
REMARK    7  A    between atoms: C_17  and  C_18
REMARK                            x       y       z     vdW  Elec       q    Type
REMARK                         _______ _______ _______ _____ _____    ______ ____
ROOT
ATOM      1  C   UNL     1      -6.894   2.076 126.666  0.00  0.00    +0.000 A 
ATOM      2  C   UNL     1      -6.359   1.289 127.730  0.00  0.00    +0.000 A 
ATOM      3  I   UNL     1      -5.357   2.411 129.354  0.00  0.00    +0.000 I 
ATOM      4  C   UNL     1      -6.559  -0.131 127.811  0.00  0.00    +0.000 A 
ATOM      5  C   UNL     1      -7.456  -0.698 126.838  0.00  0.00    +0.000 A 
ATOM      6  I   UNL     1      -8.198  -2.774 127.050  0.00  0.00    +0.000 I 
ATOM      7  C   UNL     1      -7.987   0.037 125.701  0.00  0.00    +0.000 A 
ATOM      8  C   UNL     1      -7.563   1.407 125.608  0.00  0.00    +0.000 A 
ATOM      9  I   UNL     1      -7.277   2.739 123.573  0.00  0.00    +0.000 I 
ENDROOT
BRANCH   1  11
ATOM     10  C   UNL     1      -7.817   4.270 127.278  0.00  0.00    +0.000 C 
ATOM     11  N   UNL     1      -6.744   3.508 126.605  0.00  0.00    +0.000 N 
ATOM     12  C   UNL     1      -5.509   4.169 126.405  0.00  0.00    +0.000 C 
ATOM     13  C   UNL     1      -4.276   3.395 125.939  0.00  0.00    +0.000 C 
ATOM     14  O   UNL     1      -5.378   5.381 126.612  0.00  0.00    +0.000 OA
ENDBRANCH   1  11
BRANCH   7  15
ATOM     15  N   UNL     1      -8.917  -0.704 124.867  0.00  0.00    +0.000 N 
ATOM     16  C   UNL     1      -8.837  -1.379 123.672  0.00  0.00    +0.000 C 
ATOM     17  C   UNL     1      -7.532  -1.403 123.003  0.00  0.00    +0.000 C 
ATOM     18  O   UNL     1      -9.812  -1.941 123.176  0.00  0.00    +0.000 OA
ATOM     19  H   UNL     1      -9.899  -0.655 125.143  0.00  0.00    +0.000 HD
ENDBRANCH   7  15
BRANCH   4  20
ATOM     20  C   UNL     1      -5.781  -0.931 128.862  0.00  0.00    +0.000 C 
ATOM     21  O   UNL     1      -6.229  -1.214 129.975  0.00  0.00    +0.000 OA
BRANCH  20  22
ATOM     22  O   UNL     1      -4.516  -1.308 128.645  0.00  0.00    +0.000 OA
ATOM     23  H   UNL     1      -3.930  -0.714 128.148  0.00  0.00    +0.000 HD
ENDBRANCH  20  22
ENDBRANCH   4  20
TORSDOF 4
ENDMDL
MODEL 8
REMARK VINA RESULT:      -5.4      2.992      5.632
REMARK  Name = Metrizoic acid
REMARK  7 active torsions:
REMARK  status: ('A' for Active; 'I' for Inactive)
REMARK    1  A    between atoms: C_1  and  N_2
REMARK    2  A    between atoms: N_2  and  C_6
REMARK    3  A    between atoms: C_3  and  C_4
REMARK    4  A    between atoms: C_9  and  C_10
REMARK    5  A    between atoms: C_10  and  O_11
REMARK    6  A    between atoms: C_15  and  N_16
REMARK    7  A    between atoms: C_17  and  C_18
REMARK                            x       y       z     vdW  Elec       q    Type
REMARK                         _______ _______ _______ _____ _____    ______ ____
ROOT
ATOM      1  C   UNL     1      -4.959   2.601 126.916  0.00  0.00    +0.000 A 
ATOM      2  C   UNL     1      -5.734   2.516 125.721  0.00  0.00    +0.000 A 
ATOM      3  I   UNL     1      -5.799   4.344 124.475  0.00  0.00    +0.000 I 
ATOM      4  C   UNL     1      -6.338   1.288 125.284  0.00  0.00    +0.000 A 
ATOM      5  C   UNL     1      -5.995   0.112 126.040  0.00  0.00    +0.000 A 
ATOM      6  I   UNL     1      -6.495  -1.910 125.287  0.00  0.00    +0.000 I 
ATOM      7  C   UNL     1      -5.260   0.142 127.294  0.00  0.00    +0.000 A 
ATOM      8  C   UNL     1      -4.871   1.451 127.742  0.00  0.00    +0.000 A 
ATOM      9  I   UNL     1      -4.572   2.203 130.054  0.00  0.00    +0.000 I 
ENDROOT
BRANCH   1  11
ATOM     10  C   UNL     1      -5.104   4.662 128.249  0.00  0.00    +0.000 C 
ATOM     11  N   UNL     1      -4.306   3.817 127.335  0.00  0.00    +0.000 N 
ATOM     12  C   UNL     1      -2.904   4.003 127.341  0.00  0.00    +0.000 C 
ATOM     13  C   UNL     1      -1.983   3.022 126.615  0.00  0.00    +0.000 C 
ATOM     14  O   UNL     1      -2.375   4.947 127.939  0.00  0.00    +0.000 OA
ENDBRANCH   1  11
BRANCH   7  15
ATOM     15  N   UNL     1      -4.971  -1.159 127.872  0.00  0.00    +0.000 N 
ATOM     16  C   UNL     1      -5.476  -1.901 128.914  0.00  0.00    +0.000 C 
ATOM     17  C   UNL     1      -6.571  -1.309 129.689  0.00  0.00    +0.000 C 
ATOM     18  O   UNL     1      -5.034  -3.015 129.192  0.00  0.00    +0.000 OA
ATOM     19  H   UNL     1      -4.138  -1.630 127.516  0.00  0.00    +0.000 HD
ENDBRANCH   7  15
BRANCH   4  20
ATOM     20  C   UNL     1      -7.324   1.323 124.109  0.00  0.00    +0.000 C 
ATOM     21  O   UNL     1      -7.001   1.101 122.940  0.00  0.00    +0.000 OA
BRANCH  20  22
ATOM     22  O   UNL     1      -8.601   1.678 124.290  0.00  0.00    +0.000 OA
ATOM     23  H   UNL     1      -8.846   2.611 124.183  0.00  0.00    +0.000 HD
ENDBRANCH  20  22
ENDBRANCH   4  20
TORSDOF 4
ENDMDL
MODEL 9
REMARK VINA RESULT:      -5.4      2.389      6.029
REMARK  Name = Metrizoic acid
REMARK  7 active torsions:
REMARK  status: ('A' for Active; 'I' for Inactive)
REMARK    1  A    between atoms: C_1  and  N_2
REMARK    2  A    between atoms: N_2  and  C_6
REMARK    3  A    between atoms: C_3  and  C_4
REMARK    4  A    between atoms: C_9  and  C_10
REMARK    5  A    between atoms: C_10  and  O_11
REMARK    6  A    between atoms: C_15  and  N_16
REMARK    7  A    between atoms: C_17  and  C_18
REMARK                            x       y       z     vdW  Elec       q    Type
REMARK                         _______ _______ _______ _____ _____    ______ ____
ROOT
ATOM      1  C   UNL     1      -7.173  -0.363 128.635  0.00  0.00    +0.000 A 
ATOM      2  C   UNL     1      -7.816  -1.256 127.726  0.00  0.00    +0.000 A 
ATOM      3  I   UNL     1      -8.165  -3.311 128.471  0.00  0.00    +0.000 I 
ATOM      4  C   UNL     1      -8.317  -0.825 126.451  0.00  0.00    +0.000 A 
ATOM      5  C   UNL     1      -8.270   0.592 126.202  0.00  0.00    +0.000 A 
ATOM      6  I   UNL     1      -9.353   1.482 124.487  0.00  0.00    +0.000 I 
ATOM      7  C   UNL     1      -7.580   1.543 127.060  0.00  0.00    +0.000 A 
ATOM      8  C   UNL     1      -6.941   0.971 128.213  0.00  0.00    +0.000 A 
ATOM      9  I   UNL     1      -4.936   1.788 129.359  0.00  0.00    +0.000 I 
ENDROOT
BRANCH   1  11
ATOM     10  C   UNL     1      -7.718  -0.648 131.015  0.00  0.00    +0.000 C 
ATOM     11  N   UNL     1      -6.713  -0.776 129.938  0.00  0.00    +0.000 N 
ATOM     12  C   UNL     1      -5.644  -1.677 130.155  0.00  0.00    +0.000 C 
ATOM     13  C   UNL     1      -4.696  -2.052 129.016  0.00  0.00    +0.000 C 
ATOM     14  O   UNL     1      -5.447  -2.200 131.258  0.00  0.00    +0.000 OA
ENDBRANCH   1  11
BRANCH   7  15
ATOM     15  N   UNL     1      -7.695   2.934 126.658  0.00  0.00    +0.000 N 
ATOM     16  C   UNL     1      -6.865   3.853 126.062  0.00  0.00    +0.000 C 
ATOM     17  C   UNL     1      -5.510   3.407 125.719  0.00  0.00    +0.000 C 
ATOM     18  O   UNL     1      -7.232   5.003 125.823  0.00  0.00    +0.000 OA
ATOM     19  H   UNL     1      -8.544   3.415 126.959  0.00  0.00    +0.000 HD
ENDBRANCH   7  15
BRANCH   4  20
ATOM     20  C   UNL     1      -8.804  -1.879 125.449  0.00  0.00    +0.000 C 
ATOM     21  O   UNL     1      -9.963  -2.294 125.404  0.00  0.00    +0.000 OA
BRANCH  20  22
ATOM     22  O   UNL     1      -7.953  -2.470 124.603  0.00  0.00    +0.000 OA
ATOM     23  H   UNL     1      -7.433  -1.915 123.999  0.00  0.00    +0.000 HD
ENDBRANCH  20  22
ENDBRANCH   4  20
TORSDOF 4
ENDMDL
