MODEL 1
REMARK VINA RESULT:      -6.5      0.000      0.000
REMARK  Name = Metyrapone
REMARK  5 active torsions:
REMARK  status: ('A' for Active; 'I' for Inactive)
REMARK    1  A    between atoms: C_1  and  C_2
REMARK    2  A    between atoms: C_2  and  C_3
REMARK    3  A    between atoms: C_2  and  C_4
REMARK    4  A    between atoms: C_2  and  C_12
REMARK    5  A    between atoms: C_4  and  C_6
REMARK                            x       y       z     vdW  Elec       q    Type
REMARK                         _______ _______ _______ _____ _____    ______ ____
ROOT
ATOM      1  C   UNL     1      -9.568  -3.503 123.597  0.00  0.00    +0.000 C 
ATOM      2  C   UNL     1      -8.722  -2.249 123.917  0.00  0.00    +0.000 C 
ATOM      3  C   UNL     1      -9.045  -1.197 122.833  0.00  0.00    +0.000 C 
ENDROOT
BRANCH   2   4
ATOM      4  C   UNL     1      -7.255  -2.701 123.858  0.00  0.00    +0.000 A 
ATOM      5  C   UNL     1      -6.894  -3.982 124.304  0.00  0.00    +0.000 A 
ATOM      6  C   UNL     1      -5.591  -4.438 124.155  0.00  0.00    +0.000 A 
ATOM      7  C   UNL     1      -4.667  -3.587 123.581  0.00  0.00    +0.000 A 
ATOM      8  N   UNL     1      -4.951  -2.334 123.174  0.00  0.00    +0.000 NA
ATOM      9  C   UNL     1      -6.228  -1.918 123.331  0.00  0.00    +0.000 A 
ENDBRANCH   2   4
BRANCH   2  10
ATOM     10  C   UNL     1      -9.051  -1.632 125.315  0.00  0.00    +0.000 C 
ATOM     11  O   UNL     1      -9.761  -0.636 125.475  0.00  0.00    +0.000 OA
BRANCH  10  12
ATOM     12  C   UNL     1      -8.579  -2.313 126.544  0.00  0.00    +0.000 A 
ATOM     13  C   UNL     1      -7.528  -1.781 127.276  0.00  0.00    +0.000 A 
ATOM     14  N   UNL     1      -7.115  -2.293 128.465  0.00  0.00    +0.000 NA
ATOM     15  C   UNL     1      -7.779  -3.374 128.936  0.00  0.00    +0.000 A 
ATOM     16  C   UNL     1      -8.814  -3.988 128.260  0.00  0.00    +0.000 A 
ATOM     17  C   UNL     1      -9.173  -3.478 127.023  0.00  0.00    +0.000 A 
ENDBRANCH  10  12
ENDBRANCH   2  10
TORSDOF 3
ENDMDL
MODEL 2
REMARK VINA RESULT:      -6.4      4.247      6.468
REMARK  Name = Metyrapone
REMARK  5 active torsions:
REMARK  status: ('A' for Active; 'I' for Inactive)
REMARK    1  A    between atoms: C_1  and  C_2
REMARK    2  A    between atoms: C_2  and  C_3
REMARK    3  A    between atoms: C_2  and  C_4
REMARK    4  A    between atoms: C_2  and  C_12
REMARK    5  A    between atoms: C_4  and  C_6
REMARK                            x       y       z     vdW  Elec       q    Type
REMARK                         _______ _______ _______ _____ _____    ______ ____
ROOT
ATOM      1  C   UNL     1      -6.265   1.493 125.537  0.00  0.00    +0.000 C 
ATOM      2  C   UNL     1      -7.752   1.541 125.118  0.00  0.00    +0.000 C 
ATOM      3  C   UNL     1      -8.590   1.397 126.407  0.00  0.00    +0.000 C 
ENDROOT
BRANCH   2   4
ATOM      4  C   UNL     1      -7.961   0.356 124.162  0.00  0.00    +0.000 A 
ATOM      5  C   UNL     1      -6.858  -0.380 123.702  0.00  0.00    +0.000 A 
ATOM      6  C   UNL     1      -7.045  -1.516 122.926  0.00  0.00    +0.000 A 
ATOM      7  C   UNL     1      -8.338  -1.879 122.606  0.00  0.00    +0.000 A 
ATOM      8  N   UNL     1      -9.429  -1.185 122.988  0.00  0.00    +0.000 NA
ATOM      9  C   UNL     1      -9.216  -0.084 123.744  0.00  0.00    +0.000 A 
ENDBRANCH   2   4
BRANCH   2  10
ATOM     10  C   UNL     1      -8.146   2.884 124.422  0.00  0.00    +0.000 C 
ATOM     11  O   UNL     1      -8.792   3.778 124.974  0.00  0.00    +0.000 OA
BRANCH  10  12
ATOM     12  C   UNL     1      -7.651   3.172 123.055  0.00  0.00    +0.000 A 
ATOM     13  C   UNL     1      -8.541   3.257 121.994  0.00  0.00    +0.000 A 
ATOM     14  N   UNL     1      -8.170   3.621 120.738  0.00  0.00    +0.000 NA
ATOM     15  C   UNL     1      -6.864   3.910 120.541  0.00  0.00    +0.000 A 
ATOM     16  C   UNL     1      -5.904   3.821 121.528  0.00  0.00    +0.000 A 
ATOM     17  C   UNL     1      -6.304   3.390 122.783  0.00  0.00    +0.000 A 
ENDBRANCH  10  12
ENDBRANCH   2  10
TORSDOF 3
ENDMDL
MODEL 3
REMARK VINA RESULT:      -6.3      2.095      4.586
REMARK  Name = Metyrapone
REMARK  5 active torsions:
REMARK  status: ('A' for Active; 'I' for Inactive)
REMARK    1  A    between atoms: C_1  and  C_2
REMARK    2  A    between atoms: C_2  and  C_3
REMARK    3  A    between atoms: C_2  and  C_4
REMARK    4  A    between atoms: C_2  and  C_12
REMARK    5  A    between atoms: C_4  and  C_6
REMARK                            x       y       z     vdW  Elec       q    Type
REMARK                         _______ _______ _______ _____ _____    ______ ____
ROOT
ATOM      1  C   UNL     1      -9.071  -3.430 124.218  0.00  0.00    +0.000 C 
ATOM      2  C   UNL     1      -7.732  -2.880 124.761  0.00  0.00    +0.000 C 
ATOM      3  C   UNL     1      -6.616  -3.814 124.242  0.00  0.00    +0.000 C 
ENDROOT
BRANCH   2   4
ATOM      4  C   UNL     1      -7.848  -2.922 126.293  0.00  0.00    +0.000 A 
ATOM      5  C   UNL     1      -8.878  -3.655 126.902  0.00  0.00    +0.000 A 
ATOM      6  C   UNL     1      -8.927  -3.786 128.283  0.00  0.00    +0.000 A 
ATOM      7  C   UNL     1      -7.951  -3.157 129.030  0.00  0.00    +0.000 A 
ATOM      8  N   UNL     1      -6.964  -2.408 128.498  0.00  0.00    +0.000 NA
ATOM      9  C   UNL     1      -6.942  -2.299 127.151  0.00  0.00    +0.000 A 
ENDBRANCH   2   4
BRANCH   2  10
ATOM     10  C   UNL     1      -7.426  -1.428 124.273  0.00  0.00    +0.000 C 
ATOM     11  O   UNL     1      -6.311  -1.050 123.901  0.00  0.00    +0.000 OA
BRANCH  10  12
ATOM     12  C   UNL     1      -8.532  -0.450 124.146  0.00  0.00    +0.000 A 
ATOM     13  C   UNL     1      -8.878   0.356 125.220  0.00  0.00    +0.000 A 
ATOM     14  N   UNL     1      -9.809   1.343 125.141  0.00  0.00    +0.000 NA
ATOM     15  C   UNL     1     -10.411   1.529 123.944  0.00  0.00    +0.000 A 
ATOM     16  C   UNL     1     -10.154   0.754 122.831  0.00  0.00    +0.000 A 
ATOM     17  C   UNL     1      -9.243  -0.282 122.960  0.00  0.00    +0.000 A 
ENDBRANCH  10  12
ENDBRANCH   2  10
TORSDOF 3
ENDMDL
MODEL 4
REMARK VINA RESULT:      -6.3      8.678     10.560
REMARK  Name = Metyrapone
REMARK  5 active torsions:
REMARK  status: ('A' for Active; 'I' for Inactive)
REMARK    1  A    between atoms: C_1  and  C_2
REMARK    2  A    between atoms: C_2  and  C_3
REMARK    3  A    between atoms: C_2  and  C_4
REMARK    4  A    between atoms: C_2  and  C_12
REMARK    5  A    between atoms: C_4  and  C_6
REMARK                            x       y       z     vdW  Elec       q    Type
REMARK                         _______ _______ _______ _____ _____    ______ ____
ROOT
ATOM      1  C   UNL     1     -10.394   6.090 131.969  0.00  0.00    +0.000 C 
ATOM      2  C   UNL     1      -9.796   6.260 130.553  0.00  0.00    +0.000 C 
ATOM      3  C   UNL     1      -8.543   7.152 130.696  0.00  0.00    +0.000 C 
ENDROOT
BRANCH   2   4
ATOM      4  C   UNL     1     -10.887   6.936 129.709  0.00  0.00    +0.000 A 
ATOM      5  C   UNL     1     -12.210   6.470 129.764  0.00  0.00    +0.000 A 
ATOM      6  C   UNL     1     -13.221   7.140 129.090  0.00  0.00    +0.000 A 
ATOM      7  C   UNL     1     -12.880   8.256 128.352  0.00  0.00    +0.000 A 
ATOM      8  N   UNL     1     -11.621   8.722 128.233  0.00  0.00    +0.000 NA
ATOM      9  C   UNL     1     -10.658   8.049 128.901  0.00  0.00    +0.000 A 
ENDBRANCH   2   4
BRANCH   2  10
ATOM     10  C   UNL     1      -9.364   4.904 129.907  0.00  0.00    +0.000 C 
ATOM     11  O   UNL     1      -9.145   4.757 128.702  0.00  0.00    +0.000 OA
BRANCH  10  12
ATOM     12  C   UNL     1      -9.099   3.732 130.775  0.00  0.00    +0.000 A 
ATOM     13  C   UNL     1      -7.850   3.558 131.352  0.00  0.00    +0.000 A 
ATOM     14  N   UNL     1      -7.571   2.568 132.240  0.00  0.00    +0.000 NA
ATOM     15  C   UNL     1      -8.579   1.725 132.560  0.00  0.00    +0.000 A 
ATOM     16  C   UNL     1      -9.843   1.802 132.011  0.00  0.00    +0.000 A 
ATOM     17  C   UNL     1     -10.079   2.786 131.066  0.00  0.00    +0.000 A 
ENDBRANCH  10  12
ENDBRANCH   2  10
TORSDOF 3
ENDMDL
MODEL 5
REMARK VINA RESULT:      -6.2      9.873     11.880
REMARK  Name = Metyrapone
REMARK  5 active torsions:
REMARK  status: ('A' for Active; 'I' for Inactive)
REMARK    1  A    between atoms: C_1  and  C_2
REMARK    2  A    between atoms: C_2  and  C_3
REMARK    3  A    between atoms: C_2  and  C_4
REMARK    4  A    between atoms: C_2  and  C_12
REMARK    5  A    between atoms: C_4  and  C_6
REMARK                            x       y       z     vdW  Elec       q    Type
REMARK                         _______ _______ _______ _____ _____    ______ ____
ROOT
ATOM      1  C   UNL     1      -9.834   4.844 129.834  0.00  0.00    +0.000 C 
ATOM      2  C   UNL     1      -9.954   5.935 130.923  0.00  0.00    +0.000 C 
ATOM      3  C   UNL     1      -9.081   7.126 130.468  0.00  0.00    +0.000 C 
ENDROOT
BRANCH   2   4
ATOM      4  C   UNL     1      -9.426   5.299 132.219  0.00  0.00    +0.000 A 
ATOM      5  C   UNL     1      -9.567   3.920 132.435  0.00  0.00    +0.000 A 
ATOM      6  C   UNL     1      -8.999   3.321 133.551  0.00  0.00    +0.000 A 
ATOM      7  C   UNL     1      -8.318   4.125 134.444  0.00  0.00    +0.000 A 
ATOM      8  N   UNL     1      -8.188   5.459 134.305  0.00  0.00    +0.000 NA
ATOM      9  C   UNL     1      -8.751   6.014 133.208  0.00  0.00    +0.000 A 
ENDBRANCH   2   4
BRANCH   2  10
ATOM     10  C   UNL     1     -11.419   6.443 131.118  0.00  0.00    +0.000 C 
ATOM     11  O   UNL     1     -12.022   6.399 132.193  0.00  0.00    +0.000 OA
BRANCH  10  12
ATOM     12  C   UNL     1     -12.117   7.109 129.994  0.00  0.00    +0.000 A 
ATOM     13  C   UNL     1     -12.762   6.352 129.027  0.00  0.00    +0.000 A 
ATOM     14  N   UNL     1     -13.509   6.896 128.030  0.00  0.00    +0.000 NA
ATOM     15  C   UNL     1     -13.613   8.245 128.004  0.00  0.00    +0.000 A 
ATOM     16  C   UNL     1     -12.980   9.078 128.904  0.00  0.00    +0.000 A 
ATOM     17  C   UNL     1     -12.178   8.495 129.872  0.00  0.00    +0.000 A 
ENDBRANCH  10  12
ENDBRANCH   2  10
TORSDOF 3
ENDMDL
MODEL 6
REMARK VINA RESULT:      -6.2      9.473     11.341
REMARK  Name = Metyrapone
REMARK  5 active torsions:
REMARK  status: ('A' for Active; 'I' for Inactive)
REMARK    1  A    between atoms: C_1  and  C_2
REMARK    2  A    between atoms: C_2  and  C_3
REMARK    3  A    between atoms: C_2  and  C_4
REMARK    4  A    between atoms: C_2  and  C_12
REMARK    5  A    between atoms: C_4  and  C_6
REMARK                            x       y       z     vdW  Elec       q    Type
REMARK                         _______ _______ _______ _____ _____    ______ ____
ROOT
ATOM      1  C   UNL     1      -8.960   5.072 129.208  0.00  0.00    +0.000 C 
ATOM      2  C   UNL     1     -10.029   5.489 130.244  0.00  0.00    +0.000 C 
ATOM      3  C   UNL     1     -10.823   4.215 130.611  0.00  0.00    +0.000 C 
ENDROOT
BRANCH   2   4
ATOM      4  C   UNL     1     -10.912   6.533 129.545  0.00  0.00    +0.000 A 
ATOM      5  C   UNL     1     -10.331   7.669 128.959  0.00  0.00    +0.000 A 
ATOM      6  C   UNL     1     -11.108   8.562 128.233  0.00  0.00    +0.000 A 
ATOM      7  C   UNL     1     -12.461   8.309 128.128  0.00  0.00    +0.000 A 
ATOM      8  N   UNL     1     -13.076   7.256 128.704  0.00  0.00    +0.000 NA
ATOM      9  C   UNL     1     -12.294   6.404 129.404  0.00  0.00    +0.000 A 
ENDBRANCH   2   4
BRANCH   2  10
ATOM     10  C   UNL     1      -9.412   6.079 131.553  0.00  0.00    +0.000 C 
ATOM     11  O   UNL     1     -10.083   6.461 132.516  0.00  0.00    +0.000 OA
BRANCH  10  12
ATOM     12  C   UNL     1      -7.940   6.108 131.719  0.00  0.00    +0.000 A 
ATOM     13  C   UNL     1      -7.306   5.151 132.498  0.00  0.00    +0.000 A 
ATOM     14  N   UNL     1      -5.955   5.055 132.607  0.00  0.00    +0.000 NA
ATOM     15  C   UNL     1      -5.215   5.947 131.911  0.00  0.00    +0.000 A 
ATOM     16  C   UNL     1      -5.759   6.953 131.138  0.00  0.00    +0.000 A 
ATOM     17  C   UNL     1      -7.140   7.061 131.094  0.00  0.00    +0.000 A 
ENDBRANCH  10  12
ENDBRANCH   2  10
TORSDOF 3
ENDMDL
MODEL 7
REMARK VINA RESULT:      -6.2      8.697     10.636
REMARK  Name = Metyrapone
REMARK  5 active torsions:
REMARK  status: ('A' for Active; 'I' for Inactive)
REMARK    1  A    between atoms: C_1  and  C_2
REMARK    2  A    between atoms: C_2  and  C_3
REMARK    3  A    between atoms: C_2  and  C_4
REMARK    4  A    between atoms: C_2  and  C_12
REMARK    5  A    between atoms: C_4  and  C_6
REMARK                            x       y       z     vdW  Elec       q    Type
REMARK                         _______ _______ _______ _____ _____    ______ ____
ROOT
ATOM      1  C   UNL     1      -7.806   6.847 131.068  0.00  0.00    +0.000 C 
ATOM      2  C   UNL     1      -8.936   5.899 131.535  0.00  0.00    +0.000 C 
ATOM      3  C   UNL     1      -8.702   5.622 133.036  0.00  0.00    +0.000 C 
ENDROOT
BRANCH   2   4
ATOM      4  C   UNL     1      -8.797   4.625 130.688  0.00  0.00    +0.000 A 
ATOM      5  C   UNL     1      -9.175   3.382 131.218  0.00  0.00    +0.000 A 
ATOM      6  C   UNL     1      -9.155   2.243 130.425  0.00  0.00    +0.000 A 
ATOM      7  C   UNL     1      -8.731   2.370 129.117  0.00  0.00    +0.000 A 
ATOM      8  N   UNL     1      -8.319   3.531 128.570  0.00  0.00    +0.000 NA
ATOM      9  C   UNL     1      -8.350   4.623 129.367  0.00  0.00    +0.000 A 
ENDBRANCH   2   4
BRANCH   2  10
ATOM     10  C   UNL     1     -10.361   6.519 131.365  0.00  0.00    +0.000 C 
ATOM     11  O   UNL     1     -11.094   6.820 132.310  0.00  0.00    +0.000 OA
BRANCH  10  12
ATOM     12  C   UNL     1     -10.850   6.866 130.010  0.00  0.00    +0.000 A 
ATOM     13  C   UNL     1     -11.935   6.194 129.466  0.00  0.00    +0.000 A 
ATOM     14  N   UNL     1     -12.500   6.532 128.277  0.00  0.00    +0.000 NA
ATOM     15  C   UNL     1     -11.960   7.579 127.613  0.00  0.00    +0.000 A 
ATOM     16  C   UNL     1     -10.861   8.284 128.061  0.00  0.00    +0.000 A 
ATOM     17  C   UNL     1     -10.272   7.878 129.247  0.00  0.00    +0.000 A 
ENDBRANCH  10  12
ENDBRANCH   2  10
TORSDOF 3
ENDMDL
MODEL 8
REMARK VINA RESULT:      -6.1      9.262     11.119
REMARK  Name = Metyrapone
REMARK  5 active torsions:
REMARK  status: ('A' for Active; 'I' for Inactive)
REMARK    1  A    between atoms: C_1  and  C_2
REMARK    2  A    between atoms: C_2  and  C_3
REMARK    3  A    between atoms: C_2  and  C_4
REMARK    4  A    between atoms: C_2  and  C_12
REMARK    5  A    between atoms: C_4  and  C_6
REMARK                            x       y       z     vdW  Elec       q    Type
REMARK                         _______ _______ _______ _____ _____    ______ ____
ROOT
ATOM      1  C   UNL     1      -9.397   4.156 132.706  0.00  0.00    +0.000 C 
ATOM      2  C   UNL     1      -9.576   4.928 131.379  0.00  0.00    +0.000 C 
ATOM      3  C   UNL     1     -10.171   3.936 130.355  0.00  0.00    +0.000 C 
ENDROOT
BRANCH   2   4
ATOM      4  C   UNL     1      -8.172   5.400 130.970  0.00  0.00    +0.000 A 
ATOM      5  C   UNL     1      -7.519   6.394 131.714  0.00  0.00    +0.000 A 
ATOM      6  C   UNL     1      -6.210   6.750 131.418  0.00  0.00    +0.000 A 
ATOM      7  C   UNL     1      -5.587   6.114 130.362  0.00  0.00    +0.000 A 
ATOM      8  N   UNL     1      -6.182   5.182 129.591  0.00  0.00    +0.000 NA
ATOM      9  C   UNL     1      -7.456   4.856 129.904  0.00  0.00    +0.000 A 
ENDBRANCH   2   4
BRANCH   2  10
ATOM     10  C   UNL     1     -10.548   6.145 131.507  0.00  0.00    +0.000 C 
ATOM     11  O   UNL     1     -10.886   6.642 132.585  0.00  0.00    +0.000 OA
BRANCH  10  12
ATOM     12  C   UNL     1     -11.033   6.826 130.284  0.00  0.00    +0.000 A 
ATOM     13  C   UNL     1     -12.371   6.746 129.925  0.00  0.00    +0.000 A 
ATOM     14  N   UNL     1     -12.903   7.430 128.878  0.00  0.00    +0.000 NA
ATOM     15  C   UNL     1     -12.066   8.221 128.169  0.00  0.00    +0.000 A 
ATOM     16  C   UNL     1     -10.716   8.336 128.433  0.00  0.00    +0.000 A 
ATOM     17  C   UNL     1     -10.193   7.581 129.470  0.00  0.00    +0.000 A 
ENDBRANCH  10  12
ENDBRANCH   2  10
TORSDOF 3
ENDMDL
MODEL 9
REMARK VINA RESULT:      -6.0      9.781     11.235
REMARK  Name = Metyrapone
REMARK  5 active torsions:
REMARK  status: ('A' for Active; 'I' for Inactive)
REMARK    1  A    between atoms: C_1  and  C_2
REMARK    2  A    between atoms: C_2  and  C_3
REMARK    3  A    between atoms: C_2  and  C_4
REMARK    4  A    between atoms: C_2  and  C_12
REMARK    5  A    between atoms: C_4  and  C_6
REMARK                            x       y       z     vdW  Elec       q    Type
REMARK                         _______ _______ _______ _____ _____    ______ ____
ROOT
ATOM      1  C   UNL     1      -9.131   5.217 129.586  0.00  0.00    +0.000 C 
ATOM      2  C   UNL     1     -10.465   5.438 130.336  0.00  0.00    +0.000 C 
ATOM      3  C   UNL     1     -11.208   4.084 130.345  0.00  0.00    +0.000 C 
ENDROOT
BRANCH   2   4
ATOM      4  C   UNL     1     -11.228   6.506 129.538  0.00  0.00    +0.000 A 
ATOM      5  C   UNL     1     -12.601   6.353 129.292  0.00  0.00    +0.000 A 
ATOM      6  C   UNL     1     -13.320   7.362 128.666  0.00  0.00    +0.000 A 
ATOM      7  C   UNL     1     -12.640   8.500 128.277  0.00  0.00    +0.000 A 
ATOM      8  N   UNL     1     -11.316   8.679 128.453  0.00  0.00    +0.000 NA
ATOM      9  C   UNL     1     -10.642   7.680 129.066  0.00  0.00    +0.000 A 
ENDBRANCH   2   4
BRANCH   2  10
ATOM     10  C   UNL     1     -10.262   5.898 131.816  0.00  0.00    +0.000 C 
ATOM     11  O   UNL     1     -11.030   6.661 132.408  0.00  0.00    +0.000 OA
BRANCH  10  12
ATOM     12  C   UNL     1      -9.149   5.331 132.613  0.00  0.00    +0.000 A 
ATOM     13  C   UNL     1      -7.939   6.003 132.698  0.00  0.00    +0.000 A 
ATOM     14  N   UNL     1      -6.915   5.596 133.494  0.00  0.00    +0.000 NA
ATOM     15  C   UNL     1      -7.113   4.477 134.229  0.00  0.00    +0.000 A 
ATOM     16  C   UNL     1      -8.270   3.727 134.181  0.00  0.00    +0.000 A 
ATOM     17  C   UNL     1      -9.273   4.136 133.317  0.00  0.00    +0.000 A 
ENDBRANCH  10  12
ENDBRANCH   2  10
TORSDOF 3
ENDMDL
