MODEL 1
REMARK VINA RESULT:      -5.8      0.000      0.000
REMARK  Name = Metyrosine
REMARK  7 active torsions:
REMARK  status: ('A' for Active; 'I' for Inactive)
REMARK    1  A    between atoms: C_1  and  C_2
REMARK    2  A    between atoms: C_2  and  N_3
REMARK    3  A    between atoms: C_2  and  C_4
REMARK    4  A    between atoms: C_2  and  C_12
REMARK    5  A    between atoms: C_4  and  C_5
REMARK    6  A    between atoms: C_8  and  O_9
REMARK    7  A    between atoms: C_12  and  O_13
REMARK                            x       y       z     vdW  Elec       q    Type
REMARK                         _______ _______ _______ _____ _____    ______ ____
ROOT
ATOM      1  C   UNL     1     -13.872   7.973 127.903  0.00  0.00    +0.000 C 
ATOM      2  C   UNL     1     -12.506   7.388 128.295  0.00  0.00    +0.000 C 
ENDROOT
BRANCH   2   3
ATOM      3  N   UNL     1     -12.668   5.959 128.657  0.00  0.00    +0.000 NA
ATOM      4  H   UNL     1     -11.844   5.399 128.459  0.00  0.00    +0.000 HD
ATOM      5  H   UNL     1     -13.554   5.554 128.380  0.00  0.00    +0.000 HD
ENDBRANCH   2   3
BRANCH   2   6
ATOM      6  C   UNL     1     -11.555   7.514 127.077  0.00  0.00    +0.000 C 
ATOM      7  O   UNL     1     -10.755   8.428 126.915  0.00  0.00    +0.000 OA
BRANCH   6   8
ATOM      8  O   UNL     1     -11.669   6.514 126.165  0.00  0.00    +0.000 OA
ATOM      9  H   UNL     1     -12.015   5.695 126.564  0.00  0.00    +0.000 HD
ENDBRANCH   6   8
ENDBRANCH   2   6
BRANCH   2  10
ATOM     10  C   UNL     1     -11.902   8.208 129.473  0.00  0.00    +0.000 C 
BRANCH  10  11
ATOM     11  C   UNL     1     -10.964   7.412 130.365  0.00  0.00    +0.000 A 
ATOM     12  C   UNL     1     -11.440   6.780 131.525  0.00  0.00    +0.000 A 
ATOM     13  C   UNL     1     -10.574   6.128 132.401  0.00  0.00    +0.000 A 
ATOM     14  C   UNL     1      -9.221   6.073 132.097  0.00  0.00    +0.000 A 
ATOM     15  C   UNL     1      -8.726   6.683 130.950  0.00  0.00    +0.000 A 
ATOM     16  C   UNL     1      -9.593   7.355 130.086  0.00  0.00    +0.000 A 
BRANCH  14  17
ATOM     17  O   UNL     1      -8.334   5.423 132.903  0.00  0.00    +0.000 OA
ATOM     18  H   UNL     1      -8.545   4.475 132.896  0.00  0.00    +0.000 HD
ENDBRANCH  14  17
ENDBRANCH  10  11
ENDBRANCH   2  10
TORSDOF 6
ENDMDL
MODEL 2
REMARK VINA RESULT:      -5.6      2.418      4.694
REMARK  Name = Metyrosine
REMARK  7 active torsions:
REMARK  status: ('A' for Active; 'I' for Inactive)
REMARK    1  A    between atoms: C_1  and  C_2
REMARK    2  A    between atoms: C_2  and  N_3
REMARK    3  A    between atoms: C_2  and  C_4
REMARK    4  A    between atoms: C_2  and  C_12
REMARK    5  A    between atoms: C_4  and  C_5
REMARK    6  A    between atoms: C_8  and  O_9
REMARK    7  A    between atoms: C_12  and  O_13
REMARK                            x       y       z     vdW  Elec       q    Type
REMARK                         _______ _______ _______ _____ _____    ______ ____
ROOT
ATOM      1  C   UNL     1      -9.941   4.251 130.927  0.00  0.00    +0.000 C 
ATOM      2  C   UNL     1     -10.478   5.686 130.802  0.00  0.00    +0.000 C 
ENDROOT
BRANCH   2   3
ATOM      3  N   UNL     1     -10.376   6.365 132.116  0.00  0.00    +0.000 NA
ATOM      4  H   UNL     1      -9.418   6.549 132.399  0.00  0.00    +0.000 HD
ATOM      5  H   UNL     1     -10.984   5.986 132.832  0.00  0.00    +0.000 HD
ENDBRANCH   2   3
BRANCH   2   6
ATOM      6  C   UNL     1      -9.616   6.438 129.756  0.00  0.00    +0.000 C 
ATOM      7  O   UNL     1      -9.104   7.536 129.942  0.00  0.00    +0.000 OA
BRANCH   6   8
ATOM      8  O   UNL     1      -9.460   5.783 128.576  0.00  0.00    +0.000 OA
ATOM      9  H   UNL     1     -10.114   5.070 128.467  0.00  0.00    +0.000 HD
ENDBRANCH   6   8
ENDBRANCH   2   6
BRANCH   2  10
ATOM     10  C   UNL     1     -11.949   5.654 130.292  0.00  0.00    +0.000 C 
BRANCH  10  11
ATOM     11  C   UNL     1     -12.472   7.002 129.824  0.00  0.00    +0.000 A 
ATOM     12  C   UNL     1     -12.739   7.237 128.467  0.00  0.00    +0.000 A 
ATOM     13  C   UNL     1     -13.128   8.496 128.013  0.00  0.00    +0.000 A 
ATOM     14  C   UNL     1     -13.287   9.525 128.932  0.00  0.00    +0.000 A 
ATOM     15  C   UNL     1     -13.036   9.316 130.283  0.00  0.00    +0.000 A 
ATOM     16  C   UNL     1     -12.626   8.059 130.731  0.00  0.00    +0.000 A 
BRANCH  14  17
ATOM     17  O   UNL     1     -13.694  10.768 128.548  0.00  0.00    +0.000 OA
ATOM     18  H   UNL     1     -14.322  10.676 127.813  0.00  0.00    +0.000 HD
ENDBRANCH  14  17
ENDBRANCH  10  11
ENDBRANCH   2  10
TORSDOF 6
ENDMDL
MODEL 3
REMARK VINA RESULT:      -5.6      8.332     10.473
REMARK  Name = Metyrosine
REMARK  7 active torsions:
REMARK  status: ('A' for Active; 'I' for Inactive)
REMARK    1  A    between atoms: C_1  and  C_2
REMARK    2  A    between atoms: C_2  and  N_3
REMARK    3  A    between atoms: C_2  and  C_4
REMARK    4  A    between atoms: C_2  and  C_12
REMARK    5  A    between atoms: C_4  and  C_5
REMARK    6  A    between atoms: C_8  and  O_9
REMARK    7  A    between atoms: C_12  and  O_13
REMARK                            x       y       z     vdW  Elec       q    Type
REMARK                         _______ _______ _______ _____ _____    ______ ____
ROOT
ATOM      1  C   UNL     1      -7.227   2.161 125.071  0.00  0.00    +0.000 C 
ATOM      2  C   UNL     1      -6.951   3.208 123.981  0.00  0.00    +0.000 C 
ENDROOT
BRANCH   2   3
ATOM      3  N   UNL     1      -8.214   3.900 123.633  0.00  0.00    +0.000 NA
ATOM      4  H   UNL     1      -8.088   4.656 122.965  0.00  0.00    +0.000 HD
ATOM      5  H   UNL     1      -8.812   4.106 124.425  0.00  0.00    +0.000 HD
ENDBRANCH   2   3
BRANCH   2   6
ATOM      6  C   UNL     1      -5.929   4.233 124.538  0.00  0.00    +0.000 C 
ATOM      7  O   UNL     1      -4.819   3.940 124.966  0.00  0.00    +0.000 OA
BRANCH   6   8
ATOM      8  O   UNL     1      -6.358   5.522 124.524  0.00  0.00    +0.000 OA
ATOM      9  H   UNL     1      -6.190   5.971 125.372  0.00  0.00    +0.000 HD
ENDBRANCH   6   8
ENDBRANCH   2   6
BRANCH   2  10
ATOM     10  C   UNL     1      -6.320   2.516 122.736  0.00  0.00    +0.000 C 
BRANCH  10  11
ATOM     11  C   UNL     1      -6.123   3.442 121.547  0.00  0.00    +0.000 A 
ATOM     12  C   UNL     1      -4.990   4.267 121.460  0.00  0.00    +0.000 A 
ATOM     13  C   UNL     1      -4.844   5.188 120.424  0.00  0.00    +0.000 A 
ATOM     14  C   UNL     1      -5.824   5.261 119.443  0.00  0.00    +0.000 A 
ATOM     15  C   UNL     1      -6.951   4.449 119.502  0.00  0.00    +0.000 A 
ATOM     16  C   UNL     1      -7.104   3.543 120.553  0.00  0.00    +0.000 A 
BRANCH  14  17
ATOM     17  O   UNL     1      -5.718   6.122 118.391  0.00  0.00    +0.000 OA
ATOM     18  H   UNL     1      -5.579   7.019 118.737  0.00  0.00    +0.000 HD
ENDBRANCH  14  17
ENDBRANCH  10  11
ENDBRANCH   2  10
TORSDOF 6
ENDMDL
MODEL 4
REMARK VINA RESULT:      -5.5      2.053      5.611
REMARK  Name = Metyrosine
REMARK  7 active torsions:
REMARK  status: ('A' for Active; 'I' for Inactive)
REMARK    1  A    between atoms: C_1  and  C_2
REMARK    2  A    between atoms: C_2  and  N_3
REMARK    3  A    between atoms: C_2  and  C_4
REMARK    4  A    between atoms: C_2  and  C_12
REMARK    5  A    between atoms: C_4  and  C_5
REMARK    6  A    between atoms: C_8  and  O_9
REMARK    7  A    between atoms: C_12  and  O_13
REMARK                            x       y       z     vdW  Elec       q    Type
REMARK                         _______ _______ _______ _____ _____    ______ ____
ROOT
ATOM      1  C   UNL     1      -8.360   4.023 130.916  0.00  0.00    +0.000 C 
ATOM      2  C   UNL     1      -9.623   4.193 131.776  0.00  0.00    +0.000 C 
ENDROOT
BRANCH   2   3
ATOM      3  N   UNL     1     -10.801   3.700 131.023  0.00  0.00    +0.000 NA
ATOM      4  H   UNL     1     -11.244   4.417 130.457  0.00  0.00    +0.000 HD
ATOM      5  H   UNL     1     -11.427   3.112 131.562  0.00  0.00    +0.000 HD
ENDBRANCH   2   3
BRANCH   2   6
ATOM      6  C   UNL     1      -9.445   3.361 133.072  0.00  0.00    +0.000 C 
ATOM      7  O   UNL     1      -9.004   2.218 133.105  0.00  0.00    +0.000 OA
BRANCH   6   8
ATOM      8  O   UNL     1      -9.825   3.999 134.209  0.00  0.00    +0.000 OA
ATOM      9  H   UNL     1     -10.723   3.745 134.487  0.00  0.00    +0.000 HD
ENDBRANCH   6   8
ENDBRANCH   2   6
BRANCH   2  10
ATOM     10  C   UNL     1      -9.789   5.689 132.174  0.00  0.00    +0.000 C 
BRANCH  10  11
ATOM     11  C   UNL     1     -10.450   6.544 131.106  0.00  0.00    +0.000 A 
ATOM     12  C   UNL     1      -9.696   7.095 130.059  0.00  0.00    +0.000 A 
ATOM     13  C   UNL     1     -10.272   7.958 129.127  0.00  0.00    +0.000 A 
ATOM     14  C   UNL     1     -11.627   8.245 129.222  0.00  0.00    +0.000 A 
ATOM     15  C   UNL     1     -12.398   7.706 130.245  0.00  0.00    +0.000 A 
ATOM     16  C   UNL     1     -11.813   6.859 131.189  0.00  0.00    +0.000 A 
BRANCH  14  17
ATOM     17  O   UNL     1     -12.248   9.059 128.321  0.00  0.00    +0.000 OA
ATOM     18  H   UNL     1     -11.749   9.039 127.489  0.00  0.00    +0.000 HD
ENDBRANCH  14  17
ENDBRANCH  10  11
ENDBRANCH   2  10
TORSDOF 6
ENDMDL
MODEL 5
REMARK VINA RESULT:      -5.5      2.348      5.045
REMARK  Name = Metyrosine
REMARK  7 active torsions:
REMARK  status: ('A' for Active; 'I' for Inactive)
REMARK    1  A    between atoms: C_1  and  C_2
REMARK    2  A    between atoms: C_2  and  N_3
REMARK    3  A    between atoms: C_2  and  C_4
REMARK    4  A    between atoms: C_2  and  C_12
REMARK    5  A    between atoms: C_4  and  C_5
REMARK    6  A    between atoms: C_8  and  O_9
REMARK    7  A    between atoms: C_12  and  O_13
REMARK                            x       y       z     vdW  Elec       q    Type
REMARK                         _______ _______ _______ _____ _____    ______ ____
ROOT
ATOM      1  C   UNL     1      -9.655   6.350 131.275  0.00  0.00    +0.000 C 
ATOM      2  C   UNL     1     -10.307   5.539 130.144  0.00  0.00    +0.000 C 
ENDROOT
BRANCH   2   3
ATOM      3  N   UNL     1      -9.844   6.059 128.836  0.00  0.00    +0.000 NA
ATOM      4  H   UNL     1      -8.866   6.335 128.837  0.00  0.00    +0.000 HD
ATOM      5  H   UNL     1     -10.484   6.706 128.390  0.00  0.00    +0.000 HD
ENDBRANCH   2   3
BRANCH   2   6
ATOM      6  C   UNL     1      -9.880   4.057 130.299  0.00  0.00    +0.000 C 
ATOM      7  O   UNL     1      -9.361   3.391 129.410  0.00  0.00    +0.000 OA
BRANCH   6   8
ATOM      8  O   UNL     1     -10.129   3.522 131.522  0.00  0.00    +0.000 OA
ATOM      9  H   UNL     1     -10.191   4.206 132.213  0.00  0.00    +0.000 HD
ENDBRANCH   6   8
ENDBRANCH   2   6
BRANCH   2  10
ATOM     10  C   UNL     1     -11.858   5.617 130.269  0.00  0.00    +0.000 C 
BRANCH  10  11
ATOM     11  C   UNL     1     -12.456   6.916 129.755  0.00  0.00    +0.000 A 
ATOM     12  C   UNL     1     -12.985   6.999 128.457  0.00  0.00    +0.000 A 
ATOM     13  C   UNL     1     -13.449   8.208 127.941  0.00  0.00    +0.000 A 
ATOM     14  C   UNL     1     -13.419   9.340 128.744  0.00  0.00    +0.000 A 
ATOM     15  C   UNL     1     -12.908   9.282 130.035  0.00  0.00    +0.000 A 
ATOM     16  C   UNL     1     -12.424   8.075 130.542  0.00  0.00    +0.000 A 
BRANCH  14  17
ATOM     17  O   UNL     1     -13.887  10.542 128.301  0.00  0.00    +0.000 OA
ATOM     18  H   UNL     1     -13.831  11.184 129.027  0.00  0.00    +0.000 HD
ENDBRANCH  14  17
ENDBRANCH  10  11
ENDBRANCH   2  10
TORSDOF 6
ENDMDL
MODEL 6
REMARK VINA RESULT:      -5.5      1.589      5.338
REMARK  Name = Metyrosine
REMARK  7 active torsions:
REMARK  status: ('A' for Active; 'I' for Inactive)
REMARK    1  A    between atoms: C_1  and  C_2
REMARK    2  A    between atoms: C_2  and  N_3
REMARK    3  A    between atoms: C_2  and  C_4
REMARK    4  A    between atoms: C_2  and  C_12
REMARK    5  A    between atoms: C_4  and  C_5
REMARK    6  A    between atoms: C_8  and  O_9
REMARK    7  A    between atoms: C_12  and  O_13
REMARK                            x       y       z     vdW  Elec       q    Type
REMARK                         _______ _______ _______ _____ _____    ______ ____
ROOT
ATOM      1  C   UNL     1     -10.875   4.760 130.385  0.00  0.00    +0.000 C 
ATOM      2  C   UNL     1     -10.908   6.031 131.249  0.00  0.00    +0.000 C 
ENDROOT
BRANCH   2   3
ATOM      3  N   UNL     1     -12.240   6.156 131.887  0.00  0.00    +0.000 NA
ATOM      4  H   UNL     1     -12.193   6.287 132.894  0.00  0.00    +0.000 HD
ATOM      5  H   UNL     1     -12.927   5.485 131.561  0.00  0.00    +0.000 HD
ENDBRANCH   2   3
BRANCH   2   6
ATOM      6  C   UNL     1      -9.815   5.906 132.341  0.00  0.00    +0.000 C 
ATOM      7  O   UNL     1      -8.771   6.549 132.351  0.00  0.00    +0.000 OA
BRANCH   6   8
ATOM      8  O   UNL     1     -10.093   5.006 133.319  0.00  0.00    +0.000 OA
ATOM      9  H   UNL     1     -10.923   4.527 133.147  0.00  0.00    +0.000 HD
ENDBRANCH   6   8
ENDBRANCH   2   6
BRANCH   2  10
ATOM     10  C   UNL     1     -10.581   7.273 130.369  0.00  0.00    +0.000 C 
BRANCH  10  11
ATOM     11  C   UNL     1     -11.129   7.191 128.954  0.00  0.00    +0.000 A 
ATOM     12  C   UNL     1     -10.268   7.240 127.846  0.00  0.00    +0.000 A 
ATOM     13  C   UNL     1     -10.765   7.261 126.544  0.00  0.00    +0.000 A 
ATOM     14  C   UNL     1     -12.137   7.196 126.344  0.00  0.00    +0.000 A 
ATOM     15  C   UNL     1     -13.010   7.139 127.423  0.00  0.00    +0.000 A 
ATOM     16  C   UNL     1     -12.511   7.140 128.727  0.00  0.00    +0.000 A 
BRANCH  14  17
ATOM     17  O   UNL     1     -12.676   7.184 125.091  0.00  0.00    +0.000 OA
ATOM     18  H   UNL     1     -13.420   7.807 125.067  0.00  0.00    +0.000 HD
ENDBRANCH  14  17
ENDBRANCH  10  11
ENDBRANCH   2  10
TORSDOF 6
ENDMDL
MODEL 7
REMARK VINA RESULT:      -5.4      9.375     10.915
REMARK  Name = Metyrosine
REMARK  7 active torsions:
REMARK  status: ('A' for Active; 'I' for Inactive)
REMARK    1  A    between atoms: C_1  and  C_2
REMARK    2  A    between atoms: C_2  and  N_3
REMARK    3  A    between atoms: C_2  and  C_4
REMARK    4  A    between atoms: C_2  and  C_12
REMARK    5  A    between atoms: C_4  and  C_5
REMARK    6  A    between atoms: C_8  and  O_9
REMARK    7  A    between atoms: C_12  and  O_13
REMARK                            x       y       z     vdW  Elec       q    Type
REMARK                         _______ _______ _______ _____ _____    ______ ____
ROOT
ATOM      1  C   UNL     1      -6.998  -3.434 124.310  0.00  0.00    +0.000 C 
ATOM      2  C   UNL     1      -8.073  -2.388 123.975  0.00  0.00    +0.000 C 
ENDROOT
BRANCH   2   3
ATOM      3  N   UNL     1      -8.069  -2.129 122.516  0.00  0.00    +0.000 NA
ATOM      4  H   UNL     1      -7.137  -2.121 122.111  0.00  0.00    +0.000 HD
ATOM      5  H   UNL     1      -8.684  -1.379 122.221  0.00  0.00    +0.000 HD
ENDBRANCH   2   3
BRANCH   2   6
ATOM      6  C   UNL     1      -9.452  -2.952 124.403  0.00  0.00    +0.000 C 
ATOM      7  O   UNL     1      -9.896  -2.901 125.544  0.00  0.00    +0.000 OA
BRANCH   6   8
ATOM      8  O   UNL     1     -10.162  -3.529 123.400  0.00  0.00    +0.000 OA
ATOM      9  H   UNL     1     -10.868  -4.107 123.739  0.00  0.00    +0.000 HD
ENDBRANCH   6   8
ENDBRANCH   2   6
BRANCH   2  10
ATOM     10  C   UNL     1      -7.805  -1.084 124.784  0.00  0.00    +0.000 C 
BRANCH  10  11
ATOM     11  C   UNL     1      -8.015   0.193 123.987  0.00  0.00    +0.000 A 
ATOM     12  C   UNL     1      -6.920   0.952 123.545  0.00  0.00    +0.000 A 
ATOM     13  C   UNL     1      -7.101   2.173 122.896  0.00  0.00    +0.000 A 
ATOM     14  C   UNL     1      -8.391   2.624 122.654  0.00  0.00    +0.000 A 
ATOM     15  C   UNL     1      -9.492   1.888 123.075  0.00  0.00    +0.000 A 
ATOM     16  C   UNL     1      -9.308   0.676 123.743  0.00  0.00    +0.000 A 
BRANCH  14  17
ATOM     17  O   UNL     1      -8.625   3.796 121.998  0.00  0.00    +0.000 OA
ATOM     18  H   UNL     1      -8.086   3.813 121.191  0.00  0.00    +0.000 HD
ENDBRANCH  14  17
ENDBRANCH  10  11
ENDBRANCH   2  10
TORSDOF 6
ENDMDL
MODEL 8
REMARK VINA RESULT:      -5.0      9.139     10.452
REMARK  Name = Metyrosine
REMARK  7 active torsions:
REMARK  status: ('A' for Active; 'I' for Inactive)
REMARK    1  A    between atoms: C_1  and  C_2
REMARK    2  A    between atoms: C_2  and  N_3
REMARK    3  A    between atoms: C_2  and  C_4
REMARK    4  A    between atoms: C_2  and  C_12
REMARK    5  A    between atoms: C_4  and  C_5
REMARK    6  A    between atoms: C_8  and  O_9
REMARK    7  A    between atoms: C_12  and  O_13
REMARK                            x       y       z     vdW  Elec       q    Type
REMARK                         _______ _______ _______ _____ _____    ______ ____
ROOT
ATOM      1  C   UNL     1      -7.706  -1.828 125.807  0.00  0.00    +0.000 C 
ATOM      2  C   UNL     1      -7.912  -2.486 124.434  0.00  0.00    +0.000 C 
ENDROOT
BRANCH   2   3
ATOM      3  N   UNL     1      -6.984  -3.633 124.294  0.00  0.00    +0.000 NA
ATOM      4  H   UNL     1      -6.626  -3.971 125.183  0.00  0.00    +0.000 HD
ATOM      5  H   UNL     1      -6.300  -3.532 123.552  0.00  0.00    +0.000 HD
ENDBRANCH   2   3
BRANCH   2   6
ATOM      6  C   UNL     1      -9.377  -2.985 124.348  0.00  0.00    +0.000 C 
ATOM      7  O   UNL     1      -9.917  -3.372 123.318  0.00  0.00    +0.000 OA
BRANCH   6   8
ATOM      8  O   UNL     1     -10.051  -2.964 125.527  0.00  0.00    +0.000 OA
ATOM      9  H   UNL     1     -10.113  -3.849 125.928  0.00  0.00    +0.000 HD
ENDBRANCH   6   8
ENDBRANCH   2   6
BRANCH   2  10
ATOM     10  C   UNL     1      -7.687  -1.433 123.308  0.00  0.00    +0.000 C 
BRANCH  10  11
ATOM     11  C   UNL     1      -8.031  -0.010 123.715  0.00  0.00    +0.000 A 
ATOM     12  C   UNL     1      -7.028   0.880 124.131  0.00  0.00    +0.000 A 
ATOM     13  C   UNL     1      -7.340   2.157 124.596  0.00  0.00    +0.000 A 
ATOM     14  C   UNL     1      -8.667   2.563 124.612  0.00  0.00    +0.000 A 
ATOM     15  C   UNL     1      -9.678   1.704 124.198  0.00  0.00    +0.000 A 
ATOM     16  C   UNL     1      -9.364   0.418 123.753  0.00  0.00    +0.000 A 
BRANCH  14  17
ATOM     17  O   UNL     1      -9.027   3.810 125.029  0.00  0.00    +0.000 OA
ATOM     18  H   UNL     1      -8.247   4.387 124.992  0.00  0.00    +0.000 HD
ENDBRANCH  14  17
ENDBRANCH  10  11
ENDBRANCH   2  10
TORSDOF 6
ENDMDL
MODEL 9
REMARK VINA RESULT:      -4.9      9.510     10.145
REMARK  Name = Metyrosine
REMARK  7 active torsions:
REMARK  status: ('A' for Active; 'I' for Inactive)
REMARK    1  A    between atoms: C_1  and  C_2
REMARK    2  A    between atoms: C_2  and  N_3
REMARK    3  A    between atoms: C_2  and  C_4
REMARK    4  A    between atoms: C_2  and  C_12
REMARK    5  A    between atoms: C_4  and  C_5
REMARK    6  A    between atoms: C_8  and  O_9
REMARK    7  A    between atoms: C_12  and  O_13
REMARK                            x       y       z     vdW  Elec       q    Type
REMARK                         _______ _______ _______ _____ _____    ______ ____
ROOT
ATOM      1  C   UNL     1      -7.029   4.168 120.049  0.00  0.00    +0.000 C 
ATOM      2  C   UNL     1      -5.905   3.882 121.058  0.00  0.00    +0.000 C 
ENDROOT
BRANCH   2   3
ATOM      3  N   UNL     1      -5.227   2.616 120.693  0.00  0.00    +0.000 NA
ATOM      4  H   UNL     1      -5.596   2.191 119.847  0.00  0.00    +0.000 HD
ATOM      5  H   UNL     1      -5.070   1.985 121.471  0.00  0.00    +0.000 HD
ENDBRANCH   2   3
BRANCH   2   6
ATOM      6  C   UNL     1      -4.891   5.054 121.001  0.00  0.00    +0.000 C 
ATOM      7  O   UNL     1      -4.922   5.956 120.172  0.00  0.00    +0.000 OA
BRANCH   6   8
ATOM      8  O   UNL     1      -3.930   5.015 121.960  0.00  0.00    +0.000 OA
ATOM      9  H   UNL     1      -3.895   4.150 122.405  0.00  0.00    +0.000 HD
ENDBRANCH   6   8
ENDBRANCH   2   6
BRANCH   2  10
ATOM     10  C   UNL     1      -6.497   3.816 122.497  0.00  0.00    +0.000 C 
BRANCH  10  11
ATOM     11  C   UNL     1      -7.373   2.601 122.751  0.00  0.00    +0.000 A 
ATOM     12  C   UNL     1      -8.759   2.658 122.535  0.00  0.00    +0.000 A 
ATOM     13  C   UNL     1      -9.586   1.582 122.854  0.00  0.00    +0.000 A 
ATOM     14  C   UNL     1      -9.018   0.422 123.361  0.00  0.00    +0.000 A 
ATOM     15  C   UNL     1      -7.647   0.337 123.576  0.00  0.00    +0.000 A 
ATOM     16  C   UNL     1      -6.824   1.424 123.276  0.00  0.00    +0.000 A 
BRANCH  14  17
ATOM     17  O   UNL     1      -9.776  -0.671 123.662  0.00  0.00    +0.000 OA
ATOM     18  H   UNL     1     -10.095  -1.066 122.835  0.00  0.00    +0.000 HD
ENDBRANCH  14  17
ENDBRANCH  10  11
ENDBRANCH   2  10
TORSDOF 6
ENDMDL
