MODEL 1
REMARK VINA RESULT:      -5.6      0.000      0.000
REMARK  Name = Mexiletine
REMARK  7 active torsions:
REMARK  status: ('A' for Active; 'I' for Inactive)
REMARK    1  A    between atoms: C_1  and  C_2
REMARK    2  A    between atoms: C_2  and  N_3
REMARK    3  A    between atoms: C_2  and  C_4
REMARK    4  A    between atoms: C_4  and  O_5
REMARK    5  A    between atoms: O_5  and  C_6
REMARK    6  A    between atoms: C_7  and  C_8
REMARK    7  A    between atoms: C_12  and  C_13
REMARK                            x       y       z     vdW  Elec       q    Type
REMARK                         _______ _______ _______ _____ _____    ______ ____
ROOT
ATOM      1  C   UNL     1      -7.749   3.528 121.782  0.00  0.00    +0.000 A 
ATOM      2  C   UNL     1      -7.907   3.919 120.442  0.00  0.00    +0.000 A 
ATOM      3  C   UNL     1      -9.232   4.051 119.745  0.00  0.00    +0.000 C 
ATOM      4  C   UNL     1      -6.767   4.251 119.689  0.00  0.00    +0.000 A 
ATOM      5  C   UNL     1      -5.499   4.256 120.268  0.00  0.00    +0.000 A 
ATOM      6  C   UNL     1      -5.356   3.933 121.611  0.00  0.00    +0.000 A 
ATOM      7  C   UNL     1      -6.471   3.572 122.385  0.00  0.00    +0.000 A 
ATOM      8  C   UNL     1      -6.264   3.262 123.843  0.00  0.00    +0.000 C 
ENDROOT
BRANCH   1   9
ATOM      9  O   UNL     1      -8.819   3.224 122.589  0.00  0.00    +0.000 OA
BRANCH   9  10
ATOM     10  C   UNL     1      -9.205   1.840 122.556  0.00  0.00    +0.000 C 
BRANCH  10  12
ATOM     11  C   UNL     1      -8.700   0.255 124.451  0.00  0.00    +0.000 C 
ATOM     12  C   UNL     1      -9.612   1.389 123.975  0.00  0.00    +0.000 C 
BRANCH  12  13
ATOM     13  N   UNL     1      -9.551   2.507 124.925  0.00  0.00    +0.000 NA
ATOM     14  H   UNL     1      -9.056   2.217 125.767  0.00  0.00    +0.000 HD
ATOM     15  H   UNL     1     -10.491   2.777 125.207  0.00  0.00    +0.000 HD
ENDBRANCH  12  13
ENDBRANCH  10  12
ENDBRANCH   9  10
ENDBRANCH   1   9
TORSDOF 4
ENDMDL
MODEL 2
REMARK VINA RESULT:      -5.3      0.172      2.421
REMARK  Name = Mexiletine
REMARK  7 active torsions:
REMARK  status: ('A' for Active; 'I' for Inactive)
REMARK    1  A    between atoms: C_1  and  C_2
REMARK    2  A    between atoms: C_2  and  N_3
REMARK    3  A    between atoms: C_2  and  C_4
REMARK    4  A    between atoms: C_4  and  O_5
REMARK    5  A    between atoms: O_5  and  C_6
REMARK    6  A    between atoms: C_7  and  C_8
REMARK    7  A    between atoms: C_12  and  C_13
REMARK                            x       y       z     vdW  Elec       q    Type
REMARK                         _______ _______ _______ _____ _____    ______ ____
ROOT
ATOM      1  C   UNL     1      -7.821   3.543 121.863  0.00  0.00    +0.000 A 
ATOM      2  C   UNL     1      -6.554   3.436 122.462  0.00  0.00    +0.000 A 
ATOM      3  C   UNL     1      -6.314   2.926 123.855  0.00  0.00    +0.000 C 
ATOM      4  C   UNL     1      -5.415   3.788 121.718  0.00  0.00    +0.000 A 
ATOM      5  C   UNL     1      -5.521   4.180 120.385  0.00  0.00    +0.000 A 
ATOM      6  C   UNL     1      -6.768   4.221 119.777  0.00  0.00    +0.000 A 
ATOM      7  C   UNL     1      -7.929   3.900 120.499  0.00  0.00    +0.000 A 
ATOM      8  C   UNL     1      -9.253   3.929 119.784  0.00  0.00    +0.000 C 
ENDROOT
BRANCH   1   9
ATOM      9  O   UNL     1      -8.975   3.183 122.517  0.00  0.00    +0.000 OA
BRANCH   9  10
ATOM     10  C   UNL     1      -9.254   1.773 122.481  0.00  0.00    +0.000 C 
BRANCH  10  12
ATOM     11  C   UNL     1      -8.854   0.144 124.363  0.00  0.00    +0.000 C 
ATOM     12  C   UNL     1      -9.719   1.310 123.878  0.00  0.00    +0.000 C 
BRANCH  12  13
ATOM     13  N   UNL     1      -9.660   2.409 124.850  0.00  0.00    +0.000 NA
ATOM     14  H   UNL     1      -8.741   2.432 125.289  0.00  0.00    +0.000 HD
ATOM     15  H   UNL     1     -10.343   2.259 125.590  0.00  0.00    +0.000 HD
ENDBRANCH  12  13
ENDBRANCH  10  12
ENDBRANCH   9  10
ENDBRANCH   1   9
TORSDOF 4
ENDMDL
MODEL 3
REMARK VINA RESULT:      -5.3      8.412      9.628
REMARK  Name = Mexiletine
REMARK  7 active torsions:
REMARK  status: ('A' for Active; 'I' for Inactive)
REMARK    1  A    between atoms: C_1  and  C_2
REMARK    2  A    between atoms: C_2  and  N_3
REMARK    3  A    between atoms: C_2  and  C_4
REMARK    4  A    between atoms: C_4  and  O_5
REMARK    5  A    between atoms: O_5  and  C_6
REMARK    6  A    between atoms: C_7  and  C_8
REMARK    7  A    between atoms: C_12  and  C_13
REMARK                            x       y       z     vdW  Elec       q    Type
REMARK                         _______ _______ _______ _____ _____    ______ ____
ROOT
ATOM      1  C   UNL     1     -12.018   6.965 129.272  0.00  0.00    +0.000 A 
ATOM      2  C   UNL     1     -12.313   7.670 128.093  0.00  0.00    +0.000 A 
ATOM      3  C   UNL     1     -12.159   7.109 126.707  0.00  0.00    +0.000 C 
ATOM      4  C   UNL     1     -12.822   8.977 128.187  0.00  0.00    +0.000 A 
ATOM      5  C   UNL     1     -13.094   9.554 129.426  0.00  0.00    +0.000 A 
ATOM      6  C   UNL     1     -12.864   8.829 130.588  0.00  0.00    +0.000 A 
ATOM      7  C   UNL     1     -12.332   7.531 130.529  0.00  0.00    +0.000 A 
ATOM      8  C   UNL     1     -12.132   6.776 131.816  0.00  0.00    +0.000 C 
ENDROOT
BRANCH   1   9
ATOM      9  O   UNL     1     -11.552   5.672 129.258  0.00  0.00    +0.000 OA
BRANCH   9  10
ATOM     10  C   UNL     1     -10.143   5.554 129.509  0.00  0.00    +0.000 C 
BRANCH  10  12
ATOM     11  C   UNL     1      -9.182   4.511 131.594  0.00  0.00    +0.000 C 
ATOM     12  C   UNL     1      -9.867   4.230 130.254  0.00  0.00    +0.000 C 
BRANCH  12  13
ATOM     13  N   UNL     1     -11.107   3.478 130.479  0.00  0.00    +0.000 NA
ATOM     14  H   UNL     1     -10.929   2.481 130.382  0.00  0.00    +0.000 HD
ATOM     15  H   UNL     1     -11.800   3.729 129.777  0.00  0.00    +0.000 HD
ENDBRANCH  12  13
ENDBRANCH  10  12
ENDBRANCH   9  10
ENDBRANCH   1   9
TORSDOF 4
ENDMDL
MODEL 4
REMARK VINA RESULT:      -5.2      7.872      9.369
REMARK  Name = Mexiletine
REMARK  7 active torsions:
REMARK  status: ('A' for Active; 'I' for Inactive)
REMARK    1  A    between atoms: C_1  and  C_2
REMARK    2  A    between atoms: C_2  and  N_3
REMARK    3  A    between atoms: C_2  and  C_4
REMARK    4  A    between atoms: C_4  and  O_5
REMARK    5  A    between atoms: O_5  and  C_6
REMARK    6  A    between atoms: C_7  and  C_8
REMARK    7  A    between atoms: C_12  and  C_13
REMARK                            x       y       z     vdW  Elec       q    Type
REMARK                         _______ _______ _______ _____ _____    ______ ____
ROOT
ATOM      1  C   UNL     1     -11.392   6.773 129.285  0.00  0.00    +0.000 A 
ATOM      2  C   UNL     1     -11.961   7.184 130.504  0.00  0.00    +0.000 A 
ATOM      3  C   UNL     1     -11.785   6.460 131.809  0.00  0.00    +0.000 C 
ATOM      4  C   UNL     1     -12.719   8.367 130.539  0.00  0.00    +0.000 A 
ATOM      5  C   UNL     1     -12.861   9.164 129.405  0.00  0.00    +0.000 A 
ATOM      6  C   UNL     1     -12.243   8.789 128.220  0.00  0.00    +0.000 A 
ATOM      7  C   UNL     1     -11.499   7.600 128.143  0.00  0.00    +0.000 A 
ATOM      8  C   UNL     1     -10.823   7.257 126.843  0.00  0.00    +0.000 C 
ENDROOT
BRANCH   1   9
ATOM      9  O   UNL     1     -10.611   5.648 129.182  0.00  0.00    +0.000 OA
BRANCH   9  10
ATOM     10  C   UNL     1      -9.268   5.821 129.662  0.00  0.00    +0.000 C 
BRANCH  10  12
ATOM     11  C   UNL     1      -8.968   3.318 129.611  0.00  0.00    +0.000 C 
ATOM     12  C   UNL     1      -8.390   4.659 129.150  0.00  0.00    +0.000 C 
BRANCH  12  13
ATOM     13  N   UNL     1      -8.284   4.677 127.686  0.00  0.00    +0.000 NA
ATOM     14  H   UNL     1      -9.199   4.858 127.277  0.00  0.00    +0.000 HD
ATOM     15  H   UNL     1      -7.978   3.768 127.347  0.00  0.00    +0.000 HD
ENDBRANCH  12  13
ENDBRANCH  10  12
ENDBRANCH   9  10
ENDBRANCH   1   9
TORSDOF 4
ENDMDL
MODEL 5
REMARK VINA RESULT:      -5.1      2.659      5.491
REMARK  Name = Mexiletine
REMARK  7 active torsions:
REMARK  status: ('A' for Active; 'I' for Inactive)
REMARK    1  A    between atoms: C_1  and  C_2
REMARK    2  A    between atoms: C_2  and  N_3
REMARK    3  A    between atoms: C_2  and  C_4
REMARK    4  A    between atoms: C_4  and  O_5
REMARK    5  A    between atoms: O_5  and  C_6
REMARK    6  A    between atoms: C_7  and  C_8
REMARK    7  A    between atoms: C_12  and  C_13
REMARK                            x       y       z     vdW  Elec       q    Type
REMARK                         _______ _______ _______ _____ _____    ______ ____
ROOT
ATOM      1  C   UNL     1      -7.802  -0.841 123.889  0.00  0.00    +0.000 A 
ATOM      2  C   UNL     1      -8.955  -1.365 123.279  0.00  0.00    +0.000 A 
ATOM      3  C   UNL     1      -9.909  -0.564 122.438  0.00  0.00    +0.000 C 
ATOM      4  C   UNL     1      -9.240  -2.734 123.418  0.00  0.00    +0.000 A 
ATOM      5  C   UNL     1      -8.368  -3.584 124.096  0.00  0.00    +0.000 A 
ATOM      6  C   UNL     1      -7.197  -3.075 124.640  0.00  0.00    +0.000 A 
ATOM      7  C   UNL     1      -6.894  -1.707 124.541  0.00  0.00    +0.000 A 
ATOM      8  C   UNL     1      -5.596  -1.213 125.120  0.00  0.00    +0.000 C 
ENDROOT
BRANCH   1   9
ATOM      9  O   UNL     1      -7.442   0.478 123.765  0.00  0.00    +0.000 OA
BRANCH   9  10
ATOM     10  C   UNL     1      -8.037   1.344 124.746  0.00  0.00    +0.000 C 
BRANCH  10  12
ATOM     11  C   UNL     1      -8.524   2.800 122.747  0.00  0.00    +0.000 C 
ATOM     12  C   UNL     1      -8.059   2.789 124.205  0.00  0.00    +0.000 C 
BRANCH  12  13
ATOM     13  N   UNL     1      -8.936   3.646 125.012  0.00  0.00    +0.000 NA
ATOM     14  H   UNL     1      -9.259   4.433 124.453  0.00  0.00    +0.000 HD
ATOM     15  H   UNL     1      -8.420   4.029 125.802  0.00  0.00    +0.000 HD
ENDBRANCH  12  13
ENDBRANCH  10  12
ENDBRANCH   9  10
ENDBRANCH   1   9
TORSDOF 4
ENDMDL
MODEL 6
REMARK VINA RESULT:      -5.0      2.602      5.908
REMARK  Name = Mexiletine
REMARK  7 active torsions:
REMARK  status: ('A' for Active; 'I' for Inactive)
REMARK    1  A    between atoms: C_1  and  C_2
REMARK    2  A    between atoms: C_2  and  N_3
REMARK    3  A    between atoms: C_2  and  C_4
REMARK    4  A    between atoms: C_4  and  O_5
REMARK    5  A    between atoms: O_5  and  C_6
REMARK    6  A    between atoms: C_7  and  C_8
REMARK    7  A    between atoms: C_12  and  C_13
REMARK                            x       y       z     vdW  Elec       q    Type
REMARK                         _______ _______ _______ _____ _____    ______ ____
ROOT
ATOM      1  C   UNL     1      -7.715  -0.837 123.636  0.00  0.00    +0.000 A 
ATOM      2  C   UNL     1      -6.862  -1.674 124.377  0.00  0.00    +0.000 A 
ATOM      3  C   UNL     1      -5.603  -1.215 125.057  0.00  0.00    +0.000 C 
ATOM      4  C   UNL     1      -7.206  -3.027 124.539  0.00  0.00    +0.000 A 
ATOM      5  C   UNL     1      -8.402  -3.531 124.030  0.00  0.00    +0.000 A 
ATOM      6  C   UNL     1      -9.272  -2.686 123.357  0.00  0.00    +0.000 A 
ATOM      7  C   UNL     1      -8.948  -1.334 123.155  0.00  0.00    +0.000 A 
ATOM      8  C   UNL     1      -9.941  -0.454 122.446  0.00  0.00    +0.000 C 
ENDROOT
BRANCH   1   9
ATOM      9  O   UNL     1      -7.463   0.503 123.466  0.00  0.00    +0.000 OA
BRANCH   9  10
ATOM     10  C   UNL     1      -7.846   1.319 124.585  0.00  0.00    +0.000 C 
BRANCH  10  12
ATOM     11  C   UNL     1      -8.381   2.834 122.642  0.00  0.00    +0.000 C 
ATOM     12  C   UNL     1      -7.992   2.784 124.122  0.00  0.00    +0.000 C 
BRANCH  12  13
ATOM     13  N   UNL     1      -8.994   3.498 124.922  0.00  0.00    +0.000 NA
ATOM     14  H   UNL     1      -8.539   4.208 125.492  0.00  0.00    +0.000 HD
ATOM     15  H   UNL     1      -9.457   2.853 125.558  0.00  0.00    +0.000 HD
ENDBRANCH  12  13
ENDBRANCH  10  12
ENDBRANCH   9  10
ENDBRANCH   1   9
TORSDOF 4
ENDMDL
MODEL 7
REMARK VINA RESULT:      -5.0      8.429     10.285
REMARK  Name = Mexiletine
REMARK  7 active torsions:
REMARK  status: ('A' for Active; 'I' for Inactive)
REMARK    1  A    between atoms: C_1  and  C_2
REMARK    2  A    between atoms: C_2  and  N_3
REMARK    3  A    between atoms: C_2  and  C_4
REMARK    4  A    between atoms: C_4  and  O_5
REMARK    5  A    between atoms: O_5  and  C_6
REMARK    6  A    between atoms: C_7  and  C_8
REMARK    7  A    between atoms: C_12  and  C_13
REMARK                            x       y       z     vdW  Elec       q    Type
REMARK                         _______ _______ _______ _____ _____    ______ ____
ROOT
ATOM      1  C   UNL     1      -8.961   6.665 131.076  0.00  0.00    +0.000 A 
ATOM      2  C   UNL     1      -7.634   6.544 131.523  0.00  0.00    +0.000 A 
ATOM      3  C   UNL     1      -6.437   7.069 130.781  0.00  0.00    +0.000 C 
ATOM      4  C   UNL     1      -7.384   5.927 132.761  0.00  0.00    +0.000 A 
ATOM      5  C   UNL     1      -8.431   5.494 133.572  0.00  0.00    +0.000 A 
ATOM      6  C   UNL     1      -9.743   5.675 133.157  0.00  0.00    +0.000 A 
ATOM      7  C   UNL     1     -10.027   6.265 131.914  0.00  0.00    +0.000 A 
ATOM      8  C   UNL     1     -11.467   6.467 131.526  0.00  0.00    +0.000 C 
ENDROOT
BRANCH   1   9
ATOM      9  O   UNL     1      -9.284   7.287 129.894  0.00  0.00    +0.000 OA
BRANCH   9  10
ATOM     10  C   UNL     1      -9.595   6.384 128.821  0.00  0.00    +0.000 C 
BRANCH  10  12
ATOM     11  C   UNL     1     -10.645   8.555 128.086  0.00  0.00    +0.000 C 
ATOM     12  C   UNL     1     -10.641   7.037 127.892  0.00  0.00    +0.000 C 
BRANCH  12  13
ATOM     13  N   UNL     1     -10.376   6.717 126.484  0.00  0.00    +0.000 NA
ATOM     14  H   UNL     1      -9.667   5.989 126.424  0.00  0.00    +0.000 HD
ATOM     15  H   UNL     1     -10.008   7.535 126.003  0.00  0.00    +0.000 HD
ENDBRANCH  12  13
ENDBRANCH  10  12
ENDBRANCH   9  10
ENDBRANCH   1   9
TORSDOF 4
ENDMDL
MODEL 8
REMARK VINA RESULT:      -4.9      6.175      7.399
REMARK  Name = Mexiletine
REMARK  7 active torsions:
REMARK  status: ('A' for Active; 'I' for Inactive)
REMARK    1  A    between atoms: C_1  and  C_2
REMARK    2  A    between atoms: C_2  and  N_3
REMARK    3  A    between atoms: C_2  and  C_4
REMARK    4  A    between atoms: C_4  and  O_5
REMARK    5  A    between atoms: O_5  and  C_6
REMARK    6  A    between atoms: C_7  and  C_8
REMARK    7  A    between atoms: C_12  and  C_13
REMARK                            x       y       z     vdW  Elec       q    Type
REMARK                         _______ _______ _______ _____ _____    ______ ____
ROOT
ATOM      1  C   UNL     1      -7.180  -2.663 125.163  0.00  0.00    +0.000 A 
ATOM      2  C   UNL     1      -7.091  -2.532 123.767  0.00  0.00    +0.000 A 
ATOM      3  C   UNL     1      -5.821  -2.233 123.021  0.00  0.00    +0.000 C 
ATOM      4  C   UNL     1      -8.245  -2.724 122.987  0.00  0.00    +0.000 A 
ATOM      5  C   UNL     1      -9.453  -3.100 123.573  0.00  0.00    +0.000 A 
ATOM      6  C   UNL     1      -9.520  -3.293 124.946  0.00  0.00    +0.000 A 
ATOM      7  C   UNL     1      -8.393  -3.085 125.756  0.00  0.00    +0.000 A 
ATOM      8  C   UNL     1      -8.512  -3.339 127.235  0.00  0.00    +0.000 C 
ENDROOT
BRANCH   1   9
ATOM      9  O   UNL     1      -6.088  -2.525 125.985  0.00  0.00    +0.000 OA
BRANCH   9  10
ATOM     10  C   UNL     1      -5.846  -1.177 126.419  0.00  0.00    +0.000 C 
BRANCH  10  12
ATOM     11  C   UNL     1      -4.973  -2.489 128.387  0.00  0.00    +0.000 C 
ATOM     12  C   UNL     1      -5.606  -1.167 127.944  0.00  0.00    +0.000 C 
BRANCH  12  13
ATOM     13  N   UNL     1      -4.744  -0.047 128.339  0.00  0.00    +0.000 NA
ATOM     14  H   UNL     1      -5.075   0.349 129.217  0.00  0.00    +0.000 HD
ATOM     15  H   UNL     1      -4.788   0.692 127.641  0.00  0.00    +0.000 HD
ENDBRANCH  12  13
ENDBRANCH  10  12
ENDBRANCH   9  10
ENDBRANCH   1   9
TORSDOF 4
ENDMDL
MODEL 9
REMARK VINA RESULT:      -4.9      4.726      7.765
REMARK  Name = Mexiletine
REMARK  7 active torsions:
REMARK  status: ('A' for Active; 'I' for Inactive)
REMARK    1  A    between atoms: C_1  and  C_2
REMARK    2  A    between atoms: C_2  and  N_3
REMARK    3  A    between atoms: C_2  and  C_4
REMARK    4  A    between atoms: C_4  and  O_5
REMARK    5  A    between atoms: O_5  and  C_6
REMARK    6  A    between atoms: C_7  and  C_8
REMARK    7  A    between atoms: C_12  and  C_13
REMARK                            x       y       z     vdW  Elec       q    Type
REMARK                         _______ _______ _______ _____ _____    ______ ____
ROOT
ATOM      1  C   UNL     1      -7.191  -2.431 126.380  0.00  0.00    +0.000 A 
ATOM      2  C   UNL     1      -8.397  -3.121 126.163  0.00  0.00    +0.000 A 
ATOM      3  C   UNL     1      -9.002  -3.370 124.811  0.00  0.00    +0.000 C 
ATOM      4  C   UNL     1      -9.085  -3.656 127.266  0.00  0.00    +0.000 A 
ATOM      5  C   UNL     1      -8.559  -3.566 128.554  0.00  0.00    +0.000 A 
ATOM      6  C   UNL     1      -7.335  -2.942 128.754  0.00  0.00    +0.000 A 
ATOM      7  C   UNL     1      -6.634  -2.374 127.678  0.00  0.00    +0.000 A 
ATOM      8  C   UNL     1      -5.297  -1.737 127.946  0.00  0.00    +0.000 C 
ENDROOT
BRANCH   1   9
ATOM      9  O   UNL     1      -6.447  -1.913 125.348  0.00  0.00    +0.000 OA
BRANCH   9  10
ATOM     10  C   UNL     1      -6.737  -0.538 125.048  0.00  0.00    +0.000 C 
BRANCH  10  12
ATOM     11  C   UNL     1      -6.460  -1.618 122.786  0.00  0.00    +0.000 C 
ATOM     12  C   UNL     1      -6.987  -0.389 123.531  0.00  0.00    +0.000 C 
BRANCH  12  13
ATOM     13  N   UNL     1      -8.415  -0.207 123.243  0.00  0.00    +0.000 NA
ATOM     14  H   UNL     1      -8.591   0.757 122.967  0.00  0.00    +0.000 HD
ATOM     15  H   UNL     1      -8.966  -0.387 124.079  0.00  0.00    +0.000 HD
ENDBRANCH  12  13
ENDBRANCH  10  12
ENDBRANCH   9  10
ENDBRANCH   1   9
TORSDOF 4
ENDMDL
