MODEL 1
REMARK VINA RESULT:      -9.0      0.000      0.000
REMARK  Name = Mezlocillin
REMARK  10 active torsions:
REMARK  status: ('A' for Active; 'I' for Inactive)
REMARK    1  A    between atoms: C_4  and  C_5
REMARK    2  A    between atoms: C_4  and  C_6
REMARK    3  A    between atoms: CA_7  and  C_35
REMARK    4  A    between atoms: CA_11  and  N_12
REMARK    5  A    between atoms: C_13  and  CA_15
REMARK    6  A    between atoms: CA_15  and  N_16
REMARK    7  A    between atoms: CA_15  and  C_29
REMARK    8  A    between atoms: N_22  and  S_25
REMARK    9  A    between atoms: S_25  and  C_26
REMARK   10  A    between atoms: C_35  and  O_36
REMARK                            x       y       z     vdW  Elec       q    Type
REMARK                         _______ _______ _______ _____ _____    ______ ____
ROOT
ATOM      1  CA  UNL     1      -5.165   3.336 129.945  0.00  0.00    +0.000 C 
ENDROOT
BRANCH   1   2
ATOM      2  N   UNL     1      -6.327   4.239 129.964  0.00  0.00    +0.000 N 
ATOM      3  C   UNL     1      -7.498   3.935 130.627  0.00  0.00    +0.000 C 
ATOM      4  O   UNL     1      -7.605   2.929 131.327  0.00  0.00    +0.000 OA
ATOM      5  N   UNL     1      -8.467   4.924 130.565  0.00  0.00    +0.000 N 
ATOM      6  C   UNL     1      -9.355   5.248 131.676  0.00  0.00    +0.000 C 
ATOM      7  C   UNL     1     -10.004   6.571 131.226  0.00  0.00    +0.000 C 
ATOM      8  N   UNL     1     -10.078   6.317 129.775  0.00  0.00    +0.000 N 
ATOM      9  C   UNL     1      -9.040   5.421 129.387  0.00  0.00    +0.000 C 
ATOM     10  O   UNL     1      -8.681   5.187 128.256  0.00  0.00    +0.000 OA
ATOM     11  H   UNL     1      -6.330   5.000 129.296  0.00  0.00    +0.000 HD
BRANCH   8  12
ATOM     12  S   UNL     1     -10.996   7.248 128.740  0.00  0.00    +0.000 S 
ATOM     13  C   UNL     1     -12.134   8.113 129.816  0.00  0.00    +0.000 C 
ATOM     14  O   UNL     1     -10.132   8.250 128.151  0.00  0.00    +0.000 OA
ATOM     15  O   UNL     1     -11.818   6.400 127.908  0.00  0.00    +0.000 OA
ENDBRANCH   8  12
ENDBRANCH   1   2
BRANCH   1  16
ATOM     16  C   UNL     1      -4.053   3.877 130.859  0.00  0.00    +0.000 A 
ATOM     17  C   UNL     1      -3.368   5.059 130.532  0.00  0.00    +0.000 A 
ATOM     18  C   UNL     1      -2.249   5.465 131.274  0.00  0.00    +0.000 A 
ATOM     19  C   UNL     1      -1.858   4.758 132.410  0.00  0.00    +0.000 A 
ATOM     20  C   UNL     1      -2.552   3.616 132.779  0.00  0.00    +0.000 A 
ATOM     21  C   UNL     1      -3.624   3.177 132.003  0.00  0.00    +0.000 A 
ENDBRANCH   1  16
BRANCH   1  23
ATOM     22  N   UNL     1      -5.434   3.732 127.492  0.00  0.00    +0.000 N 
ATOM     23  C   UNL     1      -4.663   3.162 128.484  0.00  0.00    +0.000 C 
ATOM     24  O   UNL     1      -3.659   2.512 128.189  0.00  0.00    +0.000 OA
ATOM     25  H   UNL     1      -6.176   4.380 127.737  0.00  0.00    +0.000 HD
BRANCH  22  35
ATOM     26  C   UNL     1      -5.604   2.363 125.307  0.00  0.00    +0.000 C 
ATOM     27  S   UNL     1      -7.116   1.572 125.963  0.00  0.00    +0.000 S 
ATOM     28  C   UNL     1      -7.949   1.731 124.295  0.00  0.00    +0.000 C 
ATOM     29  C   UNL     1      -9.456   1.692 124.556  0.00  0.00    +0.000 C 
ATOM     30  C   UNL     1      -7.457   0.515 123.487  0.00  0.00    +0.000 C 
ATOM     31  CA  UNL     1      -7.478   3.109 123.775  0.00  0.00    +0.000 C 
ATOM     32  N   UNL     1      -6.098   3.287 124.271  0.00  0.00    +0.000 N 
ATOM     33  C   UNL     1      -5.750   4.408 124.990  0.00  0.00    +0.000 C 
ATOM     34  O   UNL     1      -6.087   5.562 124.854  0.00  0.00    +0.000 OA
ATOM     35  CA  UNL     1      -5.018   3.556 126.069  0.00  0.00    +0.000 C 
BRANCH  31  36
ATOM     36  C   UNL     1      -7.567   3.420 122.261  0.00  0.00    +0.000 C 
ATOM     37  OXT UNL     1      -6.591   3.388 121.520  0.00  0.00    +0.000 OA
BRANCH  36  38
ATOM     38  O   UNL     1      -8.755   3.769 121.728  0.00  0.00    +0.000 OA
ATOM     39  H   UNL     1      -8.909   3.717 120.773  0.00  0.00    +0.000 HD
ENDBRANCH  36  38
ENDBRANCH  31  36
ENDBRANCH  22  35
ENDBRANCH   1  23
TORSDOF 7
ENDMDL
MODEL 2
REMARK VINA RESULT:      -8.5      2.698      3.431
REMARK  Name = Mezlocillin
REMARK  10 active torsions:
REMARK  status: ('A' for Active; 'I' for Inactive)
REMARK    1  A    between atoms: C_4  and  C_5
REMARK    2  A    between atoms: C_4  and  C_6
REMARK    3  A    between atoms: CA_7  and  C_35
REMARK    4  A    between atoms: CA_11  and  N_12
REMARK    5  A    between atoms: C_13  and  CA_15
REMARK    6  A    between atoms: CA_15  and  N_16
REMARK    7  A    between atoms: CA_15  and  C_29
REMARK    8  A    between atoms: N_22  and  S_25
REMARK    9  A    between atoms: S_25  and  C_26
REMARK   10  A    between atoms: C_35  and  O_36
REMARK                            x       y       z     vdW  Elec       q    Type
REMARK                         _______ _______ _______ _____ _____    ______ ____
ROOT
ATOM      1  CA  UNL     1      -6.183   3.677 128.440  0.00  0.00    +0.000 C 
ENDROOT
BRANCH   1   2
ATOM      2  N   UNL     1      -7.284   4.546 128.887  0.00  0.00    +0.000 N 
ATOM      3  C   UNL     1      -8.427   4.055 129.485  0.00  0.00    +0.000 C 
ATOM      4  O   UNL     1      -8.551   2.864 129.768  0.00  0.00    +0.000 OA
ATOM      5  N   UNL     1      -9.335   5.027 129.873  0.00  0.00    +0.000 N 
ATOM      6  C   UNL     1     -10.129   4.942 131.094  0.00  0.00    +0.000 C 
ATOM      7  C   UNL     1     -10.722   6.357 131.221  0.00  0.00    +0.000 C 
ATOM      8  N   UNL     1     -10.905   6.667 129.790  0.00  0.00    +0.000 N 
ATOM      9  C   UNL     1      -9.951   5.947 129.014  0.00  0.00    +0.000 C 
ATOM     10  O   UNL     1      -9.680   6.141 127.851  0.00  0.00    +0.000 OA
ATOM     11  H   UNL     1      -7.283   5.501 128.551  0.00  0.00    +0.000 HD
BRANCH   8  12
ATOM     12  S   UNL     1     -11.828   7.947 129.252  0.00  0.00    +0.000 S 
ATOM     13  C   UNL     1     -13.034   7.195 128.165  0.00  0.00    +0.000 C 
ATOM     14  O   UNL     1     -12.559   8.480 130.383  0.00  0.00    +0.000 OA
ATOM     15  O   UNL     1     -11.034   8.812 128.411  0.00  0.00    +0.000 OA
ENDBRANCH   8  12
ENDBRANCH   1   2
BRANCH   1  16
ATOM     16  C   UNL     1      -4.835   4.400 128.595  0.00  0.00    +0.000 A 
ATOM     17  C   UNL     1      -4.728   5.555 129.388  0.00  0.00    +0.000 A 
ATOM     18  C   UNL     1      -3.543   6.306 129.400  0.00  0.00    +0.000 A 
ATOM     19  C   UNL     1      -2.418   5.865 128.706  0.00  0.00    +0.000 A 
ATOM     20  C   UNL     1      -2.488   4.701 127.957  0.00  0.00    +0.000 A 
ATOM     21  C   UNL     1      -3.685   3.990 127.893  0.00  0.00    +0.000 A 
ENDBRANCH   1  16
BRANCH   1  23
ATOM     22  N   UNL     1      -6.492   1.885 126.726  0.00  0.00    +0.000 N 
ATOM     23  C   UNL     1      -6.427   3.242 126.968  0.00  0.00    +0.000 C 
ATOM     24  O   UNL     1      -6.514   4.041 126.034  0.00  0.00    +0.000 OA
ATOM     25  H   UNL     1      -6.561   1.235 127.502  0.00  0.00    +0.000 HD
BRANCH  22  35
ATOM     26  C   UNL     1      -6.402  -0.063 125.030  0.00  0.00    +0.000 C 
ATOM     27  S   UNL     1      -6.379  -1.235 126.433  0.00  0.00    +0.000 S 
ATOM     28  C   UNL     1      -7.590  -2.352 125.548  0.00  0.00    +0.000 C 
ATOM     29  C   UNL     1      -8.278  -3.191 126.627  0.00  0.00    +0.000 C 
ATOM     30  C   UNL     1      -6.726  -3.204 124.598  0.00  0.00    +0.000 C 
ATOM     31  CA  UNL     1      -8.565  -1.370 124.857  0.00  0.00    +0.000 C 
ATOM     32  N   UNL     1      -7.758  -0.194 124.470  0.00  0.00    +0.000 N 
ATOM     33  C   UNL     1      -8.131   1.072 124.863  0.00  0.00    +0.000 C 
ATOM     34  O   UNL     1      -9.228   1.574 124.950  0.00  0.00    +0.000 OA
ATOM     35  CA  UNL     1      -6.682   1.416 125.321  0.00  0.00    +0.000 C 
BRANCH  31  36
ATOM     36  C   UNL     1      -9.428  -1.864 123.670  0.00  0.00    +0.000 C 
ATOM     37  OXT UNL     1      -9.664  -1.170 122.688  0.00  0.00    +0.000 OA
BRANCH  36  38
ATOM     38  O   UNL     1      -9.972  -3.097 123.720  0.00  0.00    +0.000 OA
ATOM     39  H   UNL     1      -9.443  -3.884 123.521  0.00  0.00    +0.000 HD
ENDBRANCH  36  38
ENDBRANCH  31  36
ENDBRANCH  22  35
ENDBRANCH   1  23
TORSDOF 7
ENDMDL
MODEL 3
REMARK VINA RESULT:      -8.2      3.369      7.948
REMARK  Name = Mezlocillin
REMARK  10 active torsions:
REMARK  status: ('A' for Active; 'I' for Inactive)
REMARK    1  A    between atoms: C_4  and  C_5
REMARK    2  A    between atoms: C_4  and  C_6
REMARK    3  A    between atoms: CA_7  and  C_35
REMARK    4  A    between atoms: CA_11  and  N_12
REMARK    5  A    between atoms: C_13  and  CA_15
REMARK    6  A    between atoms: CA_15  and  N_16
REMARK    7  A    between atoms: CA_15  and  C_29
REMARK    8  A    between atoms: N_22  and  S_25
REMARK    9  A    between atoms: S_25  and  C_26
REMARK   10  A    between atoms: C_35  and  O_36
REMARK                            x       y       z     vdW  Elec       q    Type
REMARK                         _______ _______ _______ _____ _____    ______ ____
ROOT
ATOM      1  CA  UNL     1      -6.144   3.682 125.814  0.00  0.00    +0.000 C 
ENDROOT
BRANCH   1   2
ATOM      2  N   UNL     1      -6.430   2.253 125.603  0.00  0.00    +0.000 N 
ATOM      3  C   UNL     1      -6.909   1.757 124.408  0.00  0.00    +0.000 C 
ATOM      4  O   UNL     1      -7.033   2.469 123.413  0.00  0.00    +0.000 OA
ATOM      5  N   UNL     1      -7.082   0.382 124.386  0.00  0.00    +0.000 N 
ATOM      6  C   UNL     1      -6.807  -0.442 123.214  0.00  0.00    +0.000 C 
ATOM      7  C   UNL     1      -6.855  -1.874 123.779  0.00  0.00    +0.000 C 
ATOM      8  N   UNL     1      -7.909  -1.693 124.794  0.00  0.00    +0.000 N 
ATOM      9  C   UNL     1      -7.923  -0.341 125.242  0.00  0.00    +0.000 C 
ATOM     10  O   UNL     1      -8.500   0.086 126.216  0.00  0.00    +0.000 OA
ATOM     11  H   UNL     1      -6.474   1.666 126.427  0.00  0.00    +0.000 HD
BRANCH   8  12
ATOM     12  S   UNL     1      -8.672  -2.973 125.544  0.00  0.00    +0.000 S 
ATOM     13  C   UNL     1      -8.005  -2.975 127.204  0.00  0.00    +0.000 C 
ATOM     14  O   UNL     1     -10.080  -2.651 125.658  0.00  0.00    +0.000 OA
ATOM     15  O   UNL     1      -8.245  -4.220 124.953  0.00  0.00    +0.000 OA
ENDBRANCH   8  12
ENDBRANCH   1   2
BRANCH   1  16
ATOM     16  C   UNL     1      -4.784   3.857 126.510  0.00  0.00    +0.000 A 
ATOM     17  C   UNL     1      -4.451   5.068 127.139  0.00  0.00    +0.000 A 
ATOM     18  C   UNL     1      -3.155   5.286 127.630  0.00  0.00    +0.000 A 
ATOM     19  C   UNL     1      -2.204   4.268 127.595  0.00  0.00    +0.000 A 
ATOM     20  C   UNL     1      -2.528   3.047 127.024  0.00  0.00    +0.000 A 
ATOM     21  C   UNL     1      -3.796   2.854 126.477  0.00  0.00    +0.000 A 
ENDBRANCH   1  16
BRANCH   1  23
ATOM     22  N   UNL     1      -7.424   3.908 127.949  0.00  0.00    +0.000 N 
ATOM     23  C   UNL     1      -7.291   4.327 126.641  0.00  0.00    +0.000 C 
ATOM     24  O   UNL     1      -8.088   5.139 126.168  0.00  0.00    +0.000 OA
ATOM     25  H   UNL     1      -6.692   3.351 128.379  0.00  0.00    +0.000 HD
BRANCH  22  35
ATOM     26  C   UNL     1      -9.138   3.561 129.852  0.00  0.00    +0.000 C 
ATOM     27  S   UNL     1      -8.161   2.123 130.419  0.00  0.00    +0.000 S 
ATOM     28  C   UNL     1      -8.373   2.654 132.200  0.00  0.00    +0.000 C 
ATOM     29  C   UNL     1      -7.223   2.019 132.984  0.00  0.00    +0.000 C 
ATOM     30  C   UNL     1      -9.749   2.103 132.619  0.00  0.00    +0.000 C 
ATOM     31  CA  UNL     1      -8.264   4.196 132.143  0.00  0.00    +0.000 C 
ATOM     32  N   UNL     1      -8.865   4.603 130.857  0.00  0.00    +0.000 N 
ATOM     33  C   UNL     1      -8.160   5.387 129.971  0.00  0.00    +0.000 C 
ATOM     34  O   UNL     1      -7.412   6.316 130.170  0.00  0.00    +0.000 OA
ATOM     35  CA  UNL     1      -8.538   4.467 128.771  0.00  0.00    +0.000 C 
BRANCH  31  36
ATOM     36  C   UNL     1      -8.830   5.041 133.311  0.00  0.00    +0.000 C 
ATOM     37  OXT UNL     1      -9.285   6.168 133.153  0.00  0.00    +0.000 OA
BRANCH  36  38
ATOM     38  O   UNL     1      -8.800   4.540 134.562  0.00  0.00    +0.000 OA
ATOM     39  H   UNL     1      -8.047   4.016 134.873  0.00  0.00    +0.000 HD
ENDBRANCH  36  38
ENDBRANCH  31  36
ENDBRANCH  22  35
ENDBRANCH   1  23
TORSDOF 7
ENDMDL
MODEL 4
REMARK VINA RESULT:      -8.1      4.788      8.754
REMARK  Name = Mezlocillin
REMARK  10 active torsions:
REMARK  status: ('A' for Active; 'I' for Inactive)
REMARK    1  A    between atoms: C_4  and  C_5
REMARK    2  A    between atoms: C_4  and  C_6
REMARK    3  A    between atoms: CA_7  and  C_35
REMARK    4  A    between atoms: CA_11  and  N_12
REMARK    5  A    between atoms: C_13  and  CA_15
REMARK    6  A    between atoms: CA_15  and  N_16
REMARK    7  A    between atoms: CA_15  and  C_29
REMARK    8  A    between atoms: N_22  and  S_25
REMARK    9  A    between atoms: S_25  and  C_26
REMARK   10  A    between atoms: C_35  and  O_36
REMARK                            x       y       z     vdW  Elec       q    Type
REMARK                         _______ _______ _______ _____ _____    ______ ____
ROOT
ATOM      1  CA  UNL     1      -6.386  -1.386 130.168  0.00  0.00    +0.000 C 
ENDROOT
BRANCH   1   2
ATOM      2  N   UNL     1      -6.584  -1.585 128.723  0.00  0.00    +0.000 N 
ATOM      3  C   UNL     1      -6.036  -0.747 127.773  0.00  0.00    +0.000 C 
ATOM      4  O   UNL     1      -5.266   0.162 128.076  0.00  0.00    +0.000 OA
ATOM      5  N   UNL     1      -6.300  -1.116 126.463  0.00  0.00    +0.000 N 
ATOM      6  C   UNL     1      -5.334  -0.973 125.380  0.00  0.00    +0.000 C 
ATOM      7  C   UNL     1      -5.975  -1.782 124.236  0.00  0.00    +0.000 C 
ATOM      8  N   UNL     1      -7.395  -1.496 124.510  0.00  0.00    +0.000 N 
ATOM      9  C   UNL     1      -7.577  -1.234 125.898  0.00  0.00    +0.000 C 
ATOM     10  O   UNL     1      -8.633  -1.188 126.487  0.00  0.00    +0.000 OA
ATOM     11  H   UNL     1      -7.314  -2.228 128.443  0.00  0.00    +0.000 HD
BRANCH   8  12
ATOM     12  S   UNL     1      -8.611  -1.819 123.414  0.00  0.00    +0.000 S 
ATOM     13  C   UNL     1      -9.346  -3.339 124.006  0.00  0.00    +0.000 C 
ATOM     14  O   UNL     1      -9.619  -0.787 123.546  0.00  0.00    +0.000 OA
ATOM     15  O   UNL     1      -8.044  -2.138 122.125  0.00  0.00    +0.000 OA
ENDBRANCH   8  12
ENDBRANCH   1   2
BRANCH   1  16
ATOM     16  C   UNL     1      -6.052  -2.723 130.850  0.00  0.00    +0.000 A 
ATOM     17  C   UNL     1      -5.645  -2.760 132.194  0.00  0.00    +0.000 A 
ATOM     18  C   UNL     1      -5.185  -3.955 132.768  0.00  0.00    +0.000 A 
ATOM     19  C   UNL     1      -5.220  -5.147 132.048  0.00  0.00    +0.000 A 
ATOM     20  C   UNL     1      -5.666  -5.141 130.735  0.00  0.00    +0.000 A 
ATOM     21  C   UNL     1      -6.062  -3.942 130.144  0.00  0.00    +0.000 A 
ENDBRANCH   1  16
BRANCH   1  23
ATOM     22  N   UNL     1      -7.798   0.626 130.618  0.00  0.00    +0.000 N 
ATOM     23  C   UNL     1      -7.656  -0.736 130.785  0.00  0.00    +0.000 C 
ATOM     24  O   UNL     1      -8.488  -1.369 131.437  0.00  0.00    +0.000 OA
ATOM     25  H   UNL     1      -7.195   1.122 129.970  0.00  0.00    +0.000 HD
BRANCH  22  35
ATOM     26  C   UNL     1      -8.746   2.102 132.517  0.00  0.00    +0.000 C 
ATOM     27  S   UNL     1      -7.038   2.611 132.924  0.00  0.00    +0.000 S 
ATOM     28  C   UNL     1      -7.597   4.382 133.148  0.00  0.00    +0.000 C 
ATOM     29  C   UNL     1      -6.358   5.258 132.949  0.00  0.00    +0.000 C 
ATOM     30  C   UNL     1      -8.142   4.448 134.587  0.00  0.00    +0.000 C 
ATOM     31  CA  UNL     1      -8.645   4.585 132.030  0.00  0.00    +0.000 C 
ATOM     32  N   UNL     1      -9.334   3.288 131.872  0.00  0.00    +0.000 N 
ATOM     33  C   UNL     1      -9.410   2.680 130.638  0.00  0.00    +0.000 C 
ATOM     34  O   UNL     1      -9.579   3.156 129.539  0.00  0.00    +0.000 OA
ATOM     35  CA  UNL     1      -8.980   1.304 131.229  0.00  0.00    +0.000 C 
BRANCH  31  36
ATOM     36  C   UNL     1      -9.666   5.744 132.146  0.00  0.00    +0.000 C 
ATOM     37  OXT UNL     1      -9.453   6.862 131.693  0.00  0.00    +0.000 OA
BRANCH  36  38
ATOM     38  O   UNL     1     -10.829   5.535 132.795  0.00  0.00    +0.000 OA
ATOM     39  H   UNL     1     -10.841   5.175 133.695  0.00  0.00    +0.000 HD
ENDBRANCH  36  38
ENDBRANCH  31  36
ENDBRANCH  22  35
ENDBRANCH   1  23
TORSDOF 7
ENDMDL
MODEL 5
REMARK VINA RESULT:      -7.8      2.000      2.354
REMARK  Name = Mezlocillin
REMARK  10 active torsions:
REMARK  status: ('A' for Active; 'I' for Inactive)
REMARK    1  A    between atoms: C_4  and  C_5
REMARK    2  A    between atoms: C_4  and  C_6
REMARK    3  A    between atoms: CA_7  and  C_35
REMARK    4  A    between atoms: CA_11  and  N_12
REMARK    5  A    between atoms: C_13  and  CA_15
REMARK    6  A    between atoms: CA_15  and  N_16
REMARK    7  A    between atoms: CA_15  and  C_29
REMARK    8  A    between atoms: N_22  and  S_25
REMARK    9  A    between atoms: S_25  and  C_26
REMARK   10  A    between atoms: C_35  and  O_36
REMARK                            x       y       z     vdW  Elec       q    Type
REMARK                         _______ _______ _______ _____ _____    ______ ____
ROOT
ATOM      1  CA  UNL     1      -5.394   2.902 130.199  0.00  0.00    +0.000 C 
ENDROOT
BRANCH   1   2
ATOM      2  N   UNL     1      -6.451   3.917 130.059  0.00  0.00    +0.000 N 
ATOM      3  C   UNL     1      -7.697   3.782 130.637  0.00  0.00    +0.000 C 
ATOM      4  O   UNL     1      -7.966   2.845 131.387  0.00  0.00    +0.000 OA
ATOM      5  N   UNL     1      -8.546   4.857 130.428  0.00  0.00    +0.000 N 
ATOM      6  C   UNL     1      -9.480   5.349 131.434  0.00  0.00    +0.000 C 
ATOM      7  C   UNL     1      -9.946   6.694 130.847  0.00  0.00    +0.000 C 
ATOM      8  N   UNL     1      -9.931   6.345 129.414  0.00  0.00    +0.000 N 
ATOM      9  C   UNL     1      -8.968   5.323 129.175  0.00  0.00    +0.000 C 
ATOM     10  O   UNL     1      -8.546   4.972 128.097  0.00  0.00    +0.000 OA
ATOM     11  H   UNL     1      -6.319   4.624 129.347  0.00  0.00    +0.000 HD
BRANCH   8  12
ATOM     12  S   UNL     1     -10.659   7.286 128.245  0.00  0.00    +0.000 S 
ATOM     13  C   UNL     1     -12.368   7.391 128.765  0.00  0.00    +0.000 C 
ATOM     14  O   UNL     1     -10.110   8.623 128.340  0.00  0.00    +0.000 OA
ATOM     15  O   UNL     1     -10.679   6.583 126.984  0.00  0.00    +0.000 OA
ENDBRANCH   8  12
ENDBRANCH   1   2
BRANCH   1  16
ATOM     16  C   UNL     1      -4.253   3.436 131.081  0.00  0.00    +0.000 A 
ATOM     17  C   UNL     1      -3.651   4.674 130.801  0.00  0.00    +0.000 A 
ATOM     18  C   UNL     1      -2.507   5.086 131.501  0.00  0.00    +0.000 A 
ATOM     19  C   UNL     1      -2.008   4.323 132.556  0.00  0.00    +0.000 A 
ATOM     20  C   UNL     1      -2.619   3.121 132.880  0.00  0.00    +0.000 A 
ATOM     21  C   UNL     1      -3.716   2.681 132.141  0.00  0.00    +0.000 A 
ENDBRANCH   1  16
BRANCH   1  23
ATOM     22  N   UNL     1      -5.834   2.247 127.828  0.00  0.00    +0.000 N 
ATOM     23  C   UNL     1      -4.878   2.490 128.792  0.00  0.00    +0.000 C 
ATOM     24  O   UNL     1      -3.684   2.331 128.532  0.00  0.00    +0.000 OA
ATOM     25  H   UNL     1      -6.800   2.509 127.996  0.00  0.00    +0.000 HD
BRANCH  22  35
ATOM     26  C   UNL     1      -5.267   0.298 126.228  0.00  0.00    +0.000 C 
ATOM     27  S   UNL     1      -6.139  -0.839 127.362  0.00  0.00    +0.000 S 
ATOM     28  C   UNL     1      -6.936  -1.711 125.912  0.00  0.00    +0.000 C 
ATOM     29  C   UNL     1      -8.198  -2.387 126.449  0.00  0.00    +0.000 C 
ATOM     30  C   UNL     1      -5.881  -2.725 125.429  0.00  0.00    +0.000 C 
ATOM     31  CA  UNL     1      -7.258  -0.567 124.922  0.00  0.00    +0.000 C 
ATOM     32  N   UNL     1      -6.174   0.426 125.074  0.00  0.00    +0.000 N 
ATOM     33  C   UNL     1      -6.463   1.745 125.344  0.00  0.00    +0.000 C 
ATOM     34  O   UNL     1      -7.354   2.451 124.933  0.00  0.00    +0.000 OA
ATOM     35  CA  UNL     1      -5.390   1.806 126.472  0.00  0.00    +0.000 C 
BRANCH  31  36
ATOM     36  C   UNL     1      -7.500  -0.899 123.429  0.00  0.00    +0.000 C 
ATOM     37  OXT UNL     1      -8.604  -1.195 122.987  0.00  0.00    +0.000 OA
BRANCH  36  38
ATOM     38  O   UNL     1      -6.457  -0.893 122.575  0.00  0.00    +0.000 OA
ATOM     39  H   UNL     1      -5.972  -1.707 122.374  0.00  0.00    +0.000 HD
ENDBRANCH  36  38
ENDBRANCH  31  36
ENDBRANCH  22  35
ENDBRANCH   1  23
TORSDOF 7
ENDMDL
MODEL 6
REMARK VINA RESULT:      -7.7      3.540      4.466
REMARK  Name = Mezlocillin
REMARK  10 active torsions:
REMARK  status: ('A' for Active; 'I' for Inactive)
REMARK    1  A    between atoms: C_4  and  C_5
REMARK    2  A    between atoms: C_4  and  C_6
REMARK    3  A    between atoms: CA_7  and  C_35
REMARK    4  A    between atoms: CA_11  and  N_12
REMARK    5  A    between atoms: C_13  and  CA_15
REMARK    6  A    between atoms: CA_15  and  N_16
REMARK    7  A    between atoms: CA_15  and  C_29
REMARK    8  A    between atoms: N_22  and  S_25
REMARK    9  A    between atoms: S_25  and  C_26
REMARK   10  A    between atoms: C_35  and  O_36
REMARK                            x       y       z     vdW  Elec       q    Type
REMARK                         _______ _______ _______ _____ _____    ______ ____
ROOT
ATOM      1  CA  UNL     1      -5.852   4.305 130.630  0.00  0.00    +0.000 C 
ENDROOT
BRANCH   1   2
ATOM      2  N   UNL     1      -7.124   5.036 130.515  0.00  0.00    +0.000 N 
ATOM      3  C   UNL     1      -8.316   4.541 131.002  0.00  0.00    +0.000 C 
ATOM      4  O   UNL     1      -8.369   3.497 131.651  0.00  0.00    +0.000 OA
ATOM      5  N   UNL     1      -9.401   5.388 130.836  0.00  0.00    +0.000 N 
ATOM      6  C   UNL     1     -10.465   5.531 131.822  0.00  0.00    +0.000 C 
ATOM      7  C   UNL     1     -11.233   6.771 131.326  0.00  0.00    +0.000 C 
ATOM      8  N   UNL     1     -11.077   6.579 129.872  0.00  0.00    +0.000 N 
ATOM      9  C   UNL     1      -9.879   5.856 129.605  0.00  0.00    +0.000 C 
ATOM     10  O   UNL     1      -9.344   5.728 128.527  0.00  0.00    +0.000 OA
ATOM     11  H   UNL     1      -7.148   5.821 129.875  0.00  0.00    +0.000 HD
BRANCH   8  12
ATOM     12  S   UNL     1     -11.976   7.422 128.747  0.00  0.00    +0.000 S 
ATOM     13  C   UNL     1     -10.814   8.581 128.034  0.00  0.00    +0.000 C 
ATOM     14  O   UNL     1     -12.351   6.502 127.693  0.00  0.00    +0.000 OA
ATOM     15  O   UNL     1     -12.971   8.230 129.413  0.00  0.00    +0.000 OA
ENDBRANCH   8  12
ENDBRANCH   1   2
BRANCH   1  16
ATOM     16  C   UNL     1      -4.674   5.291 130.706  0.00  0.00    +0.000 A 
ATOM     17  C   UNL     1      -3.355   4.824 130.828  0.00  0.00    +0.000 A 
ATOM     18  C   UNL     1      -2.299   5.718 131.062  0.00  0.00    +0.000 A 
ATOM     19  C   UNL     1      -2.525   7.093 131.076  0.00  0.00    +0.000 A 
ATOM     20  C   UNL     1      -3.813   7.577 130.908  0.00  0.00    +0.000 A 
ATOM     21  C   UNL     1      -4.872   6.685 130.741  0.00  0.00    +0.000 A 
ENDBRANCH   1  16
BRANCH   1  23
ATOM     22  N   UNL     1      -5.773   1.983 129.709  0.00  0.00    +0.000 N 
ATOM     23  C   UNL     1      -5.699   3.332 129.428  0.00  0.00    +0.000 C 
ATOM     24  O   UNL     1      -5.473   3.711 128.278  0.00  0.00    +0.000 OA
ATOM     25  H   UNL     1      -6.095   1.674 130.621  0.00  0.00    +0.000 HD
BRANCH  22  35
ATOM     26  C   UNL     1      -5.257  -0.441 128.976  0.00  0.00    +0.000 C 
ATOM     27  S   UNL     1      -5.618  -0.995 130.680  0.00  0.00    +0.000 S 
ATOM     28  C   UNL     1      -6.563  -2.469 130.024  0.00  0.00    +0.000 C 
ATOM     29  C   UNL     1      -7.520  -2.903 131.137  0.00  0.00    +0.000 C 
ATOM     30  C   UNL     1      -5.487  -3.530 129.724  0.00  0.00    +0.000 C 
ATOM     31  CA  UNL     1      -7.310  -1.912 128.790  0.00  0.00    +0.000 C 
ATOM     32  N   UNL     1      -6.418  -0.898 128.193  0.00  0.00    +0.000 N 
ATOM     33  C   UNL     1      -6.869   0.383 127.961  0.00  0.00    +0.000 C 
ATOM     34  O   UNL     1      -7.944   0.777 127.573  0.00  0.00    +0.000 OA
ATOM     35  CA  UNL     1      -5.589   1.007 128.595  0.00  0.00    +0.000 C 
BRANCH  31  36
ATOM     36  C   UNL     1      -7.834  -2.893 127.713  0.00  0.00    +0.000 C 
ATOM     37  OXT UNL     1      -8.619  -3.799 127.967  0.00  0.00    +0.000 OA
BRANCH  36  38
ATOM     38  O   UNL     1      -7.394  -2.774 126.444  0.00  0.00    +0.000 OA
ATOM     39  H   UNL     1      -6.463  -2.927 126.222  0.00  0.00    +0.000 HD
ENDBRANCH  36  38
ENDBRANCH  31  36
ENDBRANCH  22  35
ENDBRANCH   1  23
TORSDOF 7
ENDMDL
MODEL 7
REMARK VINA RESULT:      -7.6      4.591      8.231
REMARK  Name = Mezlocillin
REMARK  10 active torsions:
REMARK  status: ('A' for Active; 'I' for Inactive)
REMARK    1  A    between atoms: C_4  and  C_5
REMARK    2  A    between atoms: C_4  and  C_6
REMARK    3  A    between atoms: CA_7  and  C_35
REMARK    4  A    between atoms: CA_11  and  N_12
REMARK    5  A    between atoms: C_13  and  CA_15
REMARK    6  A    between atoms: CA_15  and  N_16
REMARK    7  A    between atoms: CA_15  and  C_29
REMARK    8  A    between atoms: N_22  and  S_25
REMARK    9  A    between atoms: S_25  and  C_26
REMARK   10  A    between atoms: C_35  and  O_36
REMARK                            x       y       z     vdW  Elec       q    Type
REMARK                         _______ _______ _______ _____ _____    ______ ____
ROOT
ATOM      1  CA  UNL     1      -6.383   2.820 128.065  0.00  0.00    +0.000 C 
ENDROOT
BRANCH   1   2
ATOM      2  N   UNL     1      -6.852   1.836 127.076  0.00  0.00    +0.000 N 
ATOM      3  C   UNL     1      -7.999   2.017 126.331  0.00  0.00    +0.000 C 
ATOM      4  O   UNL     1      -8.649   3.060 126.380  0.00  0.00    +0.000 OA
ATOM      5  N   UNL     1      -8.259   1.002 125.424  0.00  0.00    +0.000 N 
ATOM      6  C   UNL     1      -8.826   1.235 124.100  0.00  0.00    +0.000 C 
ATOM      7  C   UNL     1      -8.633  -0.122 123.397  0.00  0.00    +0.000 C 
ATOM      8  N   UNL     1      -8.828  -1.017 124.552  0.00  0.00    +0.000 N 
ATOM      9  C   UNL     1      -8.457  -0.346 125.752  0.00  0.00    +0.000 C 
ATOM     10  O   UNL     1      -8.281  -0.857 126.835  0.00  0.00    +0.000 OA
ATOM     11  H   UNL     1      -6.430   0.917 127.105  0.00  0.00    +0.000 HD
BRANCH   8  12
ATOM     12  S   UNL     1      -9.074  -2.660 124.393  0.00  0.00    +0.000 S 
ATOM     13  C   UNL     1      -7.451  -3.374 124.634  0.00  0.00    +0.000 C 
ATOM     14  O   UNL     1      -9.895  -3.100 125.502  0.00  0.00    +0.000 OA
ATOM     15  O   UNL     1      -9.438  -2.976 123.032  0.00  0.00    +0.000 OA
ENDBRANCH   8  12
ENDBRANCH   1   2
BRANCH   1  16
ATOM     16  C   UNL     1      -4.956   3.281 127.725  0.00  0.00    +0.000 A 
ATOM     17  C   UNL     1      -4.216   2.638 126.719  0.00  0.00    +0.000 A 
ATOM     18  C   UNL     1      -2.862   2.948 126.519  0.00  0.00    +0.000 A 
ATOM     19  C   UNL     1      -2.254   3.969 127.246  0.00  0.00    +0.000 A 
ATOM     20  C   UNL     1      -2.981   4.650 128.211  0.00  0.00    +0.000 A 
ATOM     21  C   UNL     1      -4.308   4.298 128.453  0.00  0.00    +0.000 A 
ENDBRANCH   1  16
BRANCH   1  23
ATOM     22  N   UNL     1      -6.335   0.831 129.577  0.00  0.00    +0.000 N 
ATOM     23  C   UNL     1      -6.455   2.203 129.490  0.00  0.00    +0.000 C 
ATOM     24  O   UNL     1      -6.657   2.872 130.505  0.00  0.00    +0.000 OA
ATOM     25  H   UNL     1      -6.032   0.297 128.769  0.00  0.00    +0.000 HD
BRANCH  22  35
ATOM     26  C   UNL     1      -6.493  -1.345 130.963  0.00  0.00    +0.000 C 
ATOM     27  S   UNL     1      -5.908  -2.274 129.501  0.00  0.00    +0.000 S 
ATOM     28  C   UNL     1      -4.784  -3.308 130.581  0.00  0.00    +0.000 C 
ATOM     29  C   UNL     1      -3.681  -3.850 129.669  0.00  0.00    +0.000 C 
ATOM     30  C   UNL     1      -5.686  -4.423 131.143  0.00  0.00    +0.000 C 
ATOM     31  CA  UNL     1      -4.243  -2.302 131.624  0.00  0.00    +0.000 C 
ATOM     32  N   UNL     1      -5.338  -1.344 131.878  0.00  0.00    +0.000 N 
ATOM     33  C   UNL     1      -5.129   0.011 131.743  0.00  0.00    +0.000 C 
ATOM     34  O   UNL     1      -4.170   0.688 132.033  0.00  0.00    +0.000 OA
ATOM     35  CA  UNL     1      -6.440   0.187 130.920  0.00  0.00    +0.000 C 
BRANCH  31  36
ATOM     36  C   UNL     1      -3.650  -2.831 132.953  0.00  0.00    +0.000 C 
ATOM     37  OXT UNL     1      -2.660  -3.552 132.996  0.00  0.00    +0.000 OA
BRANCH  36  38
ATOM     38  O   UNL     1      -4.255  -2.515 134.116  0.00  0.00    +0.000 OA
ATOM     39  H   UNL     1      -3.778  -2.043 134.814  0.00  0.00    +0.000 HD
ENDBRANCH  36  38
ENDBRANCH  31  36
ENDBRANCH  22  35
ENDBRANCH   1  23
TORSDOF 7
ENDMDL
MODEL 8
REMARK VINA RESULT:      -7.5      3.806      6.565
REMARK  Name = Mezlocillin
REMARK  10 active torsions:
REMARK  status: ('A' for Active; 'I' for Inactive)
REMARK    1  A    between atoms: C_4  and  C_5
REMARK    2  A    between atoms: C_4  and  C_6
REMARK    3  A    between atoms: CA_7  and  C_35
REMARK    4  A    between atoms: CA_11  and  N_12
REMARK    5  A    between atoms: C_13  and  CA_15
REMARK    6  A    between atoms: CA_15  and  N_16
REMARK    7  A    between atoms: CA_15  and  C_29
REMARK    8  A    between atoms: N_22  and  S_25
REMARK    9  A    between atoms: S_25  and  C_26
REMARK   10  A    between atoms: C_35  and  O_36
REMARK                            x       y       z     vdW  Elec       q    Type
REMARK                         _______ _______ _______ _____ _____    ______ ____
ROOT
ATOM      1  CA  UNL     1      -7.149   3.660 128.843  0.00  0.00    +0.000 C 
ENDROOT
BRANCH   1   2
ATOM      2  N   UNL     1      -6.861   2.334 129.412  0.00  0.00    +0.000 N 
ATOM      3  C   UNL     1      -5.698   1.642 129.141  0.00  0.00    +0.000 C 
ATOM      4  O   UNL     1      -4.787   2.138 128.480  0.00  0.00    +0.000 OA
ATOM      5  N   UNL     1      -5.587   0.427 129.799  0.00  0.00    +0.000 N 
ATOM      6  C   UNL     1      -4.327  -0.088 130.323  0.00  0.00    +0.000 C 
ATOM      7  C   UNL     1      -4.776  -1.271 131.201  0.00  0.00    +0.000 C 
ATOM      8  N   UNL     1      -5.926  -1.736 130.403  0.00  0.00    +0.000 N 
ATOM      9  C   UNL     1      -6.480  -0.645 129.673  0.00  0.00    +0.000 C 
ATOM     10  O   UNL     1      -7.549  -0.630 129.107  0.00  0.00    +0.000 OA
ATOM     11  H   UNL     1      -7.633   1.839 129.841  0.00  0.00    +0.000 HD
BRANCH   8  12
ATOM     12  S   UNL     1      -6.659  -3.214 130.648  0.00  0.00    +0.000 S 
ATOM     13  C   UNL     1      -5.330  -4.280 131.195  0.00  0.00    +0.000 C 
ATOM     14  O   UNL     1      -7.576  -3.082 131.761  0.00  0.00    +0.000 OA
ATOM     15  O   UNL     1      -7.102  -3.762 129.387  0.00  0.00    +0.000 OA
ENDBRANCH   8  12
ENDBRANCH   1   2
BRANCH   1  16
ATOM     16  C   UNL     1      -8.096   4.445 129.766  0.00  0.00    +0.000 A 
ATOM     17  C   UNL     1      -7.675   5.637 130.378  0.00  0.00    +0.000 A 
ATOM     18  C   UNL     1      -8.475   6.265 131.345  0.00  0.00    +0.000 A 
ATOM     19  C   UNL     1      -9.745   5.773 131.642  0.00  0.00    +0.000 A 
ATOM     20  C   UNL     1     -10.199   4.625 131.012  0.00  0.00    +0.000 A 
ATOM     21  C   UNL     1      -9.377   3.965 130.099  0.00  0.00    +0.000 A 
ENDBRANCH   1  16
BRANCH   1  23
ATOM     22  N   UNL     1      -7.653   2.247 126.844  0.00  0.00    +0.000 N 
ATOM     23  C   UNL     1      -7.753   3.497 127.420  0.00  0.00    +0.000 C 
ATOM     24  O   UNL     1      -8.257   4.428 126.790  0.00  0.00    +0.000 OA
ATOM     25  H   UNL     1      -7.368   1.452 127.408  0.00  0.00    +0.000 HD
BRANCH  22  35
ATOM     26  C   UNL     1      -7.412   1.088 124.547  0.00  0.00    +0.000 C 
ATOM     27  S   UNL     1      -6.275  -0.119 125.316  0.00  0.00    +0.000 S 
ATOM     28  C   UNL     1      -7.094  -1.518 124.383  0.00  0.00    +0.000 C 
ATOM     29  C   UNL     1      -6.802  -2.797 125.170  0.00  0.00    +0.000 C 
ATOM     30  C   UNL     1      -6.427  -1.515 122.994  0.00  0.00    +0.000 C 
ATOM     31  CA  UNL     1      -8.595  -1.147 124.400  0.00  0.00    +0.000 C 
ATOM     32  N   UNL     1      -8.655   0.327 124.329  0.00  0.00    +0.000 N 
ATOM     33  C   UNL     1      -9.357   1.046 125.271  0.00  0.00    +0.000 C 
ATOM     34  O   UNL     1     -10.410   0.807 125.814  0.00  0.00    +0.000 OA
ATOM     35  CA  UNL     1      -8.180   2.050 125.461  0.00  0.00    +0.000 C 
BRANCH  31  36
ATOM     36  C   UNL     1      -9.548  -1.791 123.363  0.00  0.00    +0.000 C 
ATOM     37  OXT UNL     1     -10.026  -1.164 122.424  0.00  0.00    +0.000 OA
BRANCH  36  38
ATOM     38  O   UNL     1      -9.897  -3.085 123.503  0.00  0.00    +0.000 OA
ATOM     39  H   UNL     1     -10.074  -3.641 122.729  0.00  0.00    +0.000 HD
ENDBRANCH  36  38
ENDBRANCH  31  36
ENDBRANCH  22  35
ENDBRANCH   1  23
TORSDOF 7
ENDMDL
MODEL 9
REMARK VINA RESULT:      -7.5      4.236      7.207
REMARK  Name = Mezlocillin
REMARK  10 active torsions:
REMARK  status: ('A' for Active; 'I' for Inactive)
REMARK    1  A    between atoms: C_4  and  C_5
REMARK    2  A    between atoms: C_4  and  C_6
REMARK    3  A    between atoms: CA_7  and  C_35
REMARK    4  A    between atoms: CA_11  and  N_12
REMARK    5  A    between atoms: C_13  and  CA_15
REMARK    6  A    between atoms: CA_15  and  N_16
REMARK    7  A    between atoms: CA_15  and  C_29
REMARK    8  A    between atoms: N_22  and  S_25
REMARK    9  A    between atoms: S_25  and  C_26
REMARK   10  A    between atoms: C_35  and  O_36
REMARK                            x       y       z     vdW  Elec       q    Type
REMARK                         _______ _______ _______ _____ _____    ______ ____
ROOT
ATOM      1  CA  UNL     1      -5.844  -0.143 132.139  0.00  0.00    +0.000 C 
ENDROOT
BRANCH   1   2
ATOM      2  N   UNL     1      -4.929   0.999 131.977  0.00  0.00    +0.000 N 
ATOM      3  C   UNL     1      -4.725   1.937 132.968  0.00  0.00    +0.000 C 
ATOM      4  O   UNL     1      -5.224   1.820 134.086  0.00  0.00    +0.000 OA
ATOM      5  N   UNL     1      -3.798   2.917 132.648  0.00  0.00    +0.000 N 
ATOM      6  C   UNL     1      -2.862   3.482 133.613  0.00  0.00    +0.000 C 
ATOM      7  C   UNL     1      -1.881   4.269 132.724  0.00  0.00    +0.000 C 
ATOM      8  N   UNL     1      -2.819   4.724 131.681  0.00  0.00    +0.000 N 
ATOM      9  C   UNL     1      -3.899   3.802 131.566  0.00  0.00    +0.000 C 
ATOM     10  O   UNL     1      -4.709   3.754 130.669  0.00  0.00    +0.000 OA
ATOM     11  H   UNL     1      -4.612   1.205 131.038  0.00  0.00    +0.000 HD
BRANCH   8  12
ATOM     12  S   UNL     1      -2.437   5.917 130.579  0.00  0.00    +0.000 S 
ATOM     13  C   UNL     1      -3.735   7.133 130.778  0.00  0.00    +0.000 C 
ATOM     14  O   UNL     1      -1.205   6.545 131.007  0.00  0.00    +0.000 OA
ATOM     15  O   UNL     1      -2.581   5.412 129.233  0.00  0.00    +0.000 OA
ENDBRANCH   8  12
ENDBRANCH   1   2
BRANCH   1  16
ATOM     16  C   UNL     1      -5.463  -1.275 131.171  0.00  0.00    +0.000 A 
ATOM     17  C   UNL     1      -6.303  -2.388 131.003  0.00  0.00    +0.000 A 
ATOM     18  C   UNL     1      -5.882  -3.494 130.249  0.00  0.00    +0.000 A 
ATOM     19  C   UNL     1      -4.666  -3.465 129.568  0.00  0.00    +0.000 A 
ATOM     20  C   UNL     1      -3.844  -2.355 129.680  0.00  0.00    +0.000 A 
ATOM     21  C   UNL     1      -4.234  -1.283 130.483  0.00  0.00    +0.000 A 
ENDBRANCH   1  16
BRANCH   1  23
ATOM     22  N   UNL     1      -7.505   1.310 130.966  0.00  0.00    +0.000 N 
ATOM     23  C   UNL     1      -7.309   0.326 131.913  0.00  0.00    +0.000 C 
ATOM     24  O   UNL     1      -8.262  -0.103 132.565  0.00  0.00    +0.000 OA
ATOM     25  H   UNL     1      -6.751   1.563 130.335  0.00  0.00    +0.000 HD
BRANCH  22  35
ATOM     26  C   UNL     1      -9.316   3.063 131.539  0.00  0.00    +0.000 C 
ATOM     27  S   UNL     1      -8.013   4.115 132.271  0.00  0.00    +0.000 S 
ATOM     28  C   UNL     1      -8.763   5.634 131.479  0.00  0.00    +0.000 C 
ATOM     29  C   UNL     1      -7.645   6.674 131.383  0.00  0.00    +0.000 C 
ATOM     30  C   UNL     1      -9.891   6.066 132.436  0.00  0.00    +0.000 C 
ATOM     31  CA  UNL     1      -9.225   5.138 130.089  0.00  0.00    +0.000 C 
ATOM     32  N   UNL     1      -9.660   3.738 130.275  0.00  0.00    +0.000 N 
ATOM     33  C   UNL     1      -9.132   2.731 129.499  0.00  0.00    +0.000 C 
ATOM     34  O   UNL     1      -8.839   2.718 128.325  0.00  0.00    +0.000 OA
ATOM     35  CA  UNL     1      -8.889   1.825 130.742  0.00  0.00    +0.000 C 
BRANCH  31  36
ATOM     36  C   UNL     1     -10.289   5.949 129.308  0.00  0.00    +0.000 C 
ATOM     37  OXT UNL     1     -11.477   5.649 129.302  0.00  0.00    +0.000 OA
BRANCH  36  38
ATOM     38  O   UNL     1      -9.900   7.013 128.577  0.00  0.00    +0.000 OA
ATOM     39  H   UNL     1      -9.540   7.806 129.002  0.00  0.00    +0.000 HD
ENDBRANCH  36  38
ENDBRANCH  31  36
ENDBRANCH  22  35
ENDBRANCH   1  23
TORSDOF 7
ENDMDL
