MODEL 1
REMARK VINA RESULT:      -7.7      0.000      0.000
REMARK  Name = Mianserin
REMARK  1 active torsions:
REMARK  status: ('A' for Active; 'I' for Inactive)
REMARK    1  A    between atoms: C_1  and  N_2
REMARK                            x       y       z     vdW  Elec       q    Type
REMARK                         _______ _______ _______ _____ _____    ______ ____
ROOT
ATOM      1  C   UNL     1      -9.389  -1.375 125.683  0.00  0.00    +0.000 C 
ATOM      2  N   UNL     1      -9.189  -0.544 124.384  0.00  0.00    +0.000 NA
ATOM      3  C   UNL     1      -7.904  -0.087 124.745  0.00  0.00    +0.000 C 
ATOM      4  C   UNL     1      -7.302   0.617 123.571  0.00  0.00    +0.000 C 
ATOM      5  N   UNL     1      -7.217   1.948 124.120  0.00  0.00    +0.000 N 
ATOM      6  C   UNL     1      -8.377   2.615 123.528  0.00  0.00    +0.000 C 
ATOM      7  C   UNL     1      -9.682   1.063 123.885  0.00  0.00    +0.000 C 
ATOM      8  C   UNL     1      -7.286   3.442 122.382  0.00  0.00    +0.000 A 
ATOM      9  C   UNL     1      -7.359   3.461 120.974  0.00  0.00    +0.000 A 
ATOM     10  C   UNL     1      -6.288   3.999 120.107  0.00  0.00    +0.000 A 
ATOM     11  C   UNL     1      -5.079   4.543 120.541  0.00  0.00    +0.000 A 
ATOM     12  C   UNL     1      -4.950   4.646 121.896  0.00  0.00    +0.000 A 
ATOM     13  C   UNL     1      -6.011   4.171 122.798  0.00  0.00    +0.000 A 
ATOM     14  C   UNL     1      -5.619   4.540 124.213  0.00  0.00    +0.000 C 
ATOM     15  C   UNL     1      -5.401   3.355 125.080  0.00  0.00    +0.000 A 
ATOM     16  C   UNL     1      -4.269   3.377 125.957  0.00  0.00    +0.000 A 
ATOM     17  C   UNL     1      -3.949   2.312 126.800  0.00  0.00    +0.000 A 
ATOM     18  C   UNL     1      -4.773   1.237 126.785  0.00  0.00    +0.000 A 
ATOM     19  C   UNL     1      -5.850   1.262 125.946  0.00  0.00    +0.000 A 
ATOM     20  C   UNL     1      -6.225   2.239 125.003  0.00  0.00    +0.000 A 
ENDROOT
TORSDOF 0
ENDMDL
MODEL 2
REMARK VINA RESULT:      -7.3      2.594      5.341
REMARK  Name = Mianserin
REMARK  1 active torsions:
REMARK  status: ('A' for Active; 'I' for Inactive)
REMARK    1  A    between atoms: C_1  and  N_2
REMARK                            x       y       z     vdW  Elec       q    Type
REMARK                         _______ _______ _______ _____ _____    ______ ____
ROOT
ATOM      1  C   UNL     1      -7.139  -3.658 129.593  0.00  0.00    +0.000 C 
ATOM      2  N   UNL     1      -6.812  -2.207 129.135  0.00  0.00    +0.000 NA
ATOM      3  C   UNL     1      -7.603  -2.281 127.970  0.00  0.00    +0.000 C 
ATOM      4  C   UNL     1      -7.680  -0.918 127.359  0.00  0.00    +0.000 C 
ATOM      5  N   UNL     1      -6.988  -1.181 126.122  0.00  0.00    +0.000 N 
ATOM      6  C   UNL     1      -5.650  -0.649 126.380  0.00  0.00    +0.000 C 
ATOM      7  C   UNL     1      -5.480  -1.485 128.254  0.00  0.00    +0.000 C 
ATOM      8  C   UNL     1      -6.056   0.784 125.393  0.00  0.00    +0.000 A 
ATOM      9  C   UNL     1      -5.972   2.142 125.760  0.00  0.00    +0.000 A 
ATOM     10  C   UNL     1      -6.530   3.244 124.946  0.00  0.00    +0.000 A 
ATOM     11  C   UNL     1      -7.210   3.106 123.736  0.00  0.00    +0.000 A 
ATOM     12  C   UNL     1      -7.269   1.830 123.254  0.00  0.00    +0.000 A 
ATOM     13  C   UNL     1      -6.683   0.708 124.003  0.00  0.00    +0.000 A 
ATOM     14  C   UNL     1      -6.804  -0.537 123.150  0.00  0.00    +0.000 C 
ATOM     15  C   UNL     1      -7.672  -1.575 123.760  0.00  0.00    +0.000 A 
ATOM     16  C   UNL     1      -8.593  -2.256 122.900  0.00  0.00    +0.000 A 
ATOM     17  C   UNL     1      -9.475  -3.232 123.365  0.00  0.00    +0.000 A 
ATOM     18  C   UNL     1      -9.420  -3.545 124.681  0.00  0.00    +0.000 A 
ATOM     19  C   UNL     1      -8.518  -2.885 125.464  0.00  0.00    +0.000 A 
ATOM     20  C   UNL     1      -7.640  -1.836 125.124  0.00  0.00    +0.000 A 
ENDROOT
TORSDOF 0
ENDMDL
MODEL 3
REMARK VINA RESULT:      -7.2      2.671      6.044
REMARK  Name = Mianserin
REMARK  1 active torsions:
REMARK  status: ('A' for Active; 'I' for Inactive)
REMARK    1  A    between atoms: C_1  and  N_2
REMARK                            x       y       z     vdW  Elec       q    Type
REMARK                         _______ _______ _______ _____ _____    ______ ____
ROOT
ATOM      1  C   UNL     1      -9.824   1.553 121.985  0.00  0.00    +0.000 C 
ATOM      2  N   UNL     1     -10.026   0.346 122.945  0.00  0.00    +0.000 NA
ATOM      3  C   UNL     1      -9.125   0.827 123.916  0.00  0.00    +0.000 C 
ATOM      4  C   UNL     1      -9.229  -0.037 125.133  0.00  0.00    +0.000 C 
ATOM      5  N   UNL     1      -7.905  -0.605 125.126  0.00  0.00    +0.000 N 
ATOM      6  C   UNL     1      -8.125  -1.931 124.547  0.00  0.00    +0.000 C 
ATOM      7  C   UNL     1      -9.343  -1.266 123.027  0.00  0.00    +0.000 C 
ATOM      8  C   UNL     1      -7.995  -2.639 126.182  0.00  0.00    +0.000 A 
ATOM      9  C   UNL     1      -8.918  -3.475 126.843  0.00  0.00    +0.000 A 
ATOM     10  C   UNL     1      -8.816  -3.836 128.273  0.00  0.00    +0.000 A 
ATOM     11  C   UNL     1      -7.825  -3.409 129.157  0.00  0.00    +0.000 A 
ATOM     12  C   UNL     1      -6.834  -2.661 128.590  0.00  0.00    +0.000 A 
ATOM     13  C   UNL     1      -6.866  -2.319 127.159  0.00  0.00    +0.000 A 
ATOM     14  C   UNL     1      -5.577  -1.599 126.823  0.00  0.00    +0.000 C 
ATOM     15  C   UNL     1      -5.796  -0.197 126.385  0.00  0.00    +0.000 A 
ATOM     16  C   UNL     1      -4.906   0.802 126.898  0.00  0.00    +0.000 A 
ATOM     17  C   UNL     1      -5.028   2.154 126.576  0.00  0.00    +0.000 A 
ATOM     18  C   UNL     1      -6.020   2.505 125.724  0.00  0.00    +0.000 A 
ATOM     19  C   UNL     1      -6.837   1.521 125.245  0.00  0.00    +0.000 A 
ATOM     20  C   UNL     1      -6.857   0.147 125.558  0.00  0.00    +0.000 A 
ENDROOT
TORSDOF 0
ENDMDL
MODEL 4
REMARK VINA RESULT:      -7.2      1.789      5.366
REMARK  Name = Mianserin
REMARK  1 active torsions:
REMARK  status: ('A' for Active; 'I' for Inactive)
REMARK    1  A    between atoms: C_1  and  N_2
REMARK                            x       y       z     vdW  Elec       q    Type
REMARK                         _______ _______ _______ _____ _____    ______ ____
ROOT
ATOM      1  C   UNL     1      -4.070   5.645 127.360  0.00  0.00    +0.000 C 
ATOM      2  N   UNL     1      -4.971   4.381 127.464  0.00  0.00    +0.000 NA
ATOM      3  C   UNL     1      -4.954   4.121 126.079  0.00  0.00    +0.000 C 
ATOM      4  C   UNL     1      -5.593   2.791 125.836  0.00  0.00    +0.000 C 
ATOM      5  N   UNL     1      -6.743   3.222 125.081  0.00  0.00    +0.000 N 
ATOM      6  C   UNL     1      -7.811   3.204 126.080  0.00  0.00    +0.000 C 
ATOM      7  C   UNL     1      -6.704   4.131 127.547  0.00  0.00    +0.000 C 
ATOM      8  C   UNL     1      -8.412   1.677 125.374  0.00  0.00    +0.000 A 
ATOM      9  C   UNL     1      -8.647   0.451 126.030  0.00  0.00    +0.000 A 
ATOM     10  C   UNL     1      -8.943  -0.812 125.320  0.00  0.00    +0.000 A 
ATOM     11  C   UNL     1      -9.021  -0.975 123.936  0.00  0.00    +0.000 A 
ATOM     12  C   UNL     1      -8.890   0.177 123.215  0.00  0.00    +0.000 A 
ATOM     13  C   UNL     1      -8.646   1.466 123.881  0.00  0.00    +0.000 A 
ATOM     14  C   UNL     1      -8.676   2.549 122.823  0.00  0.00    +0.000 C 
ATOM     15  C   UNL     1      -7.372   3.245 122.671  0.00  0.00    +0.000 A 
ATOM     16  C   UNL     1      -6.922   3.521 121.340  0.00  0.00    +0.000 A 
ATOM     17  C   UNL     1      -5.704   4.147 121.073  0.00  0.00    +0.000 A 
ATOM     18  C   UNL     1      -4.950   4.520 122.134  0.00  0.00    +0.000 A 
ATOM     19  C   UNL     1      -5.422   4.253 123.387  0.00  0.00    +0.000 A 
ATOM     20  C   UNL     1      -6.588   3.563 123.772  0.00  0.00    +0.000 A 
ENDROOT
TORSDOF 0
ENDMDL
MODEL 5
REMARK VINA RESULT:      -7.1      3.323      5.920
REMARK  Name = Mianserin
REMARK  1 active torsions:
REMARK  status: ('A' for Active; 'I' for Inactive)
REMARK    1  A    between atoms: C_1  and  N_2
REMARK                            x       y       z     vdW  Elec       q    Type
REMARK                         _______ _______ _______ _____ _____    ______ ____
ROOT
ATOM      1  C   UNL     1      -7.739   4.053 128.315  0.00  0.00    +0.000 C 
ATOM      2  N   UNL     1      -8.100   3.303 127.002  0.00  0.00    +0.000 NA
ATOM      3  C   UNL     1      -8.276   2.055 127.635  0.00  0.00    +0.000 C 
ATOM      4  C   UNL     1      -8.851   1.094 126.643  0.00  0.00    +0.000 C 
ATOM      5  N   UNL     1      -7.752   0.165 126.559  0.00  0.00    +0.000 N 
ATOM      6  C   UNL     1      -7.086   0.563 125.319  0.00  0.00    +0.000 C 
ATOM      7  C   UNL     1      -7.150   2.581 125.717  0.00  0.00    +0.000 C 
ATOM      8  C   UNL     1      -7.825  -0.843 124.501  0.00  0.00    +0.000 A 
ATOM      9  C   UNL     1      -8.608  -0.853 123.328  0.00  0.00    +0.000 A 
ATOM     10  C   UNL     1      -9.348  -2.040 122.849  0.00  0.00    +0.000 A 
ATOM     11  C   UNL     1      -9.387  -3.287 123.473  0.00  0.00    +0.000 A 
ATOM     12  C   UNL     1      -8.590  -3.403 124.574  0.00  0.00    +0.000 A 
ATOM     13  C   UNL     1      -7.795  -2.263 125.059  0.00  0.00    +0.000 A 
ATOM     14  C   UNL     1      -6.936  -2.750 126.207  0.00  0.00    +0.000 C 
ATOM     15  C   UNL     1      -7.266  -2.091 127.496  0.00  0.00    +0.000 A 
ATOM     16  C   UNL     1      -7.324  -2.917 128.665  0.00  0.00    +0.000 A 
ATOM     17  C   UNL     1      -7.648  -2.414 129.926  0.00  0.00    +0.000 A 
ATOM     18  C   UNL     1      -7.887  -1.085 130.024  0.00  0.00    +0.000 A 
ATOM     19  C   UNL     1      -7.807  -0.330 128.890  0.00  0.00    +0.000 A 
ATOM     20  C   UNL     1      -7.568  -0.737 127.562  0.00  0.00    +0.000 A 
ENDROOT
TORSDOF 0
ENDMDL
MODEL 6
REMARK VINA RESULT:      -7.0      2.005      5.337
REMARK  Name = Mianserin
REMARK  1 active torsions:
REMARK  status: ('A' for Active; 'I' for Inactive)
REMARK    1  A    between atoms: C_1  and  N_2
REMARK                            x       y       z     vdW  Elec       q    Type
REMARK                         _______ _______ _______ _____ _____    ______ ____
ROOT
ATOM      1  C   UNL     1      -5.862   3.547 128.954  0.00  0.00    +0.000 C 
ATOM      2  N   UNL     1      -6.501   2.173 128.601  0.00  0.00    +0.000 NA
ATOM      3  C   UNL     1      -6.278   2.303 127.215  0.00  0.00    +0.000 C 
ATOM      4  C   UNL     1      -6.611   1.003 126.555  0.00  0.00    +0.000 C 
ATOM      5  N   UNL     1      -7.732   1.431 125.756  0.00  0.00    +0.000 N 
ATOM      6  C   UNL     1      -8.880   0.971 126.537  0.00  0.00    +0.000 C 
ATOM      7  C   UNL     1      -8.149   1.633 128.344  0.00  0.00    +0.000 C 
ATOM      8  C   UNL     1      -9.085  -0.385 125.392  0.00  0.00    +0.000 A 
ATOM      9  C   UNL     1      -9.145  -1.764 125.681  0.00  0.00    +0.000 A 
ATOM     10  C   UNL     1      -9.104  -2.819 124.646  0.00  0.00    +0.000 A 
ATOM     11  C   UNL     1      -8.994  -2.612 123.270  0.00  0.00    +0.000 A 
ATOM     12  C   UNL     1      -9.014  -1.303 122.883  0.00  0.00    +0.000 A 
ATOM     13  C   UNL     1      -9.105  -0.220 123.875  0.00  0.00    +0.000 A 
ATOM     14  C   UNL     1      -9.230   1.089 123.125  0.00  0.00    +0.000 C 
ATOM     15  C   UNL     1      -8.082   2.001 123.357  0.00  0.00    +0.000 A 
ATOM     16  C   UNL     1      -7.549   2.696 122.223  0.00  0.00    +0.000 A 
ATOM     17  C   UNL     1      -6.457   3.559 122.315  0.00  0.00    +0.000 A 
ATOM     18  C   UNL     1      -5.914   3.748 123.541  0.00  0.00    +0.000 A 
ATOM     19  C   UNL     1      -6.461   3.080 124.599  0.00  0.00    +0.000 A 
ATOM     20  C   UNL     1      -7.503   2.132 124.613  0.00  0.00    +0.000 A 
ENDROOT
TORSDOF 0
ENDMDL
MODEL 7
REMARK VINA RESULT:      -7.0      2.905      5.581
REMARK  Name = Mianserin
REMARK  1 active torsions:
REMARK  status: ('A' for Active; 'I' for Inactive)
REMARK    1  A    between atoms: C_1  and  N_2
REMARK                            x       y       z     vdW  Elec       q    Type
REMARK                         _______ _______ _______ _____ _____    ______ ____
ROOT
ATOM      1  C   UNL     1      -4.354  -2.085 130.144  0.00  0.00    +0.000 C 
ATOM      2  N   UNL     1      -5.327  -2.746 129.126  0.00  0.00    +0.000 NA
ATOM      3  C   UNL     1      -5.191  -1.723 128.166  0.00  0.00    +0.000 C 
ATOM      4  C   UNL     1      -5.875  -2.155 126.908  0.00  0.00    +0.000 C 
ATOM      5  N   UNL     1      -6.922  -1.166 126.863  0.00  0.00    +0.000 N 
ATOM      6  C   UNL     1      -8.081  -1.898 127.375  0.00  0.00    +0.000 C 
ATOM      7  C   UNL     1      -7.071  -2.759 128.949  0.00  0.00    +0.000 C 
ATOM      8  C   UNL     1      -8.692  -2.051 125.704  0.00  0.00    +0.000 A 
ATOM      9  C   UNL     1      -9.055  -3.227 125.016  0.00  0.00    +0.000 A 
ATOM     10  C   UNL     1      -9.348  -3.270 123.567  0.00  0.00    +0.000 A 
ATOM     11  C   UNL     1      -9.302  -2.186 122.690  0.00  0.00    +0.000 A 
ATOM     12  C   UNL     1      -9.042  -0.982 123.279  0.00  0.00    +0.000 A 
ATOM     13  C   UNL     1      -8.794  -0.883 124.726  0.00  0.00    +0.000 A 
ATOM     14  C   UNL     1      -8.664   0.584 125.077  0.00  0.00    +0.000 C 
ATOM     15  C   UNL     1      -7.317   0.939 125.591  0.00  0.00    +0.000 A 
ATOM     16  C   UNL     1      -6.727   2.154 125.116  0.00  0.00    +0.000 A 
ATOM     17  C   UNL     1      -5.457   2.578 125.510  0.00  0.00    +0.000 A 
ATOM     18  C   UNL     1      -4.789   1.802 126.396  0.00  0.00    +0.000 A 
ATOM     19  C   UNL     1      -5.392   0.660 126.837  0.00  0.00    +0.000 A 
ATOM     20  C   UNL     1      -6.625   0.097 126.453  0.00  0.00    +0.000 A 
ENDROOT
TORSDOF 0
ENDMDL
MODEL 8
REMARK VINA RESULT:      -6.8      3.149      7.242
REMARK  Name = Mianserin
REMARK  1 active torsions:
REMARK  status: ('A' for Active; 'I' for Inactive)
REMARK    1  A    between atoms: C_1  and  N_2
REMARK                            x       y       z     vdW  Elec       q    Type
REMARK                         _______ _______ _______ _____ _____    ______ ____
ROOT
ATOM      1  C   UNL     1      -5.966   3.383 124.500  0.00  0.00    +0.000 C 
ATOM      2  N   UNL     1      -6.178   2.813 125.931  0.00  0.00    +0.000 NA
ATOM      3  C   UNL     1      -5.999   1.470 125.541  0.00  0.00    +0.000 C 
ATOM      4  C   UNL     1      -5.940   0.620 126.770  0.00  0.00    +0.000 C 
ATOM      5  N   UNL     1      -7.134  -0.160 126.569  0.00  0.00    +0.000 N 
ATOM      6  C   UNL     1      -8.101   0.497 127.449  0.00  0.00    +0.000 C 
ATOM      7  C   UNL     1      -7.598   2.409 126.877  0.00  0.00    +0.000 C 
ATOM      8  C   UNL     1      -7.901  -0.835 128.622  0.00  0.00    +0.000 A 
ATOM      9  C   UNL     1      -7.559  -0.745 129.987  0.00  0.00    +0.000 A 
ATOM     10  C   UNL     1      -7.212  -1.915 130.822  0.00  0.00    +0.000 A 
ATOM     11  C   UNL     1      -7.163  -3.242 130.393  0.00  0.00    +0.000 A 
ATOM     12  C   UNL     1      -7.561  -3.442 129.102  0.00  0.00    +0.000 A 
ATOM     13  C   UNL     1      -7.965  -2.313 128.249  0.00  0.00    +0.000 A 
ATOM     14  C   UNL     1      -8.463  -2.878 126.935  0.00  0.00    +0.000 C 
ATOM     15  C   UNL     1      -7.629  -2.469 125.777  0.00  0.00    +0.000 A 
ATOM     16  C   UNL     1      -7.319  -3.469 124.800  0.00  0.00    +0.000 A 
ATOM     17  C   UNL     1      -6.524  -3.209 123.683  0.00  0.00    +0.000 A 
ATOM     18  C   UNL     1      -6.062  -1.945 123.528  0.00  0.00    +0.000 A 
ATOM     19  C   UNL     1      -6.393  -1.018 124.473  0.00  0.00    +0.000 A 
ATOM     20  C   UNL     1      -7.116  -1.183 125.671  0.00  0.00    +0.000 A 
ENDROOT
TORSDOF 0
ENDMDL
MODEL 9
REMARK VINA RESULT:      -6.8      4.072      8.387
REMARK  Name = Mianserin
REMARK  1 active torsions:
REMARK  status: ('A' for Active; 'I' for Inactive)
REMARK    1  A    between atoms: C_1  and  N_2
REMARK                            x       y       z     vdW  Elec       q    Type
REMARK                         _______ _______ _______ _____ _____    ______ ____
ROOT
ATOM      1  C   UNL     1      -6.780   2.896 126.288  0.00  0.00    +0.000 C 
ATOM      2  N   UNL     1      -6.001   2.099 127.373  0.00  0.00    +0.000 NA
ATOM      3  C   UNL     1      -6.481   0.842 126.950  0.00  0.00    +0.000 C 
ATOM      4  C   UNL     1      -5.740  -0.225 127.690  0.00  0.00    +0.000 C 
ATOM      5  N   UNL     1      -6.834  -0.787 128.442  0.00  0.00    +0.000 N 
ATOM      6  C   UNL     1      -6.660  -0.184 129.764  0.00  0.00    +0.000 C 
ATOM      7  C   UNL     1      -6.313   1.717 129.055  0.00  0.00    +0.000 C 
ATOM      8  C   UNL     1      -5.980  -1.729 130.351  0.00  0.00    +0.000 A 
ATOM      9  C   UNL     1      -4.742  -1.945 130.990  0.00  0.00    +0.000 A 
ATOM     10  C   UNL     1      -4.179  -3.288 131.246  0.00  0.00    +0.000 A 
ATOM     11  C   UNL     1      -4.767  -4.504 130.897  0.00  0.00    +0.000 A 
ATOM     12  C   UNL     1      -6.012  -4.401 130.347  0.00  0.00    +0.000 A 
ATOM     13  C   UNL     1      -6.635  -3.088 130.119  0.00  0.00    +0.000 A 
ATOM     14  C   UNL     1      -8.046  -3.321 129.621  0.00  0.00    +0.000 C 
ATOM     15  C   UNL     1      -8.263  -2.816 128.242  0.00  0.00    +0.000 A 
ATOM     16  C   UNL     1      -9.009  -3.646 127.344  0.00  0.00    +0.000 A 
ATOM     17  C   UNL     1      -9.255  -3.287 126.018  0.00  0.00    +0.000 A 
ATOM     18  C   UNL     1      -8.781  -2.091 125.598  0.00  0.00    +0.000 A 
ATOM     19  C   UNL     1      -8.089  -1.323 126.489  0.00  0.00    +0.000 A 
ATOM     20  C   UNL     1      -7.715  -1.613 127.816  0.00  0.00    +0.000 A 
ENDROOT
TORSDOF 0
ENDMDL
