MODEL 1
REMARK VINA RESULT:      -7.2      0.000      0.000
REMARK  Name = Miconazole
REMARK  6 active torsions:
REMARK  status: ('A' for Active; 'I' for Inactive)
REMARK    1  A    between atoms: C_6  and  C_7
REMARK    2  A    between atoms: C_7  and  O_8
REMARK    3  A    between atoms: O_8  and  C_9
REMARK    4  A    between atoms: C_9  and  C_10
REMARK    5  A    between atoms: C_9  and  C_16
REMARK    6  A    between atoms: C_10  and  N_11
REMARK                            x       y       z     vdW  Elec       q    Type
REMARK                         _______ _______ _______ _____ _____    ______ ____
ROOT
ATOM      1  C   UNL     1      -8.266  -0.267 125.012  0.00  0.00    +0.000 C 
ENDROOT
BRANCH   1   2
ATOM      2  C   UNL     1      -7.326  -1.446 124.681  0.00  0.00    +0.000 A 
ATOM      3  C   UNL     1      -7.798  -2.756 124.478  0.00  0.00    +0.000 A 
ATOM      4 CL   UNL     1      -9.469  -3.169 124.646  0.00  0.00    +0.000 Cl
ATOM      5  C   UNL     1      -6.922  -3.801 124.156  0.00  0.00    +0.000 A 
ATOM      6  C   UNL     1      -5.554  -3.564 124.067  0.00  0.00    +0.000 A 
ATOM      7 CL   UNL     1      -4.480  -4.856 123.700  0.00  0.00    +0.000 Cl
ATOM      8  C   UNL     1      -5.050  -2.290 124.284  0.00  0.00    +0.000 A 
ATOM      9  C   UNL     1      -5.927  -1.242 124.577  0.00  0.00    +0.000 A 
ENDBRANCH   1   2
BRANCH   1  10
ATOM     10  O   UNL     1      -8.868  -0.616 126.286  0.00  0.00    +0.000 OA
BRANCH  10  11
ATOM     11  C   UNL     1      -8.063  -0.266 127.398  0.00  0.00    +0.000 C 
BRANCH  11  17
ATOM     12 CL   UNL     1      -5.696  -4.776 130.580  0.00  0.00    +0.000 Cl
ATOM     13  C   UNL     1      -6.332  -3.530 129.583  0.00  0.00    +0.000 A 
ATOM     14  C   UNL     1      -5.547  -2.425 129.288  0.00  0.00    +0.000 A 
ATOM     15  C   UNL     1      -6.126  -1.345 128.629  0.00  0.00    +0.000 A 
ATOM     16 CL   UNL     1      -5.135   0.057 128.439  0.00  0.00    +0.000 Cl
ATOM     17  C   UNL     1      -7.468  -1.395 128.189  0.00  0.00    +0.000 A 
ATOM     18  C   UNL     1      -8.198  -2.567 128.394  0.00  0.00    +0.000 A 
ATOM     19  C   UNL     1      -7.647  -3.612 129.129  0.00  0.00    +0.000 A 
ENDBRANCH  11  17
ENDBRANCH  10  11
ENDBRANCH   1  10
BRANCH   1  20
ATOM     20  C   UNL     1      -7.467   1.108 124.962  0.00  0.00    +0.000 C 
BRANCH  20  21
ATOM     21  N   UNL     1      -7.684   2.048 123.859  0.00  0.00    +0.000 N 
ATOM     22  C   UNL     1      -8.884   2.479 123.334  0.00  0.00    +0.000 A 
ATOM     23  C   UNL     1      -8.538   3.048 122.122  0.00  0.00    +0.000 A 
ATOM     24  N   UNL     1      -7.193   3.236 122.051  0.00  0.00    +0.000 NA
ATOM     25  C   UNL     1      -6.707   2.707 123.167  0.00  0.00    +0.000 A 
ENDBRANCH  20  21
ENDBRANCH   1  20
TORSDOF 6
ENDMDL
MODEL 2
REMARK VINA RESULT:      -7.2      3.533      5.632
REMARK  Name = Miconazole
REMARK  6 active torsions:
REMARK  status: ('A' for Active; 'I' for Inactive)
REMARK    1  A    between atoms: C_6  and  C_7
REMARK    2  A    between atoms: C_7  and  O_8
REMARK    3  A    between atoms: O_8  and  C_9
REMARK    4  A    between atoms: C_9  and  C_10
REMARK    5  A    between atoms: C_9  and  C_16
REMARK    6  A    between atoms: C_10  and  N_11
REMARK                            x       y       z     vdW  Elec       q    Type
REMARK                         _______ _______ _______ _____ _____    ______ ____
ROOT
ATOM      1  C   UNL     1      -7.207   2.301 123.865  0.00  0.00    +0.000 C 
ENDROOT
BRANCH   1   2
ATOM      2  C   UNL     1      -6.859   3.087 122.583  0.00  0.00    +0.000 A 
ATOM      3  C   UNL     1      -7.779   3.266 121.533  0.00  0.00    +0.000 A 
ATOM      4 CL   UNL     1      -9.360   2.566 121.564  0.00  0.00    +0.000 Cl
ATOM      5  C   UNL     1      -7.441   4.005 120.391  0.00  0.00    +0.000 A 
ATOM      6  C   UNL     1      -6.166   4.545 120.259  0.00  0.00    +0.000 A 
ATOM      7 CL   UNL     1      -5.748   5.425 118.843  0.00  0.00    +0.000 Cl
ATOM      8  C   UNL     1      -5.225   4.367 121.264  0.00  0.00    +0.000 A 
ATOM      9  C   UNL     1      -5.572   3.656 122.415  0.00  0.00    +0.000 A 
ENDBRANCH   1   2
BRANCH   1  10
ATOM     10  O   UNL     1      -7.003   0.907 123.517  0.00  0.00    +0.000 OA
BRANCH  10  11
ATOM     11  C   UNL     1      -8.178   0.124 123.634  0.00  0.00    +0.000 C 
BRANCH  11  17
ATOM     12 CL   UNL     1      -8.440  -3.682 128.272  0.00  0.00    +0.000 Cl
ATOM     13  C   UNL     1      -8.463  -2.562 126.970  0.00  0.00    +0.000 A 
ATOM     14  C   UNL     1      -8.984  -2.951 125.745  0.00  0.00    +0.000 A 
ATOM     15  C   UNL     1      -8.841  -2.102 124.652  0.00  0.00    +0.000 A 
ATOM     16 CL   UNL     1      -9.370  -2.720 123.128  0.00  0.00    +0.000 Cl
ATOM     17  C   UNL     1      -8.250  -0.826 124.794  0.00  0.00    +0.000 A 
ATOM     18  C   UNL     1      -7.842  -0.414 126.064  0.00  0.00    +0.000 A 
ATOM     19  C   UNL     1      -7.906  -1.296 127.138  0.00  0.00    +0.000 A 
ENDBRANCH  11  17
ENDBRANCH  10  11
ENDBRANCH   1  10
BRANCH   1  20
ATOM     20  C   UNL     1      -6.362   2.852 125.097  0.00  0.00    +0.000 C 
BRANCH  20  21
ATOM     21  N   UNL     1      -7.014   3.646 126.142  0.00  0.00    +0.000 N 
ATOM     22  C   UNL     1      -6.922   3.493 127.508  0.00  0.00    +0.000 A 
ATOM     23  C   UNL     1      -7.978   4.235 128.005  0.00  0.00    +0.000 A 
ATOM     24  N   UNL     1      -8.490   5.041 127.036  0.00  0.00    +0.000 NA
ATOM     25  C   UNL     1      -7.817   4.732 125.934  0.00  0.00    +0.000 A 
ENDBRANCH  20  21
ENDBRANCH   1  20
TORSDOF 6
ENDMDL
MODEL 3
REMARK VINA RESULT:      -7.1      3.739      6.014
REMARK  Name = Miconazole
REMARK  6 active torsions:
REMARK  status: ('A' for Active; 'I' for Inactive)
REMARK    1  A    between atoms: C_6  and  C_7
REMARK    2  A    between atoms: C_7  and  O_8
REMARK    3  A    between atoms: O_8  and  C_9
REMARK    4  A    between atoms: C_9  and  C_10
REMARK    5  A    between atoms: C_9  and  C_16
REMARK    6  A    between atoms: C_10  and  N_11
REMARK                            x       y       z     vdW  Elec       q    Type
REMARK                         _______ _______ _______ _____ _____    ______ ____
ROOT
ATOM      1  C   UNL     1      -6.334   3.171 124.999  0.00  0.00    +0.000 C 
ENDROOT
BRANCH   1   2
ATOM      2  C   UNL     1      -6.604   3.430 123.501  0.00  0.00    +0.000 A 
ATOM      3  C   UNL     1      -7.851   3.173 122.902  0.00  0.00    +0.000 A 
ATOM      4 CL   UNL     1      -9.171   2.484 123.781  0.00  0.00    +0.000 Cl
ATOM      5  C   UNL     1      -8.072   3.440 121.544  0.00  0.00    +0.000 A 
ATOM      6  C   UNL     1      -7.040   3.934 120.751  0.00  0.00    +0.000 A 
ATOM      7 CL   UNL     1      -7.309   4.232 119.080  0.00  0.00    +0.000 Cl
ATOM      8  C   UNL     1      -5.790   4.177 121.303  0.00  0.00    +0.000 A 
ATOM      9  C   UNL     1      -5.579   3.937 122.664  0.00  0.00    +0.000 A 
ENDBRANCH   1   2
BRANCH   1  10
ATOM     10  O   UNL     1      -5.734   1.851 125.048  0.00  0.00    +0.000 OA
BRANCH  10  11
ATOM     11  C   UNL     1      -6.400   0.968 125.934  0.00  0.00    +0.000 C 
BRANCH  11  17
ATOM     12 CL   UNL     1      -9.608  -3.461 123.452  0.00  0.00    +0.000 Cl
ATOM     13  C   UNL     1      -8.610  -2.261 124.169  0.00  0.00    +0.000 A 
ATOM     14  C   UNL     1      -8.552  -2.160 125.552  0.00  0.00    +0.000 A 
ATOM     15  C   UNL     1      -7.882  -1.081 126.120  0.00  0.00    +0.000 A 
ATOM     16 CL   UNL     1      -7.989  -0.933 127.838  0.00  0.00    +0.000 Cl
ATOM     17  C   UNL     1      -7.197  -0.143 125.316  0.00  0.00    +0.000 A 
ATOM     18  C   UNL     1      -7.172  -0.338 123.933  0.00  0.00    +0.000 A 
ATOM     19  C   UNL     1      -7.913  -1.366 123.360  0.00  0.00    +0.000 A 
ENDBRANCH  11  17
ENDBRANCH  10  11
ENDBRANCH   1  10
BRANCH   1  20
ATOM     20  C   UNL     1      -5.476   4.360 125.619  0.00  0.00    +0.000 C 
BRANCH  20  21
ATOM     21  N   UNL     1      -4.403   4.073 126.575  0.00  0.00    +0.000 N 
ATOM     22  C   UNL     1      -4.470   4.068 127.952  0.00  0.00    +0.000 A 
ATOM     23  C   UNL     1      -3.147   4.096 128.355  0.00  0.00    +0.000 A 
ATOM     24  N   UNL     1      -2.324   3.818 127.308  0.00  0.00    +0.000 NA
ATOM     25  C   UNL     1      -3.125   3.710 126.255  0.00  0.00    +0.000 A 
ENDBRANCH  20  21
ENDBRANCH   1  20
TORSDOF 6
ENDMDL
MODEL 4
REMARK VINA RESULT:      -6.9      7.635     10.479
REMARK  Name = Miconazole
REMARK  6 active torsions:
REMARK  status: ('A' for Active; 'I' for Inactive)
REMARK    1  A    between atoms: C_6  and  C_7
REMARK    2  A    between atoms: C_7  and  O_8
REMARK    3  A    between atoms: O_8  and  C_9
REMARK    4  A    between atoms: C_9  and  C_10
REMARK    5  A    between atoms: C_9  and  C_16
REMARK    6  A    between atoms: C_10  and  N_11
REMARK                            x       y       z     vdW  Elec       q    Type
REMARK                         _______ _______ _______ _____ _____    ______ ____
ROOT
ATOM      1  C   UNL     1      -9.436   3.993 129.973  0.00  0.00    +0.000 C 
ENDROOT
BRANCH   1   2
ATOM      2  C   UNL     1      -9.029   4.308 131.428  0.00  0.00    +0.000 A 
ATOM      3  C   UNL     1      -9.203   3.386 132.478  0.00  0.00    +0.000 A 
ATOM      4 CL   UNL     1      -9.946   1.844 132.236  0.00  0.00    +0.000 Cl
ATOM      5  C   UNL     1      -8.803   3.693 133.786  0.00  0.00    +0.000 A 
ATOM      6  C   UNL     1      -8.257   4.939 134.076  0.00  0.00    +0.000 A 
ATOM      7 CL   UNL     1      -7.795   5.320 135.687  0.00  0.00    +0.000 Cl
ATOM      8  C   UNL     1      -8.093   5.881 133.070  0.00  0.00    +0.000 A 
ATOM      9  C   UNL     1      -8.466   5.564 131.761  0.00  0.00    +0.000 A 
ENDBRANCH   1   2
BRANCH   1  10
ATOM     10  O   UNL     1     -10.003   5.228 129.467  0.00  0.00    +0.000 OA
BRANCH  10  11
ATOM     11  C   UNL     1     -11.393   5.347 129.713  0.00  0.00    +0.000 C 
BRANCH  11  17
ATOM     12 CL   UNL     1     -13.644  10.900 130.114  0.00  0.00    +0.000 Cl
ATOM     13  C   UNL     1     -12.906   9.352 130.023  0.00  0.00    +0.000 A 
ATOM     14  C   UNL     1     -12.337   8.937 128.828  0.00  0.00    +0.000 A 
ATOM     15  C   UNL     1     -11.898   7.622 128.713  0.00  0.00    +0.000 A 
ATOM     16 CL   UNL     1     -11.350   7.132 127.149  0.00  0.00    +0.000 Cl
ATOM     17  C   UNL     1     -11.950   6.737 129.813  0.00  0.00    +0.000 A 
ATOM     18  C   UNL     1     -12.418   7.218 131.038  0.00  0.00    +0.000 A 
ATOM     19  C   UNL     1     -12.936   8.506 131.130  0.00  0.00    +0.000 A 
ENDBRANCH  11  17
ENDBRANCH  10  11
ENDBRANCH   1  10
BRANCH   1  20
ATOM     20  C   UNL     1      -8.194   3.404 129.168  0.00  0.00    +0.000 C 
BRANCH  20  21
ATOM     21  N   UNL     1      -8.176   1.993 128.771  0.00  0.00    +0.000 N 
ATOM     22  C   UNL     1      -7.801   0.903 129.526  0.00  0.00    +0.000 A 
ATOM     23  C   UNL     1      -7.626  -0.108 128.598  0.00  0.00    +0.000 A 
ATOM     24  N   UNL     1      -8.161   0.249 127.399  0.00  0.00    +0.000 NA
ATOM     25  C   UNL     1      -8.578   1.499 127.562  0.00  0.00    +0.000 A 
ENDBRANCH  20  21
ENDBRANCH   1  20
TORSDOF 6
ENDMDL
MODEL 5
REMARK VINA RESULT:      -6.8      7.997     10.767
REMARK  Name = Miconazole
REMARK  6 active torsions:
REMARK  status: ('A' for Active; 'I' for Inactive)
REMARK    1  A    between atoms: C_6  and  C_7
REMARK    2  A    between atoms: C_7  and  O_8
REMARK    3  A    between atoms: O_8  and  C_9
REMARK    4  A    between atoms: C_9  and  C_10
REMARK    5  A    between atoms: C_9  and  C_16
REMARK    6  A    between atoms: C_10  and  N_11
REMARK                            x       y       z     vdW  Elec       q    Type
REMARK                         _______ _______ _______ _____ _____    ______ ____
ROOT
ATOM      1  C   UNL     1      -9.952   3.872 130.396  0.00  0.00    +0.000 C 
ENDROOT
BRANCH   1   2
ATOM      2  C   UNL     1      -9.321   4.304 131.737  0.00  0.00    +0.000 A 
ATOM      3  C   UNL     1      -8.685   5.548 131.908  0.00  0.00    +0.000 A 
ATOM      4 CL   UNL     1      -8.499   6.673 130.608  0.00  0.00    +0.000 Cl
ATOM      5  C   UNL     1      -8.141   5.920 133.145  0.00  0.00    +0.000 A 
ATOM      6  C   UNL     1      -8.191   5.044 134.224  0.00  0.00    +0.000 A 
ATOM      7 CL   UNL     1      -7.497   5.495 135.730  0.00  0.00    +0.000 Cl
ATOM      8  C   UNL     1      -8.790   3.799 134.085  0.00  0.00    +0.000 A 
ATOM      9  C   UNL     1      -9.356   3.439 132.860  0.00  0.00    +0.000 A 
ENDBRANCH   1   2
BRANCH   1  10
ATOM     10  O   UNL     1     -10.343   5.111 129.750  0.00  0.00    +0.000 OA
BRANCH  10  11
ATOM     11  C   UNL     1     -11.740   5.343 129.787  0.00  0.00    +0.000 C 
BRANCH  11  17
ATOM     12 CL   UNL     1     -13.561  11.047 130.253  0.00  0.00    +0.000 Cl
ATOM     13  C   UNL     1     -12.943   9.449 130.141  0.00  0.00    +0.000 A 
ATOM     14  C   UNL     1     -12.445   8.994 128.929  0.00  0.00    +0.000 A 
ATOM     15  C   UNL     1     -12.108   7.650 128.801  0.00  0.00    +0.000 A 
ATOM     16 CL   UNL     1     -11.649   7.123 127.221  0.00  0.00    +0.000 Cl
ATOM     17  C   UNL     1     -12.190   6.771 129.903  0.00  0.00    +0.000 A 
ATOM     18  C   UNL     1     -12.581   7.283 131.142  0.00  0.00    +0.000 A 
ATOM     19  C   UNL     1     -12.999   8.606 131.249  0.00  0.00    +0.000 A 
ENDBRANCH  11  17
ENDBRANCH  10  11
ENDBRANCH   1  10
BRANCH   1  20
ATOM     20  C   UNL     1      -8.945   2.941 129.587  0.00  0.00    +0.000 C 
BRANCH  20  21
ATOM     21  N   UNL     1      -7.674   3.482 129.097  0.00  0.00    +0.000 N 
ATOM     22  C   UNL     1      -6.435   3.413 129.695  0.00  0.00    +0.000 A 
ATOM     23  C   UNL     1      -5.681   4.360 129.025  0.00  0.00    +0.000 A 
ATOM     24  N   UNL     1      -6.318   4.758 127.890  0.00  0.00    +0.000 NA
ATOM     25  C   UNL     1      -7.488   4.131 127.909  0.00  0.00    +0.000 A 
ENDBRANCH  20  21
ENDBRANCH   1  20
TORSDOF 6
ENDMDL
MODEL 6
REMARK VINA RESULT:      -6.8      3.541      6.617
REMARK  Name = Miconazole
REMARK  6 active torsions:
REMARK  status: ('A' for Active; 'I' for Inactive)
REMARK    1  A    between atoms: C_6  and  C_7
REMARK    2  A    between atoms: C_7  and  O_8
REMARK    3  A    between atoms: O_8  and  C_9
REMARK    4  A    between atoms: C_9  and  C_10
REMARK    5  A    between atoms: C_9  and  C_16
REMARK    6  A    between atoms: C_10  and  N_11
REMARK                            x       y       z     vdW  Elec       q    Type
REMARK                         _______ _______ _______ _____ _____    ______ ____
ROOT
ATOM      1  C   UNL     1      -6.230  -1.896 127.700  0.00  0.00    +0.000 C 
ENDROOT
BRANCH   1   2
ATOM      2  C   UNL     1      -7.161  -2.312 126.542  0.00  0.00    +0.000 A 
ATOM      3  C   UNL     1      -6.734  -2.341 125.201  0.00  0.00    +0.000 A 
ATOM      4 CL   UNL     1      -5.145  -1.851 124.730  0.00  0.00    +0.000 Cl
ATOM      5  C   UNL     1      -7.598  -2.745 124.174  0.00  0.00    +0.000 A 
ATOM      6  C   UNL     1      -8.914  -3.093 124.462  0.00  0.00    +0.000 A 
ATOM      7 CL   UNL     1      -9.976  -3.560 123.193  0.00  0.00    +0.000 Cl
ATOM      8  C   UNL     1      -9.376  -3.053 125.770  0.00  0.00    +0.000 A 
ATOM      9  C   UNL     1      -8.507  -2.677 126.797  0.00  0.00    +0.000 A 
ENDBRANCH   1   2
BRANCH   1  10
ATOM     10  O   UNL     1      -6.539  -0.500 127.946  0.00  0.00    +0.000 OA
BRANCH  10  11
ATOM     11  C   UNL     1      -5.411   0.351 127.830  0.00  0.00    +0.000 C 
BRANCH  11  17
ATOM     12 CL   UNL     1      -5.554   4.479 123.471  0.00  0.00    +0.000 Cl
ATOM     13  C   UNL     1      -5.578   3.359 124.773  0.00  0.00    +0.000 A 
ATOM     14  C   UNL     1      -4.680   3.510 125.819  0.00  0.00    +0.000 A 
ATOM     15  C   UNL     1      -4.589   2.507 126.778  0.00  0.00    +0.000 A 
ATOM     16 CL   UNL     1      -3.339   2.686 127.957  0.00  0.00    +0.000 Cl
ATOM     17  C   UNL     1      -5.449   1.387 126.744  0.00  0.00    +0.000 A 
ATOM     18  C   UNL     1      -6.425   1.321 125.748  0.00  0.00    +0.000 A 
ATOM     19  C   UNL     1      -6.458   2.280 124.740  0.00  0.00    +0.000 A 
ENDBRANCH  11  17
ENDBRANCH  10  11
ENDBRANCH   1  10
BRANCH   1  20
ATOM     20  C   UNL     1      -6.407  -2.886 128.934  0.00  0.00    +0.000 C 
BRANCH  20  21
ATOM     21  N   UNL     1      -5.241  -3.299 129.720  0.00  0.00    +0.000 N 
ATOM     22  C   UNL     1      -5.218  -3.820 130.996  0.00  0.00    +0.000 A 
ATOM     23  C   UNL     1      -3.896  -3.698 131.388  0.00  0.00    +0.000 A 
ATOM     24  N   UNL     1      -3.107  -3.416 130.317  0.00  0.00    +0.000 NA
ATOM     25  C   UNL     1      -3.942  -3.276 129.294  0.00  0.00    +0.000 A 
ENDBRANCH  20  21
ENDBRANCH   1  20
TORSDOF 6
ENDMDL
MODEL 7
REMARK VINA RESULT:      -6.7      3.197      5.661
REMARK  Name = Miconazole
REMARK  6 active torsions:
REMARK  status: ('A' for Active; 'I' for Inactive)
REMARK    1  A    between atoms: C_6  and  C_7
REMARK    2  A    between atoms: C_7  and  O_8
REMARK    3  A    between atoms: O_8  and  C_9
REMARK    4  A    between atoms: C_9  and  C_10
REMARK    5  A    between atoms: C_9  and  C_16
REMARK    6  A    between atoms: C_10  and  N_11
REMARK                            x       y       z     vdW  Elec       q    Type
REMARK                         _______ _______ _______ _____ _____    ______ ____
ROOT
ATOM      1  C   UNL     1      -8.034   2.045 124.828  0.00  0.00    +0.000 C 
ENDROOT
BRANCH   1   2
ATOM      2  C   UNL     1      -7.391   2.761 123.621  0.00  0.00    +0.000 A 
ATOM      3  C   UNL     1      -8.026   2.847 122.367  0.00  0.00    +0.000 A 
ATOM      4 CL   UNL     1      -9.555   2.102 122.056  0.00  0.00    +0.000 Cl
ATOM      5  C   UNL     1      -7.427   3.524 121.296  0.00  0.00    +0.000 A 
ATOM      6  C   UNL     1      -6.167   4.095 121.446  0.00  0.00    +0.000 A 
ATOM      7 CL   UNL     1      -5.425   4.898 120.120  0.00  0.00    +0.000 Cl
ATOM      8  C   UNL     1      -5.501   4.008 122.660  0.00  0.00    +0.000 A 
ATOM      9  C   UNL     1      -6.111   3.358 123.737  0.00  0.00    +0.000 A 
ENDBRANCH   1   2
BRANCH   1  10
ATOM     10  O   UNL     1      -8.332   0.707 124.354  0.00  0.00    +0.000 OA
BRANCH  10  11
ATOM     11  C   UNL     1      -8.059  -0.299 125.314  0.00  0.00    +0.000 C 
BRANCH  11  17
ATOM     12 CL   UNL     1      -4.549  -4.841 123.547  0.00  0.00    +0.000 Cl
ATOM     13  C   UNL     1      -5.540  -3.574 124.152  0.00  0.00    +0.000 A 
ATOM     14  C   UNL     1      -6.893  -3.803 124.349  0.00  0.00    +0.000 A 
ATOM     15  C   UNL     1      -7.717  -2.728 124.672  0.00  0.00    +0.000 A 
ATOM     16 CL   UNL     1      -9.412  -3.057 124.744  0.00  0.00    +0.000 Cl
ATOM     17  C   UNL     1      -7.183  -1.437 124.878  0.00  0.00    +0.000 A 
ATOM     18  C   UNL     1      -5.800  -1.262 124.790  0.00  0.00    +0.000 A 
ATOM     19  C   UNL     1      -4.988  -2.316 124.383  0.00  0.00    +0.000 A 
ENDBRANCH  11  17
ENDBRANCH  10  11
ENDBRANCH   1  10
BRANCH   1  20
ATOM     20  C   UNL     1      -7.083   2.148 126.101  0.00  0.00    +0.000 C 
BRANCH  20  21
ATOM     21  N   UNL     1      -7.554   2.811 127.321  0.00  0.00    +0.000 N 
ATOM     22  C   UNL     1      -7.759   2.254 128.564  0.00  0.00    +0.000 A 
ATOM     23  C   UNL     1      -8.524   3.193 129.234  0.00  0.00    +0.000 A 
ATOM     24  N   UNL     1      -8.522   4.375 128.561  0.00  0.00    +0.000 NA
ATOM     25  C   UNL     1      -7.840   4.141 127.447  0.00  0.00    +0.000 A 
ENDBRANCH  20  21
ENDBRANCH   1  20
TORSDOF 6
ENDMDL
MODEL 8
REMARK VINA RESULT:      -6.6      1.779      2.083
REMARK  Name = Miconazole
REMARK  6 active torsions:
REMARK  status: ('A' for Active; 'I' for Inactive)
REMARK    1  A    between atoms: C_6  and  C_7
REMARK    2  A    between atoms: C_7  and  O_8
REMARK    3  A    between atoms: O_8  and  C_9
REMARK    4  A    between atoms: C_9  and  C_10
REMARK    5  A    between atoms: C_9  and  C_16
REMARK    6  A    between atoms: C_10  and  N_11
REMARK                            x       y       z     vdW  Elec       q    Type
REMARK                         _______ _______ _______ _____ _____    ______ ____
ROOT
ATOM      1  C   UNL     1      -7.645  -0.543 126.205  0.00  0.00    +0.000 C 
ENDROOT
BRANCH   1   2
ATOM      2  C   UNL     1      -6.855  -1.647 125.471  0.00  0.00    +0.000 A 
ATOM      3  C   UNL     1      -7.410  -2.907 125.179  0.00  0.00    +0.000 A 
ATOM      4 CL   UNL     1      -9.006  -3.348 125.675  0.00  0.00    +0.000 Cl
ATOM      5  C   UNL     1      -6.674  -3.881 124.491  0.00  0.00    +0.000 A 
ATOM      6  C   UNL     1      -5.359  -3.629 124.114  0.00  0.00    +0.000 A 
ATOM      7 CL   UNL     1      -4.452  -4.838 123.296  0.00  0.00    +0.000 Cl
ATOM      8  C   UNL     1      -4.771  -2.406 124.408  0.00  0.00    +0.000 A 
ATOM      9  C   UNL     1      -5.514  -1.424 125.069  0.00  0.00    +0.000 A 
ENDBRANCH   1   2
BRANCH   1  10
ATOM     10  O   UNL     1      -6.968  -0.381 127.478  0.00  0.00    +0.000 OA
BRANCH  10  11
ATOM     11  C   UNL     1      -7.767  -0.755 128.588  0.00  0.00    +0.000 C 
BRANCH  11  17
ATOM     12 CL   UNL     1      -5.550  -4.966 132.250  0.00  0.00    +0.000 Cl
ATOM     13  C   UNL     1      -6.098  -3.704 131.223  0.00  0.00    +0.000 A 
ATOM     14  C   UNL     1      -6.828  -2.655 131.761  0.00  0.00    +0.000 A 
ATOM     15  C   UNL     1      -7.414  -1.731 130.901  0.00  0.00    +0.000 A 
ATOM     16 CL   UNL     1      -8.439  -0.548 131.632  0.00  0.00    +0.000 Cl
ATOM     17  C   UNL     1      -7.209  -1.803 129.505  0.00  0.00    +0.000 A 
ATOM     18  C   UNL     1      -6.372  -2.801 129.002  0.00  0.00    +0.000 A 
ATOM     19  C   UNL     1      -5.856  -3.774 129.852  0.00  0.00    +0.000 A 
ENDBRANCH  11  17
ENDBRANCH  10  11
ENDBRANCH   1  10
BRANCH   1  20
ATOM     20  C   UNL     1      -7.754   0.758 125.293  0.00  0.00    +0.000 C 
BRANCH  20  21
ATOM     21  N   UNL     1      -8.769   0.836 124.239  0.00  0.00    +0.000 N 
ATOM     22  C   UNL     1      -9.708   1.824 124.036  0.00  0.00    +0.000 A 
ATOM     23  C   UNL     1     -10.618   1.253 123.164  0.00  0.00    +0.000 A 
ATOM     24  N   UNL     1     -10.108   0.112 122.625  0.00  0.00    +0.000 NA
ATOM     25  C   UNL     1      -8.937  -0.064 123.225  0.00  0.00    +0.000 A 
ENDBRANCH  20  21
ENDBRANCH   1  20
TORSDOF 6
ENDMDL
MODEL 9
REMARK VINA RESULT:      -6.5      6.554      8.723
REMARK  Name = Miconazole
REMARK  6 active torsions:
REMARK  status: ('A' for Active; 'I' for Inactive)
REMARK    1  A    between atoms: C_6  and  C_7
REMARK    2  A    between atoms: C_7  and  O_8
REMARK    3  A    between atoms: O_8  and  C_9
REMARK    4  A    between atoms: C_9  and  C_10
REMARK    5  A    between atoms: C_9  and  C_16
REMARK    6  A    between atoms: C_10  and  N_11
REMARK                            x       y       z     vdW  Elec       q    Type
REMARK                         _______ _______ _______ _____ _____    ______ ____
ROOT
ATOM      1  C   UNL     1      -9.827   4.603 130.536  0.00  0.00    +0.000 C 
ENDROOT
BRANCH   1   2
ATOM      2  C   UNL     1      -9.141   4.787 131.906  0.00  0.00    +0.000 A 
ATOM      3  C   UNL     1      -8.218   5.820 132.158  0.00  0.00    +0.000 A 
ATOM      4 CL   UNL     1      -7.726   6.934 130.930  0.00  0.00    +0.000 Cl
ATOM      5  C   UNL     1      -7.629   5.974 133.420  0.00  0.00    +0.000 A 
ATOM      6  C   UNL     1      -7.922   5.079 134.443  0.00  0.00    +0.000 A 
ATOM      7 CL   UNL     1      -7.174   5.256 135.981  0.00  0.00    +0.000 Cl
ATOM      8  C   UNL     1      -8.809   4.034 134.224  0.00  0.00    +0.000 A 
ATOM      9  C   UNL     1      -9.418   3.897 132.974  0.00  0.00    +0.000 A 
ENDBRANCH   1   2
BRANCH   1  10
ATOM     10  O   UNL     1      -9.926   3.167 130.357  0.00  0.00    +0.000 OA
BRANCH  10  11
ATOM     11  C   UNL     1      -8.815   2.610 129.677  0.00  0.00    +0.000 C 
BRANCH  11  17
ATOM     12 CL   UNL     1      -7.222  -2.983 131.175  0.00  0.00    +0.000 Cl
ATOM     13  C   UNL     1      -7.770  -1.422 130.714  0.00  0.00    +0.000 A 
ATOM     14  C   UNL     1      -7.578  -0.990 129.409  0.00  0.00    +0.000 A 
ATOM     15  C   UNL     1      -7.866   0.333 129.089  0.00  0.00    +0.000 A 
ATOM     16 CL   UNL     1      -7.452   0.841 127.491  0.00  0.00    +0.000 Cl
ATOM     17  C   UNL     1      -8.421   1.210 130.048  0.00  0.00    +0.000 A 
ATOM     18  C   UNL     1      -8.714   0.715 131.320  0.00  0.00    +0.000 A 
ATOM     19  C   UNL     1      -8.347  -0.582 131.664  0.00  0.00    +0.000 A 
ENDBRANCH  11  17
ENDBRANCH  10  11
ENDBRANCH   1  10
BRANCH   1  20
ATOM     20  C   UNL     1     -11.195   5.417 130.489  0.00  0.00    +0.000 C 
BRANCH  20  21
ATOM     21  N   UNL     1     -11.304   6.628 129.672  0.00  0.00    +0.000 N 
ATOM     22  C   UNL     1     -10.530   6.997 128.593  0.00  0.00    +0.000 A 
ATOM     23  C   UNL     1     -10.804   8.343 128.424  0.00  0.00    +0.000 A 
ATOM     24  N   UNL     1     -11.901   8.699 129.145  0.00  0.00    +0.000 NA
ATOM     25  C   UNL     1     -12.245   7.608 129.819  0.00  0.00    +0.000 A 
ENDBRANCH  20  21
ENDBRANCH   1  20
TORSDOF 6
ENDMDL
