MODEL 1
REMARK VINA RESULT:      -7.1      0.000      0.000
REMARK  Name = Micronomicin
REMARK  16 active torsions:
REMARK  status: ('A' for Active; 'I' for Inactive)
REMARK    1  A    between atoms: C_1  and  N_2
REMARK    2  A    between atoms: N_2  and  C_3
REMARK    3  A    between atoms: C_3  and  C_4
REMARK    4  A    between atoms: C_7  and  N_8
REMARK    5  A    between atoms: C_9  and  O_10
REMARK    6  A    between atoms: O_10  and  C_11
REMARK    7  A    between atoms: C_12  and  N_13
REMARK    8  A    between atoms: C_15  and  N_16
REMARK    9  A    between atoms: C_17  and  O_18
REMARK   10  A    between atoms: O_18  and  C_19
REMARK   11  A    between atoms: C_22  and  C_23
REMARK   12  A    between atoms: C_22  and  O_24
REMARK   13  A    between atoms: C_25  and  N_26
REMARK   14  A    between atoms: N_26  and  C_27
REMARK   15  A    between atoms: C_28  and  O_29
REMARK   16  A    between atoms: C_30  and  O_31
REMARK                            x       y       z     vdW  Elec       q    Type
REMARK                         _______ _______ _______ _____ _____    ______ ____
ROOT
ATOM      1  C   UNL     1      -7.915   3.454 124.605  0.00  0.00    +0.000 C 
ATOM      2  C   UNL     1      -6.344   3.510 124.195  0.00  0.00    +0.000 C 
ATOM      3  C   UNL     1      -5.290   3.393 125.355  0.00  0.00    +0.000 C 
ATOM      4  C   UNL     1      -5.636   4.061 126.695  0.00  0.00    +0.000 C 
ATOM      5  C   UNL     1      -7.133   4.201 127.122  0.00  0.00    +0.000 C 
ATOM      6  C   UNL     1      -8.169   4.314 125.911  0.00  0.00    +0.000 C 
ENDROOT
BRANCH   2   7
ATOM      7  N   UNL     1      -5.919   4.730 123.498  0.00  0.00    +0.000 NA
ATOM      8  H   UNL     1      -5.134   5.181 123.943  0.00  0.00    +0.000 HD
ATOM      9  H   UNL     1      -6.685   5.395 123.429  0.00  0.00    +0.000 HD
ENDBRANCH   2   7
BRANCH   4  10
ATOM     10  N   UNL     1      -4.958   5.361 126.697  0.00  0.00    +0.000 NA
ATOM     11  H   UNL     1      -4.529   5.561 125.803  0.00  0.00    +0.000 HD
ATOM     12  H   UNL     1      -4.182   5.306 127.360  0.00  0.00    +0.000 HD
ENDBRANCH   4  10
BRANCH   6  13
ATOM     13  O   UNL     1      -8.117   5.707 125.470  0.00  0.00    +0.000 OA
ATOM     14  H   UNL     1      -7.253   5.861 125.056  0.00  0.00    +0.000 HD
ENDBRANCH   6  13
BRANCH   1  15
ATOM     15  O   UNL     1      -8.669   2.118 124.469  0.00  0.00    +0.000 OA
BRANCH  15  20
ATOM     16  C   UNL     1      -7.830  -0.133 127.570  0.00  0.00    +0.000 C 
ATOM     17  C   UNL     1      -8.036  -1.566 126.595  0.00  0.00    +0.000 C 
ATOM     18  C   UNL     1      -7.709  -1.477 125.090  0.00  0.00    +0.000 C 
ATOM     19  C   UNL     1      -8.328  -0.212 124.643  0.00  0.00    +0.000 C 
ATOM     20  C   UNL     1      -8.234   1.086 125.422  0.00  0.00    +0.000 C 
ATOM     21  O   UNL     1      -8.584   0.953 126.835  0.00  0.00    +0.000 OA
BRANCH  19  22
ATOM     22  N   UNL     1      -9.580  -0.624 124.017  0.00  0.00    +0.000 NA
ATOM     23  H   UNL     1     -10.328  -0.285 124.619  0.00  0.00    +0.000 HD
ATOM     24  H   UNL     1      -9.650  -1.646 124.056  0.00  0.00    +0.000 HD
ENDBRANCH  19  22
BRANCH  16  25
ATOM     25  C   UNL     1      -6.354   0.350 128.643  0.00  0.00    +0.000 C 
BRANCH  25  27
ATOM     26  C   UNL     1      -4.828   2.065 130.035  0.00  0.00    +0.000 C 
ATOM     27  N   UNL     1      -6.156   1.281 129.873  0.00  0.00    +0.000 NA
ATOM     28  H   UNL     1      -6.844   2.019 129.751  0.00  0.00    +0.000 HD
ENDBRANCH  25  27
ENDBRANCH  16  25
ENDBRANCH  15  20
ENDBRANCH   1  15
BRANCH   5  29
ATOM     29  O   UNL     1      -7.593   3.593 128.364  0.00  0.00    +0.000 OA
BRANCH  29  30
ATOM     30  C   UNL     1      -7.985   4.379 129.522  0.00  0.00    +0.000 C 
ATOM     31  O   UNL     1      -8.702   5.579 129.213  0.00  0.00    +0.000 OA
ATOM     32  C   UNL     1      -9.130   6.307 130.403  0.00  0.00    +0.000 C 
ATOM     33  C   UNL     1     -10.361   5.737 131.148  0.00  0.00    +0.000 C 
ATOM     34  C   UNL     1     -11.594   5.834 130.265  0.00  0.00    +0.000 C 
ATOM     35  C   UNL     1      -9.759   4.348 131.594  0.00  0.00    +0.000 C 
ATOM     36  C   UNL     1      -8.993   3.567 130.193  0.00  0.00    +0.000 C 
BRANCH  35  37
ATOM     37  N   UNL     1      -8.996   4.735 132.838  0.00  0.00    +0.000 NA
ATOM     38  C   UNL     1      -8.669   4.112 134.093  0.00  0.00    +0.000 C 
ATOM     39  H   UNL     1      -8.815   5.711 132.930  0.00  0.00    +0.000 HD
ENDBRANCH  35  37
BRANCH  33  40
ATOM     40  O   UNL     1     -10.749   6.546 132.322  0.00  0.00    +0.000 OA
ATOM     41  H   UNL     1     -10.158   6.494 132.988  0.00  0.00    +0.000 HD
ENDBRANCH  33  40
BRANCH  36  42
ATOM     42  O   UNL     1      -9.560   2.698 129.154  0.00  0.00    +0.000 OA
ATOM     43  H   UNL     1     -10.531   2.726 129.079  0.00  0.00    +0.000 HD
ENDBRANCH  36  42
ENDBRANCH  29  30
ENDBRANCH   5  29
TORSDOF 13
ENDMDL
MODEL 2
REMARK VINA RESULT:      -7.1      2.358      4.658
REMARK  Name = Micronomicin
REMARK  16 active torsions:
REMARK  status: ('A' for Active; 'I' for Inactive)
REMARK    1  A    between atoms: C_1  and  N_2
REMARK    2  A    between atoms: N_2  and  C_3
REMARK    3  A    between atoms: C_3  and  C_4
REMARK    4  A    between atoms: C_7  and  N_8
REMARK    5  A    between atoms: C_9  and  O_10
REMARK    6  A    between atoms: O_10  and  C_11
REMARK    7  A    between atoms: C_12  and  N_13
REMARK    8  A    between atoms: C_15  and  N_16
REMARK    9  A    between atoms: C_17  and  O_18
REMARK   10  A    between atoms: O_18  and  C_19
REMARK   11  A    between atoms: C_22  and  C_23
REMARK   12  A    between atoms: C_22  and  O_24
REMARK   13  A    between atoms: C_25  and  N_26
REMARK   14  A    between atoms: N_26  and  C_27
REMARK   15  A    between atoms: C_28  and  O_29
REMARK   16  A    between atoms: C_30  and  O_31
REMARK                            x       y       z     vdW  Elec       q    Type
REMARK                         _______ _______ _______ _____ _____    ______ ____
ROOT
ATOM      1  C   UNL     1      -7.615   2.682 127.593  0.00  0.00    +0.000 C 
ATOM      2  C   UNL     1      -6.684   1.622 128.399  0.00  0.00    +0.000 C 
ATOM      3  C   UNL     1      -6.759   1.642 129.969  0.00  0.00    +0.000 C 
ATOM      4  C   UNL     1      -6.927   3.009 130.651  0.00  0.00    +0.000 C 
ATOM      5  C   UNL     1      -7.675   4.158 129.900  0.00  0.00    +0.000 C 
ATOM      6  C   UNL     1      -7.575   4.095 128.306  0.00  0.00    +0.000 C 
ENDROOT
BRANCH   2   7
ATOM      7  N   UNL     1      -5.242   1.731 128.146  0.00  0.00    +0.000 NA
ATOM      8  H   UNL     1      -4.999   1.553 127.183  0.00  0.00    +0.000 HD
ATOM      9  H   UNL     1      -4.720   1.093 128.740  0.00  0.00    +0.000 HD
ENDBRANCH   2   7
BRANCH   4  10
ATOM     10  N   UNL     1      -5.587   3.432 131.068  0.00  0.00    +0.000 NA
ATOM     11  H   UNL     1      -5.621   4.043 131.874  0.00  0.00    +0.000 HD
ATOM     12  H   UNL     1      -5.192   4.003 130.317  0.00  0.00    +0.000 HD
ENDBRANCH   4  10
BRANCH   6  13
ATOM     13  O   UNL     1      -6.270   4.660 127.966  0.00  0.00    +0.000 OA
ATOM     14  H   UNL     1      -5.851   4.968 128.785  0.00  0.00    +0.000 HD
ENDBRANCH   6  13
BRANCH   1  15
ATOM     15  O   UNL     1      -8.964   2.202 127.028  0.00  0.00    +0.000 OA
BRANCH  15  20
ATOM     16  C   UNL     1      -9.554   0.879 123.384  0.00  0.00    +0.000 C 
ATOM     17  C   UNL     1      -8.834   2.329 122.733  0.00  0.00    +0.000 C 
ATOM     18  C   UNL     1      -7.739   3.033 123.559  0.00  0.00    +0.000 C 
ATOM     19  C   UNL     1      -8.262   3.053 124.941  0.00  0.00    +0.000 C 
ATOM     20  C   UNL     1      -8.928   1.859 125.598  0.00  0.00    +0.000 C 
ATOM     21  O   UNL     1      -9.979   1.249 124.787  0.00  0.00    +0.000 OA
BRANCH  19  22
ATOM     22  N   UNL     1      -8.800   4.399 125.105  0.00  0.00    +0.000 NA
ATOM     23  H   UNL     1      -8.816   4.583 126.107  0.00  0.00    +0.000 HD
ATOM     24  H   UNL     1      -9.785   4.401 124.819  0.00  0.00    +0.000 HD
ENDBRANCH  19  22
BRANCH  16  25
ATOM     25  C   UNL     1      -9.110  -0.917 123.009  0.00  0.00    +0.000 C 
BRANCH  25  27
ATOM     26  C   UNL     1      -9.114  -3.073 124.610  0.00  0.00    +0.000 C 
ATOM     27  N   UNL     1      -9.710  -2.297 123.407  0.00  0.00    +0.000 NA
ATOM     28  H   UNL     1     -10.656  -2.086 123.716  0.00  0.00    +0.000 HD
ENDBRANCH  25  27
ENDBRANCH  16  25
ENDBRANCH  15  20
ENDBRANCH   1  15
BRANCH   5  29
ATOM     29  O   UNL     1      -8.867   4.754 130.489  0.00  0.00    +0.000 OA
BRANCH  29  30
ATOM     30  C   UNL     1      -9.858   5.467 129.699  0.00  0.00    +0.000 C 
ATOM     31  O   UNL     1     -11.215   5.212 130.077  0.00  0.00    +0.000 OA
ATOM     32  C   UNL     1     -12.175   5.992 129.302  0.00  0.00    +0.000 C 
ATOM     33  C   UNL     1     -12.323   7.482 129.696  0.00  0.00    +0.000 C 
ATOM     34  C   UNL     1     -12.892   7.595 131.100  0.00  0.00    +0.000 C 
ATOM     35  C   UNL     1     -10.866   7.977 129.342  0.00  0.00    +0.000 C 
ATOM     36  C   UNL     1      -9.681   6.867 130.066  0.00  0.00    +0.000 C 
BRANCH  35  37
ATOM     37  N   UNL     1     -10.977   8.202 127.853  0.00  0.00    +0.000 NA
ATOM     38  C   UNL     1     -10.650   7.463 126.663  0.00  0.00    +0.000 C 
ATOM     39  H   UNL     1     -11.139   9.149 127.585  0.00  0.00    +0.000 HD
ENDBRANCH  35  37
BRANCH  33  40
ATOM     40  O   UNL     1     -13.334   8.194 128.886  0.00  0.00    +0.000 OA
ATOM     41  H   UNL     1     -13.829   8.757 129.369  0.00  0.00    +0.000 HD
ENDBRANCH  33  40
BRANCH  36  42
ATOM     42  O   UNL     1      -9.076   6.855 131.404  0.00  0.00    +0.000 OA
ATOM     43  H   UNL     1      -8.343   6.224 131.520  0.00  0.00    +0.000 HD
ENDBRANCH  36  42
ENDBRANCH  29  30
ENDBRANCH   5  29
TORSDOF 13
ENDMDL
MODEL 3
REMARK VINA RESULT:      -7.0      1.444      1.730
REMARK  Name = Micronomicin
REMARK  16 active torsions:
REMARK  status: ('A' for Active; 'I' for Inactive)
REMARK    1  A    between atoms: C_1  and  N_2
REMARK    2  A    between atoms: N_2  and  C_3
REMARK    3  A    between atoms: C_3  and  C_4
REMARK    4  A    between atoms: C_7  and  N_8
REMARK    5  A    between atoms: C_9  and  O_10
REMARK    6  A    between atoms: O_10  and  C_11
REMARK    7  A    between atoms: C_12  and  N_13
REMARK    8  A    between atoms: C_15  and  N_16
REMARK    9  A    between atoms: C_17  and  O_18
REMARK   10  A    between atoms: O_18  and  C_19
REMARK   11  A    between atoms: C_22  and  C_23
REMARK   12  A    between atoms: C_22  and  O_24
REMARK   13  A    between atoms: C_25  and  N_26
REMARK   14  A    between atoms: N_26  and  C_27
REMARK   15  A    between atoms: C_28  and  O_29
REMARK   16  A    between atoms: C_30  and  O_31
REMARK                            x       y       z     vdW  Elec       q    Type
REMARK                         _______ _______ _______ _____ _____    ______ ____
ROOT
ATOM      1  C   UNL     1      -8.551   3.088 124.581  0.00  0.00    +0.000 C 
ATOM      2  C   UNL     1      -7.059   2.530 124.261  0.00  0.00    +0.000 C 
ATOM      3  C   UNL     1      -6.119   2.237 125.487  0.00  0.00    +0.000 C 
ATOM      4  C   UNL     1      -6.214   3.185 126.693  0.00  0.00    +0.000 C 
ATOM      5  C   UNL     1      -7.568   3.901 127.005  0.00  0.00    +0.000 C 
ATOM      6  C   UNL     1      -8.492   4.176 125.731  0.00  0.00    +0.000 C 
ENDROOT
BRANCH   2   7
ATOM      7  N   UNL     1      -6.227   3.402 123.421  0.00  0.00    +0.000 NA
ATOM      8  H   UNL     1      -5.247   3.345 123.649  0.00  0.00    +0.000 HD
ATOM      9  H   UNL     1      -6.527   4.370 123.495  0.00  0.00    +0.000 HD
ENDBRANCH   2   7
BRANCH   4  10
ATOM     10  N   UNL     1      -5.122   4.152 126.547  0.00  0.00    +0.000 NA
ATOM     11  H   UNL     1      -4.453   4.078 127.302  0.00  0.00    +0.000 HD
ATOM     12  H   UNL     1      -5.522   5.089 126.636  0.00  0.00    +0.000 HD
ENDBRANCH   4  10
BRANCH   6  13
ATOM     13  O   UNL     1      -7.950   5.376 125.097  0.00  0.00    +0.000 OA
ATOM     14  H   UNL     1      -8.588   5.682 124.433  0.00  0.00    +0.000 HD
ENDBRANCH   6  13
BRANCH   1  15
ATOM     15  O   UNL     1      -9.726   2.093 124.595  0.00  0.00    +0.000 OA
BRANCH  15  20
ATOM     16  C   UNL     1      -9.001  -1.611 125.661  0.00  0.00    +0.000 C 
ATOM     17  C   UNL     1      -9.116  -2.121 123.996  0.00  0.00    +0.000 C 
ATOM     18  C   UNL     1      -8.709  -1.118 122.897  0.00  0.00    +0.000 C 
ATOM     19  C   UNL     1      -9.336   0.158 123.299  0.00  0.00    +0.000 C 
ATOM     20  C   UNL     1      -9.317   0.686 124.721  0.00  0.00    +0.000 C 
ATOM     21  O   UNL     1      -9.742  -0.294 125.720  0.00  0.00    +0.000 OA
BRANCH  19  22
ATOM     22  N   UNL     1     -10.540   0.244 122.481  0.00  0.00    +0.000 NA
ATOM     23  H   UNL     1     -10.887   1.197 122.576  0.00  0.00    +0.000 HD
ATOM     24  H   UNL     1     -11.268  -0.347 122.898  0.00  0.00    +0.000 HD
ENDBRANCH  19  22
BRANCH  16  25
ATOM     25  C   UNL     1      -7.599  -1.923 126.886  0.00  0.00    +0.000 C 
BRANCH  25  27
ATOM     26  C   UNL     1      -7.417   0.152 128.579  0.00  0.00    +0.000 C 
ATOM     27  N   UNL     1      -7.226  -1.359 128.287  0.00  0.00    +0.000 NA
ATOM     28  H   UNL     1      -7.883  -1.800 128.925  0.00  0.00    +0.000 HD
ENDBRANCH  25  27
ENDBRANCH  16  25
ENDBRANCH  15  20
ENDBRANCH   1  15
BRANCH   5  29
ATOM     29  O   UNL     1      -8.218   3.693 128.292  0.00  0.00    +0.000 OA
BRANCH  29  30
ATOM     30  C   UNL     1      -8.624   4.793 129.151  0.00  0.00    +0.000 C 
ATOM     31  O   UNL     1      -9.467   5.762 128.520  0.00  0.00    +0.000 OA
ATOM     32  C   UNL     1      -9.902   6.816 129.430  0.00  0.00    +0.000 C 
ATOM     33  C   UNL     1     -11.033   6.443 130.418  0.00  0.00    +0.000 C 
ATOM     34  C   UNL     1     -12.313   6.147 129.655  0.00  0.00    +0.000 C 
ATOM     35  C   UNL     1     -10.280   5.334 131.251  0.00  0.00    +0.000 C 
ATOM     36  C   UNL     1      -9.515   4.184 130.132  0.00  0.00    +0.000 C 
BRANCH  35  37
ATOM     37  N   UNL     1      -9.495   6.172 132.231  0.00  0.00    +0.000 NA
ATOM     38  C   UNL     1      -8.571   5.923 133.305  0.00  0.00    +0.000 C 
ATOM     39  H   UNL     1      -9.800   7.118 132.309  0.00  0.00    +0.000 HD
ENDBRANCH  35  37
BRANCH  33  40
ATOM     40  O   UNL     1     -11.436   7.571 131.285  0.00  0.00    +0.000 OA
ATOM     41  H   UNL     1     -11.240   7.434 132.144  0.00  0.00    +0.000 HD
ENDBRANCH  33  40
BRANCH  36  42
ATOM     42  O   UNL     1     -10.049   2.977 129.488  0.00  0.00    +0.000 OA
ATOM     43  H   UNL     1     -10.896   2.657 129.849  0.00  0.00    +0.000 HD
ENDBRANCH  36  42
ENDBRANCH  29  30
ENDBRANCH   5  29
TORSDOF 13
ENDMDL
MODEL 4
REMARK VINA RESULT:      -7.0      2.513      7.239
REMARK  Name = Micronomicin
REMARK  16 active torsions:
REMARK  status: ('A' for Active; 'I' for Inactive)
REMARK    1  A    between atoms: C_1  and  N_2
REMARK    2  A    between atoms: N_2  and  C_3
REMARK    3  A    between atoms: C_3  and  C_4
REMARK    4  A    between atoms: C_7  and  N_8
REMARK    5  A    between atoms: C_9  and  O_10
REMARK    6  A    between atoms: O_10  and  C_11
REMARK    7  A    between atoms: C_12  and  N_13
REMARK    8  A    between atoms: C_15  and  N_16
REMARK    9  A    between atoms: C_17  and  O_18
REMARK   10  A    between atoms: O_18  and  C_19
REMARK   11  A    between atoms: C_22  and  C_23
REMARK   12  A    between atoms: C_22  and  O_24
REMARK   13  A    between atoms: C_25  and  N_26
REMARK   14  A    between atoms: N_26  and  C_27
REMARK   15  A    between atoms: C_28  and  O_29
REMARK   16  A    between atoms: C_30  and  O_31
REMARK                            x       y       z     vdW  Elec       q    Type
REMARK                         _______ _______ _______ _____ _____    ______ ____
ROOT
ATOM      1  C   UNL     1      -8.035   6.626 131.170  0.00  0.00    +0.000 C 
ATOM      2  C   UNL     1      -7.902   6.008 132.667  0.00  0.00    +0.000 C 
ATOM      3  C   UNL     1      -7.497   4.494 132.791  0.00  0.00    +0.000 C 
ATOM      4  C   UNL     1      -8.051   3.525 131.735  0.00  0.00    +0.000 C 
ATOM      5  C   UNL     1      -8.363   4.050 130.296  0.00  0.00    +0.000 C 
ATOM      6  C   UNL     1      -8.768   5.594 130.217  0.00  0.00    +0.000 C 
ENDROOT
BRANCH   2   7
ATOM      7  N   UNL     1      -9.117   6.082 133.489  0.00  0.00    +0.000 NA
ATOM      8  H   UNL     1      -9.296   5.231 133.999  0.00  0.00    +0.000 HD
ATOM      9  H   UNL     1      -9.928   6.302 132.918  0.00  0.00    +0.000 HD
ENDBRANCH   2   7
BRANCH   4  10
ATOM     10  N   UNL     1      -9.226   2.886 132.335  0.00  0.00    +0.000 NA
ATOM     11  H   UNL     1      -9.225   2.972 133.343  0.00  0.00    +0.000 HD
ATOM     12  H   UNL     1      -9.163   1.883 132.152  0.00  0.00    +0.000 HD
ENDBRANCH   4  10
BRANCH   6  13
ATOM     13  O   UNL     1     -10.178   5.657 130.596  0.00  0.00    +0.000 OA
ATOM     14  H   UNL     1     -10.462   6.583 130.555  0.00  0.00    +0.000 HD
ENDBRANCH   6  13
BRANCH   1  15
ATOM     15  O   UNL     1      -6.851   7.420 130.589  0.00  0.00    +0.000 OA
BRANCH  15  20
ATOM     16  C   UNL     1      -4.081   4.840 129.564  0.00  0.00    +0.000 C 
ATOM     17  C   UNL     1      -2.864   6.086 129.691  0.00  0.00    +0.000 C 
ATOM     18  C   UNL     1      -3.086   7.220 130.711  0.00  0.00    +0.000 C 
ATOM     19  C   UNL     1      -4.498   7.617 130.534  0.00  0.00    +0.000 C 
ATOM     20  C   UNL     1      -5.633   6.620 130.389  0.00  0.00    +0.000 C 
ATOM     21  O   UNL     1      -5.385   5.585 129.388  0.00  0.00    +0.000 OA
BRANCH  19  22
ATOM     22  N   UNL     1      -4.437   8.813 129.702  0.00  0.00    +0.000 NA
ATOM     23  H   UNL     1      -4.646   8.514 128.751  0.00  0.00    +0.000 HD
ATOM     24  H   UNL     1      -3.467   9.146 129.669  0.00  0.00    +0.000 HD
ENDBRANCH  19  22
BRANCH  16  25
ATOM     25  C   UNL     1      -4.105   3.140 130.384  0.00  0.00    +0.000 C 
BRANCH  25  27
ATOM     26  C   UNL     1      -4.525   0.502 130.648  0.00  0.00    +0.000 C 
ATOM     27  N   UNL     1      -5.070   1.921 130.341  0.00  0.00    +0.000 NA
ATOM     28  H   UNL     1      -5.725   2.085 131.101  0.00  0.00    +0.000 HD
ENDBRANCH  25  27
ENDBRANCH  16  25
ENDBRANCH  15  20
ENDBRANCH   1  15
BRANCH   5  29
ATOM     29  O   UNL     1      -7.693   3.457 129.146  0.00  0.00    +0.000 OA
BRANCH  29  30
ATOM     30  C   UNL     1      -8.179   3.622 127.786  0.00  0.00    +0.000 C 
ATOM     31  O   UNL     1      -7.556   4.683 127.055  0.00  0.00    +0.000 OA
ATOM     32  C   UNL     1      -8.026   4.777 125.677  0.00  0.00    +0.000 C 
ATOM     33  C   UNL     1      -7.456   3.732 124.688  0.00  0.00    +0.000 C 
ATOM     34  C   UNL     1      -5.961   3.938 124.519  0.00  0.00    +0.000 C 
ATOM     35  C   UNL     1      -8.052   2.423 125.338  0.00  0.00    +0.000 C 
ATOM     36  C   UNL     1      -7.712   2.433 127.083  0.00  0.00    +0.000 C 
BRANCH  35  37
ATOM     37  N   UNL     1      -9.453   2.416 124.775  0.00  0.00    +0.000 NA
ATOM     38  C   UNL     1     -10.300   1.463 124.108  0.00  0.00    +0.000 C 
ATOM     39  H   UNL     1      -9.856   3.318 124.647  0.00  0.00    +0.000 HD
ENDBRANCH  35  37
BRANCH  33  40
ATOM     40  O   UNL     1      -7.958   3.912 123.309  0.00  0.00    +0.000 OA
ATOM     41  H   UNL     1      -8.162   3.139 122.912  0.00  0.00    +0.000 HD
ENDBRANCH  33  40
BRANCH  36  42
ATOM     42  O   UNL     1      -6.538   1.964 127.831  0.00  0.00    +0.000 OA
ATOM     43  H   UNL     1      -6.737   1.519 128.675  0.00  0.00    +0.000 HD
ENDBRANCH  36  42
ENDBRANCH  29  30
ENDBRANCH   5  29
TORSDOF 13
ENDMDL
MODEL 5
REMARK VINA RESULT:      -6.9      1.484      2.048
REMARK  Name = Micronomicin
REMARK  16 active torsions:
REMARK  status: ('A' for Active; 'I' for Inactive)
REMARK    1  A    between atoms: C_1  and  N_2
REMARK    2  A    between atoms: N_2  and  C_3
REMARK    3  A    between atoms: C_3  and  C_4
REMARK    4  A    between atoms: C_7  and  N_8
REMARK    5  A    between atoms: C_9  and  O_10
REMARK    6  A    between atoms: O_10  and  C_11
REMARK    7  A    between atoms: C_12  and  N_13
REMARK    8  A    between atoms: C_15  and  N_16
REMARK    9  A    between atoms: C_17  and  O_18
REMARK   10  A    between atoms: O_18  and  C_19
REMARK   11  A    between atoms: C_22  and  C_23
REMARK   12  A    between atoms: C_22  and  O_24
REMARK   13  A    between atoms: C_25  and  N_26
REMARK   14  A    between atoms: N_26  and  C_27
REMARK   15  A    between atoms: C_28  and  O_29
REMARK   16  A    between atoms: C_30  and  O_31
REMARK                            x       y       z     vdW  Elec       q    Type
REMARK                         _______ _______ _______ _____ _____    ______ ____
ROOT
ATOM      1  C   UNL     1      -8.335   3.456 124.225  0.00  0.00    +0.000 C 
ATOM      2  C   UNL     1      -6.808   3.181 123.743  0.00  0.00    +0.000 C 
ATOM      3  C   UNL     1      -5.797   2.641 124.819  0.00  0.00    +0.000 C 
ATOM      4  C   UNL     1      -5.940   3.173 126.254  0.00  0.00    +0.000 C 
ATOM      5  C   UNL     1      -7.346   3.615 126.775  0.00  0.00    +0.000 C 
ATOM      6  C   UNL     1      -8.341   4.154 125.647  0.00  0.00    +0.000 C 
ENDROOT
BRANCH   2   7
ATOM      7  N   UNL     1      -6.101   4.346 123.196  0.00  0.00    +0.000 NA
ATOM      8  H   UNL     1      -5.249   4.098 122.718  0.00  0.00    +0.000 HD
ATOM      9  H   UNL     1      -5.885   5.016 123.929  0.00  0.00    +0.000 HD
ENDBRANCH   2   7
BRANCH   4  10
ATOM     10  N   UNL     1      -4.956   4.251 126.396  0.00  0.00    +0.000 NA
ATOM     11  H   UNL     1      -5.110   4.988 125.720  0.00  0.00    +0.000 HD
ATOM     12  H   UNL     1      -4.037   3.867 126.167  0.00  0.00    +0.000 HD
ENDBRANCH   4  10
BRANCH   6  13
ATOM     13  O   UNL     1      -7.947   5.539 125.397  0.00  0.00    +0.000 OA
ATOM     14  H   UNL     1      -7.803   5.972 126.253  0.00  0.00    +0.000 HD
ENDBRANCH   6  13
BRANCH   1  15
ATOM     15  O   UNL     1      -9.403   2.381 123.950  0.00  0.00    +0.000 OA
BRANCH  15  20
ATOM     16  C   UNL     1      -8.737  -0.917 125.965  0.00  0.00    +0.000 C 
ATOM     17  C   UNL     1      -9.029  -1.863 124.527  0.00  0.00    +0.000 C 
ATOM     18  C   UNL     1      -8.685  -1.237 123.160  0.00  0.00    +0.000 C 
ATOM     19  C   UNL     1      -9.217   0.140 123.231  0.00  0.00    +0.000 C 
ATOM     20  C   UNL     1      -9.044   1.041 124.438  0.00  0.00    +0.000 C 
ATOM     21  O   UNL     1      -9.413   0.410 125.704  0.00  0.00    +0.000 OA
BRANCH  19  22
ATOM     22  N   UNL     1     -10.488   0.074 122.518  0.00  0.00    +0.000 NA
ATOM     23  H   UNL     1     -10.286  -0.329 121.605  0.00  0.00    +0.000 HD
ATOM     24  H   UNL     1     -10.809   1.028 122.323  0.00  0.00    +0.000 HD
ENDBRANCH  19  22
BRANCH  16  25
ATOM     25  C   UNL     1      -7.241  -0.968 127.114  0.00  0.00    +0.000 C 
BRANCH  25  27
ATOM     26  C   UNL     1      -5.294  -0.358 128.860  0.00  0.00    +0.000 C 
ATOM     27  N   UNL     1      -6.567   0.053 128.076  0.00  0.00    +0.000 NA
ATOM     28  H   UNL     1      -6.232   0.796 127.468  0.00  0.00    +0.000 HD
ENDBRANCH  25  27
ENDBRANCH  16  25
ENDBRANCH  15  20
ENDBRANCH   1  15
BRANCH   5  29
ATOM     29  O   UNL     1      -7.921   2.966 127.945  0.00  0.00    +0.000 OA
BRANCH  29  30
ATOM     30  C   UNL     1      -8.557   3.712 129.019  0.00  0.00    +0.000 C 
ATOM     31  O   UNL     1      -9.659   3.039 129.640  0.00  0.00    +0.000 OA
ATOM     32  C   UNL     1     -10.230   3.792 130.752  0.00  0.00    +0.000 C 
ATOM     33  C   UNL     1      -9.435   3.761 132.079  0.00  0.00    +0.000 C 
ATOM     34  C   UNL     1      -9.415   2.349 132.640  0.00  0.00    +0.000 C 
ATOM     35  C   UNL     1      -8.120   4.489 131.598  0.00  0.00    +0.000 C 
ATOM     36  C   UNL     1      -7.562   3.744 130.084  0.00  0.00    +0.000 C 
BRANCH  35  37
ATOM     37  N   UNL     1      -8.524   5.940 131.698  0.00  0.00    +0.000 NA
ATOM     38  C   UNL     1      -8.555   7.074 130.813  0.00  0.00    +0.000 C 
ATOM     39  H   UNL     1      -8.624   6.283 132.629  0.00  0.00    +0.000 HD
ENDBRANCH  35  37
BRANCH  33  40
ATOM     40  O   UNL     1     -10.093   4.522 133.162  0.00  0.00    +0.000 OA
ATOM     41  H   UNL     1     -10.266   4.022 133.880  0.00  0.00    +0.000 HD
ENDBRANCH  33  40
BRANCH  36  42
ATOM     42  O   UNL     1      -6.696   2.579 129.854  0.00  0.00    +0.000 OA
ATOM     43  H   UNL     1      -7.097   1.718 130.073  0.00  0.00    +0.000 HD
ENDBRANCH  36  42
ENDBRANCH  29  30
ENDBRANCH   5  29
TORSDOF 13
ENDMDL
MODEL 6
REMARK VINA RESULT:      -6.8      2.455      7.217
REMARK  Name = Micronomicin
REMARK  16 active torsions:
REMARK  status: ('A' for Active; 'I' for Inactive)
REMARK    1  A    between atoms: C_1  and  N_2
REMARK    2  A    between atoms: N_2  and  C_3
REMARK    3  A    between atoms: C_3  and  C_4
REMARK    4  A    between atoms: C_7  and  N_8
REMARK    5  A    between atoms: C_9  and  O_10
REMARK    6  A    between atoms: O_10  and  C_11
REMARK    7  A    between atoms: C_12  and  N_13
REMARK    8  A    between atoms: C_15  and  N_16
REMARK    9  A    between atoms: C_17  and  O_18
REMARK   10  A    between atoms: O_18  and  C_19
REMARK   11  A    between atoms: C_22  and  C_23
REMARK   12  A    between atoms: C_22  and  O_24
REMARK   13  A    between atoms: C_25  and  N_26
REMARK   14  A    between atoms: N_26  and  C_27
REMARK   15  A    between atoms: C_28  and  O_29
REMARK   16  A    between atoms: C_30  and  O_31
REMARK                            x       y       z     vdW  Elec       q    Type
REMARK                         _______ _______ _______ _____ _____    ______ ____
ROOT
ATOM      1  C   UNL     1      -7.677   6.451 131.232  0.00  0.00    +0.000 C 
ATOM      2  C   UNL     1      -7.348   5.066 132.015  0.00  0.00    +0.000 C 
ATOM      3  C   UNL     1      -7.372   3.738 131.174  0.00  0.00    +0.000 C 
ATOM      4  C   UNL     1      -8.429   3.622 130.065  0.00  0.00    +0.000 C 
ATOM      5  C   UNL     1      -8.936   4.915 129.346  0.00  0.00    +0.000 C 
ATOM      6  C   UNL     1      -8.890   6.240 130.237  0.00  0.00    +0.000 C 
ENDROOT
BRANCH   2   7
ATOM      7  N   UNL     1      -8.239   4.750 133.138  0.00  0.00    +0.000 NA
ATOM      8  H   UNL     1      -8.985   5.420 133.245  0.00  0.00    +0.000 HD
ATOM      9  H   UNL     1      -7.719   4.693 134.009  0.00  0.00    +0.000 HD
ENDBRANCH   2   7
BRANCH   4  10
ATOM     10  N   UNL     1      -9.544   2.858 130.633  0.00  0.00    +0.000 NA
ATOM     11  H   UNL     1      -9.225   2.012 131.087  0.00  0.00    +0.000 HD
ATOM     12  H   UNL     1     -10.130   2.539 129.858  0.00  0.00    +0.000 HD
ENDBRANCH   4  10
BRANCH   6  13
ATOM     13  O   UNL     1     -10.079   6.191 131.086  0.00  0.00    +0.000 OA
ATOM     14  H   UNL     1      -9.874   6.641 131.920  0.00  0.00    +0.000 HD
ENDBRANCH   6  13
BRANCH   1  15
ATOM     15  O   UNL     1      -6.505   7.329 130.757  0.00  0.00    +0.000 OA
BRANCH  15  20
ATOM     16  C   UNL     1      -3.973   4.879 129.034  0.00  0.00    +0.000 C 
ATOM     17  C   UNL     1      -2.760   6.134 129.016  0.00  0.00    +0.000 C 
ATOM     18  C   UNL     1      -2.786   7.189 130.140  0.00  0.00    +0.000 C 
ATOM     19  C   UNL     1      -4.207   7.571 130.266  0.00  0.00    +0.000 C 
ATOM     20  C   UNL     1      -5.345   6.568 130.269  0.00  0.00    +0.000 C 
ATOM     21  O   UNL     1      -5.290   5.610 129.165  0.00  0.00    +0.000 OA
BRANCH  19  22
ATOM     22  N   UNL     1      -4.312   8.825 129.528  0.00  0.00    +0.000 NA
ATOM     23  H   UNL     1      -3.575   9.431 129.882  0.00  0.00    +0.000 HD
ATOM     24  H   UNL     1      -5.188   9.291 129.788  0.00  0.00    +0.000 HD
ENDBRANCH  19  22
BRANCH  16  25
ATOM     25  C   UNL     1      -3.832   3.125 129.716  0.00  0.00    +0.000 C 
BRANCH  25  27
ATOM     26  C   UNL     1      -5.362   1.279 128.508  0.00  0.00    +0.000 C 
ATOM     27  N   UNL     1      -3.998   1.701 129.111  0.00  0.00    +0.000 NA
ATOM     28  H   UNL     1      -3.378   1.690 128.305  0.00  0.00    +0.000 HD
ENDBRANCH  25  27
ENDBRANCH  16  25
ENDBRANCH  15  20
ENDBRANCH   1  15
BRANCH   5  29
ATOM     29  O   UNL     1      -8.778   5.051 127.904  0.00  0.00    +0.000 OA
BRANCH  29  30
ATOM     30  C   UNL     1      -7.972   4.134 127.115  0.00  0.00    +0.000 C 
ATOM     31  O   UNL     1      -8.642   2.928 126.734  0.00  0.00    +0.000 OA
ATOM     32  C   UNL     1      -7.821   2.063 125.893  0.00  0.00    +0.000 C 
ATOM     33  C   UNL     1      -7.685   2.481 124.409  0.00  0.00    +0.000 C 
ATOM     34  C   UNL     1      -9.036   2.393 123.719  0.00  0.00    +0.000 C 
ATOM     35  C   UNL     1      -6.935   3.856 124.606  0.00  0.00    +0.000 C 
ATOM     36  C   UNL     1      -7.787   4.814 125.838  0.00  0.00    +0.000 C 
BRANCH  35  37
ATOM     37  N   UNL     1      -5.505   3.400 124.765  0.00  0.00    +0.000 NA
ATOM     38  C   UNL     1      -4.433   3.644 125.694  0.00  0.00    +0.000 C 
ATOM     39  H   UNL     1      -5.111   2.972 123.956  0.00  0.00    +0.000 HD
ENDBRANCH  35  37
BRANCH  33  40
ATOM     40  O   UNL     1      -6.864   1.541 123.618  0.00  0.00    +0.000 OA
ATOM     41  H   UNL     1      -5.994   1.598 123.807  0.00  0.00    +0.000 HD
ENDBRANCH  33  40
BRANCH  36  42
ATOM     42  O   UNL     1      -8.919   5.741 125.713  0.00  0.00    +0.000 OA
ATOM     43  H   UNL     1      -8.685   6.640 125.420  0.00  0.00    +0.000 HD
ENDBRANCH  36  42
ENDBRANCH  29  30
ENDBRANCH   5  29
TORSDOF 13
ENDMDL
MODEL 7
REMARK VINA RESULT:      -6.8      2.002      2.428
REMARK  Name = Micronomicin
REMARK  16 active torsions:
REMARK  status: ('A' for Active; 'I' for Inactive)
REMARK    1  A    between atoms: C_1  and  N_2
REMARK    2  A    between atoms: N_2  and  C_3
REMARK    3  A    between atoms: C_3  and  C_4
REMARK    4  A    between atoms: C_7  and  N_8
REMARK    5  A    between atoms: C_9  and  O_10
REMARK    6  A    between atoms: O_10  and  C_11
REMARK    7  A    between atoms: C_12  and  N_13
REMARK    8  A    between atoms: C_15  and  N_16
REMARK    9  A    between atoms: C_17  and  O_18
REMARK   10  A    between atoms: O_18  and  C_19
REMARK   11  A    between atoms: C_22  and  C_23
REMARK   12  A    between atoms: C_22  and  O_24
REMARK   13  A    between atoms: C_25  and  N_26
REMARK   14  A    between atoms: N_26  and  C_27
REMARK   15  A    between atoms: C_28  and  O_29
REMARK   16  A    between atoms: C_30  and  O_31
REMARK                            x       y       z     vdW  Elec       q    Type
REMARK                         _______ _______ _______ _____ _____    ______ ____
ROOT
ATOM      1  C   UNL     1      -7.922   1.511 123.724  0.00  0.00    +0.000 C 
ATOM      2  C   UNL     1      -7.303   2.796 122.945  0.00  0.00    +0.000 C 
ATOM      3  C   UNL     1      -6.496   3.839 123.800  0.00  0.00    +0.000 C 
ATOM      4  C   UNL     1      -6.995   4.122 125.226  0.00  0.00    +0.000 C 
ATOM      5  C   UNL     1      -7.745   3.001 126.016  0.00  0.00    +0.000 C 
ATOM      6  C   UNL     1      -8.550   1.962 125.107  0.00  0.00    +0.000 C 
ENDROOT
BRANCH   2   7
ATOM      7  N   UNL     1      -8.281   3.641 122.249  0.00  0.00    +0.000 NA
ATOM      8  H   UNL     1      -9.136   3.153 122.032  0.00  0.00    +0.000 HD
ATOM      9  H   UNL     1      -7.889   4.016 121.389  0.00  0.00    +0.000 HD
ENDBRANCH   2   7
BRANCH   4  10
ATOM     10  N   UNL     1      -7.797   5.347 125.149  0.00  0.00    +0.000 NA
ATOM     11  H   UNL     1      -7.416   6.081 125.732  0.00  0.00    +0.000 HD
ATOM     12  H   UNL     1      -8.716   5.142 125.545  0.00  0.00    +0.000 HD
ENDBRANCH   4  10
BRANCH   6  13
ATOM     13  O   UNL     1      -9.806   2.624 124.761  0.00  0.00    +0.000 OA
ATOM     14  H   UNL     1     -10.352   2.673 125.561  0.00  0.00    +0.000 HD
ENDBRANCH   6  13
BRANCH   1  15
ATOM     15  O   UNL     1      -7.149   0.181 123.688  0.00  0.00    +0.000 OA
BRANCH  15  20
ATOM     16  C   UNL     1      -8.478  -1.870 126.756  0.00  0.00    +0.000 C 
ATOM     17  C   UNL     1      -9.381  -2.907 125.681  0.00  0.00    +0.000 C 
ATOM     18  C   UNL     1      -8.823  -3.151 124.264  0.00  0.00    +0.000 C 
ATOM     19  C   UNL     1      -8.408  -1.815 123.787  0.00  0.00    +0.000 C 
ATOM     20  C   UNL     1      -7.642  -0.824 124.643  0.00  0.00    +0.000 C 
ATOM     21  O   UNL     1      -8.230  -0.606 125.963  0.00  0.00    +0.000 OA
BRANCH  19  22
ATOM     22  N   UNL     1      -9.505  -1.379 122.930  0.00  0.00    +0.000 NA
ATOM     23  H   UNL     1      -9.452  -1.942 122.084  0.00  0.00    +0.000 HD
ATOM     24  H   UNL     1      -9.323  -0.418 122.621  0.00  0.00    +0.000 HD
ENDBRANCH  19  22
BRANCH  16  25
ATOM     25  C   UNL     1      -7.243  -2.364 128.095  0.00  0.00    +0.000 C 
BRANCH  25  27
ATOM     26  C   UNL     1      -7.707  -1.743 130.665  0.00  0.00    +0.000 C 
ATOM     27  N   UNL     1      -6.768  -1.726 129.432  0.00  0.00    +0.000 NA
ATOM     28  H   UNL     1      -5.987  -2.304 129.730  0.00  0.00    +0.000 HD
ENDBRANCH  25  27
ENDBRANCH  16  25
ENDBRANCH  15  20
ENDBRANCH   1  15
BRANCH   5  29
ATOM     29  O   UNL     1      -7.214   2.532 127.289  0.00  0.00    +0.000 OA
BRANCH  29  30
ATOM     30  C   UNL     1      -7.491   3.204 128.548  0.00  0.00    +0.000 C 
ATOM     31  O   UNL     1      -8.671   4.014 128.544  0.00  0.00    +0.000 OA
ATOM     32  C   UNL     1      -8.947   4.622 129.842  0.00  0.00    +0.000 C 
ATOM     33  C   UNL     1      -9.562   3.692 130.916  0.00  0.00    +0.000 C 
ATOM     34  C   UNL     1     -10.947   3.243 130.484  0.00  0.00    +0.000 C 
ATOM     35  C   UNL     1      -8.365   2.675 131.078  0.00  0.00    +0.000 C 
ATOM     36  C   UNL     1      -7.842   2.130 129.469  0.00  0.00    +0.000 C 
BRANCH  35  37
ATOM     37  N   UNL     1      -7.459   3.422 132.026  0.00  0.00    +0.000 NA
ATOM     38  C   UNL     1      -6.055   3.728 132.097  0.00  0.00    +0.000 C 
ATOM     39  H   UNL     1      -7.853   3.605 132.923  0.00  0.00    +0.000 HD
ENDBRANCH  35  37
BRANCH  33  40
ATOM     40  O   UNL     1      -9.838   4.388 132.190  0.00  0.00    +0.000 OA
ATOM     41  H   UNL     1     -10.582   4.099 132.588  0.00  0.00    +0.000 HD
ENDBRANCH  33  40
BRANCH  36  42
ATOM     42  O   UNL     1      -8.330   1.028 128.627  0.00  0.00    +0.000 OA
ATOM     43  H   UNL     1      -9.165   1.207 128.157  0.00  0.00    +0.000 HD
ENDBRANCH  36  42
ENDBRANCH  29  30
ENDBRANCH   5  29
TORSDOF 13
ENDMDL
MODEL 8
REMARK VINA RESULT:      -6.8      1.936      3.958
REMARK  Name = Micronomicin
REMARK  16 active torsions:
REMARK  status: ('A' for Active; 'I' for Inactive)
REMARK    1  A    between atoms: C_1  and  N_2
REMARK    2  A    between atoms: N_2  and  C_3
REMARK    3  A    between atoms: C_3  and  C_4
REMARK    4  A    between atoms: C_7  and  N_8
REMARK    5  A    between atoms: C_9  and  O_10
REMARK    6  A    between atoms: O_10  and  C_11
REMARK    7  A    between atoms: C_12  and  N_13
REMARK    8  A    between atoms: C_15  and  N_16
REMARK    9  A    between atoms: C_17  and  O_18
REMARK   10  A    between atoms: O_18  and  C_19
REMARK   11  A    between atoms: C_22  and  C_23
REMARK   12  A    between atoms: C_22  and  O_24
REMARK   13  A    between atoms: C_25  and  N_26
REMARK   14  A    between atoms: N_26  and  C_27
REMARK   15  A    between atoms: C_28  and  O_29
REMARK   16  A    between atoms: C_30  and  O_31
REMARK                            x       y       z     vdW  Elec       q    Type
REMARK                         _______ _______ _______ _____ _____    ______ ____
ROOT
ATOM      1  C   UNL     1      -6.839   1.654 127.158  0.00  0.00    +0.000 C 
ATOM      2  C   UNL     1      -6.266   0.663 128.312  0.00  0.00    +0.000 C 
ATOM      3  C   UNL     1      -6.026   1.277 129.739  0.00  0.00    +0.000 C 
ATOM      4  C   UNL     1      -5.509   2.723 129.808  0.00  0.00    +0.000 C 
ATOM      5  C   UNL     1      -5.872   3.727 128.666  0.00  0.00    +0.000 C 
ATOM      6  C   UNL     1      -6.110   3.058 127.235  0.00  0.00    +0.000 C 
ENDROOT
BRANCH   2   7
ATOM      7  N   UNL     1      -4.974   0.031 128.014  0.00  0.00    +0.000 NA
ATOM      8  H   UNL     1      -4.252   0.701 127.798  0.00  0.00    +0.000 HD
ATOM      9  H   UNL     1      -5.060  -0.623 127.241  0.00  0.00    +0.000 HD
ENDBRANCH   2   7
BRANCH   4  10
ATOM     10  N   UNL     1      -4.058   2.635 129.998  0.00  0.00    +0.000 NA
ATOM     11  H   UNL     1      -3.623   2.053 129.294  0.00  0.00    +0.000 HD
ATOM     12  H   UNL     1      -3.888   2.154 130.884  0.00  0.00    +0.000 HD
ENDBRANCH   4  10
BRANCH   6  13
ATOM     13  O   UNL     1      -4.779   2.831 126.675  0.00  0.00    +0.000 OA
ATOM     14  H   UNL     1      -4.750   3.232 125.791  0.00  0.00    +0.000 HD
ENDBRANCH   6  13
BRANCH   1  15
ATOM     15  O   UNL     1      -8.349   1.646 126.858  0.00  0.00    +0.000 OA
BRANCH  15  20
ATOM     16  C   UNL     1      -9.795   0.398 123.433  0.00  0.00    +0.000 C 
ATOM     17  C   UNL     1      -9.437   1.946 122.710  0.00  0.00    +0.000 C 
ATOM     18  C   UNL     1      -8.231   2.742 123.251  0.00  0.00    +0.000 C 
ATOM     19  C   UNL     1      -8.347   2.650 124.721  0.00  0.00    +0.000 C 
ATOM     20  C   UNL     1      -8.678   1.363 125.453  0.00  0.00    +0.000 C 
ATOM     21  O   UNL     1      -9.847   0.665 124.921  0.00  0.00    +0.000 OA
BRANCH  19  22
ATOM     22  N   UNL     1      -8.951   3.917 125.117  0.00  0.00    +0.000 NA
ATOM     23  H   UNL     1      -9.341   3.773 126.046  0.00  0.00    +0.000 HD
ATOM     24  H   UNL     1      -9.761   4.102 124.515  0.00  0.00    +0.000 HD
ENDBRANCH  19  22
BRANCH  16  25
ATOM     25  C   UNL     1      -9.294  -1.319 122.831  0.00  0.00    +0.000 C 
BRANCH  25  27
ATOM     26  C   UNL     1      -8.765  -3.479 124.334  0.00  0.00    +0.000 C 
ATOM     27  N   UNL     1      -9.638  -2.772 123.266  0.00  0.00    +0.000 NA
ATOM     28  H   UNL     1     -10.543  -2.696 123.723  0.00  0.00    +0.000 HD
ENDBRANCH  25  27
ENDBRANCH  16  25
ENDBRANCH  15  20
ENDBRANCH   1  15
BRANCH   5  29
ATOM     29  O   UNL     1      -6.597   4.951 128.981  0.00  0.00    +0.000 OA
BRANCH  29  30
ATOM     30  C   UNL     1      -7.504   5.055 130.112  0.00  0.00    +0.000 C 
ATOM     31  O   UNL     1      -7.910   6.390 130.429  0.00  0.00    +0.000 OA
ATOM     32  C   UNL     1      -8.867   6.446 131.529  0.00  0.00    +0.000 C 
ATOM     33  C   UNL     1     -10.326   6.061 131.187  0.00  0.00    +0.000 C 
ATOM     34  C   UNL     1     -10.915   7.067 130.213  0.00  0.00    +0.000 C 
ATOM     35  C   UNL     1     -10.098   4.550 130.793  0.00  0.00    +0.000 C 
ATOM     36  C   UNL     1      -8.744   4.445 129.645  0.00  0.00    +0.000 C 
BRANCH  35  37
ATOM     37  N   UNL     1     -10.079   3.883 132.147  0.00  0.00    +0.000 NA
ATOM     38  C   UNL     1      -9.329   2.828 132.776  0.00  0.00    +0.000 C 
ATOM     39  H   UNL     1     -10.883   4.057 132.709  0.00  0.00    +0.000 HD
ENDBRANCH  35  37
BRANCH  33  40
ATOM     40  O   UNL     1     -11.238   6.171 132.346  0.00  0.00    +0.000 OA
ATOM     41  H   UNL     1     -11.916   5.593 132.308  0.00  0.00    +0.000 HD
ENDBRANCH  33  40
BRANCH  36  42
ATOM     42  O   UNL     1      -8.720   4.566 128.181  0.00  0.00    +0.000 OA
ATOM     43  H   UNL     1      -8.045   4.024 127.734  0.00  0.00    +0.000 HD
ENDBRANCH  36  42
ENDBRANCH  29  30
ENDBRANCH   5  29
TORSDOF 13
ENDMDL
MODEL 9
REMARK VINA RESULT:      -6.8      2.917      6.465
REMARK  Name = Micronomicin
REMARK  16 active torsions:
REMARK  status: ('A' for Active; 'I' for Inactive)
REMARK    1  A    between atoms: C_1  and  N_2
REMARK    2  A    between atoms: N_2  and  C_3
REMARK    3  A    between atoms: C_3  and  C_4
REMARK    4  A    between atoms: C_7  and  N_8
REMARK    5  A    between atoms: C_9  and  O_10
REMARK    6  A    between atoms: O_10  and  C_11
REMARK    7  A    between atoms: C_12  and  N_13
REMARK    8  A    between atoms: C_15  and  N_16
REMARK    9  A    between atoms: C_17  and  O_18
REMARK   10  A    between atoms: O_18  and  C_19
REMARK   11  A    between atoms: C_22  and  C_23
REMARK   12  A    between atoms: C_22  and  O_24
REMARK   13  A    between atoms: C_25  and  N_26
REMARK   14  A    between atoms: N_26  and  C_27
REMARK   15  A    between atoms: C_28  and  O_29
REMARK   16  A    between atoms: C_30  and  O_31
REMARK                            x       y       z     vdW  Elec       q    Type
REMARK                         _______ _______ _______ _____ _____    ______ ____
ROOT
ATOM      1  C   UNL     1      -9.016   4.631 129.095  0.00  0.00    +0.000 C 
ATOM      2  C   UNL     1     -10.196   5.552 129.727  0.00  0.00    +0.000 C 
ATOM      3  C   UNL     1      -9.851   6.386 131.013  0.00  0.00    +0.000 C 
ATOM      4  C   UNL     1      -8.909   5.742 132.042  0.00  0.00    +0.000 C 
ATOM      5  C   UNL     1      -7.829   4.717 131.563  0.00  0.00    +0.000 C 
ATOM      6  C   UNL     1      -8.221   3.894 130.250  0.00  0.00    +0.000 C 
ENDROOT
BRANCH   2   7
ATOM      7  N   UNL     1     -11.410   4.830 130.129  0.00  0.00    +0.000 NA
ATOM      8  H   UNL     1     -11.219   4.056 130.745  0.00  0.00    +0.000 HD
ATOM      9  H   UNL     1     -11.914   4.487 129.316  0.00  0.00    +0.000 HD
ENDBRANCH   2   7
BRANCH   4  10
ATOM     10  N   UNL     1      -9.764   5.165 133.084  0.00  0.00    +0.000 NA
ATOM     11  H   UNL     1      -9.252   5.003 133.941  0.00  0.00    +0.000 HD
ATOM     12  H   UNL     1     -10.057   4.238 132.768  0.00  0.00    +0.000 HD
ENDBRANCH   4  10
BRANCH   6  13
ATOM     13  O   UNL     1      -9.106   2.821 130.702  0.00  0.00    +0.000 OA
ATOM     14  H   UNL     1      -8.940   2.669 131.645  0.00  0.00    +0.000 HD
ENDBRANCH   6  13
BRANCH   1  15
ATOM     15  O   UNL     1      -8.206   5.178 127.905  0.00  0.00    +0.000 OA
BRANCH  15  20
ATOM     16  C   UNL     1      -8.435   2.965 124.675  0.00  0.00    +0.000 C 
ATOM     17  C   UNL     1      -6.693   2.866 124.611  0.00  0.00    +0.000 C 
ATOM     18  C   UNL     1      -5.911   2.921 125.939  0.00  0.00    +0.000 C 
ATOM     19  C   UNL     1      -6.536   4.022 126.700  0.00  0.00    +0.000 C 
ATOM     20  C   UNL     1      -8.037   4.218 126.804  0.00  0.00    +0.000 C 
ATOM     21  O   UNL     1      -8.726   4.188 125.515  0.00  0.00    +0.000 OA
BRANCH  19  22
ATOM     22  N   UNL     1      -5.642   5.157 126.499  0.00  0.00    +0.000 NA
ATOM     23  H   UNL     1      -4.788   4.782 126.089  0.00  0.00    +0.000 HD
ATOM     24  H   UNL     1      -5.359   5.523 127.414  0.00  0.00    +0.000 HD
ENDBRANCH  19  22
BRANCH  16  25
ATOM     25  C   UNL     1      -9.688   1.554 124.654  0.00  0.00    +0.000 C 
BRANCH  25  27
ATOM     26  C   UNL     1     -10.163   0.247 122.357  0.00  0.00    +0.000 C 
ATOM     27  N   UNL     1     -10.694   1.002 123.603  0.00  0.00    +0.000 NA
ATOM     28  H   UNL     1     -11.218   0.286 124.099  0.00  0.00    +0.000 HD
ENDBRANCH  25  27
ENDBRANCH  16  25
ENDBRANCH  15  20
ENDBRANCH   1  15
BRANCH   5  29
ATOM     29  O   UNL     1      -6.419   4.981 131.812  0.00  0.00    +0.000 OA
BRANCH  29  30
ATOM     30  C   UNL     1      -5.481   5.296 130.747  0.00  0.00    +0.000 C 
ATOM     31  O   UNL     1      -4.871   6.586 130.853  0.00  0.00    +0.000 OA
ATOM     32  C   UNL     1      -3.892   6.841 129.801  0.00  0.00    +0.000 C 
ATOM     33  C   UNL     1      -2.516   6.152 129.966  0.00  0.00    +0.000 C 
ATOM     34  C   UNL     1      -1.803   6.701 131.190  0.00  0.00    +0.000 C 
ATOM     35  C   UNL     1      -2.980   4.646 129.873  0.00  0.00    +0.000 C 
ATOM     36  C   UNL     1      -4.359   4.392 130.965  0.00  0.00    +0.000 C 
BRANCH  35  37
ATOM     37  N   UNL     1      -3.069   4.449 128.379  0.00  0.00    +0.000 NA
ATOM     38  C   UNL     1      -2.552   3.507 127.422  0.00  0.00    +0.000 C 
ATOM     39  H   UNL     1      -3.403   5.240 127.872  0.00  0.00    +0.000 HD
ENDBRANCH  35  37
BRANCH  33  40
ATOM     40  O   UNL     1      -1.573   6.482 128.876  0.00  0.00    +0.000 OA
ATOM     41  H   UNL     1      -1.225   7.299 128.957  0.00  0.00    +0.000 HD
ENDBRANCH  33  40
BRANCH  36  42
ATOM     42  O   UNL     1      -4.396   4.049 132.394  0.00  0.00    +0.000 OA
ATOM     43  H   UNL     1      -3.607   3.587 132.727  0.00  0.00    +0.000 HD
ENDBRANCH  36  42
ENDBRANCH  29  30
ENDBRANCH   5  29
TORSDOF 13
ENDMDL
