MODEL 1
REMARK VINA RESULT:      -7.8      0.000      0.000
REMARK  Name = Midazolam
REMARK  2 active torsions:
REMARK  status: ('A' for Active; 'I' for Inactive)
REMARK    1  A    between atoms: C_1  and  C_2
REMARK    2  A    between atoms: C_8  and  C_9
REMARK                            x       y       z     vdW  Elec       q    Type
REMARK                         _______ _______ _______ _____ _____    ______ ____
ROOT
ATOM      1  C   UNL     1      -9.872   1.287 123.916  0.00  0.00    +0.000 C 
ATOM      2  C   UNL     1      -9.187   0.031 123.502  0.00  0.00    +0.000 A 
ATOM      3  N   UNL     1      -9.749  -0.872 122.721  0.00  0.00    +0.000 NA
ATOM      4  C   UNL     1      -8.887  -1.927 122.686  0.00  0.00    +0.000 A 
ATOM      5  C   UNL     1      -7.775  -1.677 123.452  0.00  0.00    +0.000 A 
ATOM      6  C   UNL     1      -6.566  -2.491 123.686  0.00  0.00    +0.000 C 
ATOM      7  N   UNL     1      -6.460  -2.800 125.099  0.00  0.00    +0.000 NA
ATOM      8  C   UNL     1      -6.260  -1.851 125.952  0.00  0.00    +0.000 C 
ATOM      9  C   UNL     1      -6.133  -0.388 125.633  0.00  0.00    +0.000 A 
ATOM     10  C   UNL     1      -6.986   0.289 124.743  0.00  0.00    +0.000 A 
ATOM     11  C   UNL     1      -6.852   1.678 124.583  0.00  0.00    +0.000 A 
ATOM     12  C   UNL     1      -5.907   2.399 125.312  0.00  0.00    +0.000 A 
ATOM     13  C   UNL     1      -5.063   1.731 126.185  0.00  0.00    +0.000 A 
ATOM     14 CL   UNL     1      -3.876   2.616 127.057  0.00  0.00    +0.000 Cl
ATOM     15  C   UNL     1      -5.165   0.349 126.347  0.00  0.00    +0.000 A 
ATOM     16  N   UNL     1      -7.945  -0.406 123.962  0.00  0.00    +0.000 N 
ENDROOT
BRANCH   8  17
ATOM     17  C   UNL     1      -6.170  -2.234 127.381  0.00  0.00    +0.000 A 
ATOM     18  C   UNL     1      -4.918  -2.508 127.943  0.00  0.00    +0.000 A 
ATOM     19  C   UNL     1      -4.846  -3.083 129.211  0.00  0.00    +0.000 A 
ATOM     20  C   UNL     1      -6.012  -3.288 129.953  0.00  0.00    +0.000 A 
ATOM     21  C   UNL     1      -7.249  -2.901 129.434  0.00  0.00    +0.000 A 
ATOM     22  C   UNL     1      -7.329  -2.414 128.133  0.00  0.00    +0.000 A 
ATOM     23  F   UNL     1      -8.541  -2.200 127.600  0.00  0.00    +0.000 F 
ENDBRANCH   8  17
TORSDOF 1
ENDMDL
MODEL 2
REMARK VINA RESULT:      -7.8      3.705      5.715
REMARK  Name = Midazolam
REMARK  2 active torsions:
REMARK  status: ('A' for Active; 'I' for Inactive)
REMARK    1  A    between atoms: C_1  and  C_2
REMARK    2  A    between atoms: C_8  and  C_9
REMARK                            x       y       z     vdW  Elec       q    Type
REMARK                         _______ _______ _______ _____ _____    ______ ____
ROOT
ATOM      1  C   UNL     1      -2.989   3.512 126.331  0.00  0.00    +0.000 C 
ATOM      2  C   UNL     1      -4.322   3.330 126.971  0.00  0.00    +0.000 A 
ATOM      3  N   UNL     1      -4.486   3.231 128.276  0.00  0.00    +0.000 NA
ATOM      4  C   UNL     1      -5.802   2.931 128.467  0.00  0.00    +0.000 A 
ATOM      5  C   UNL     1      -6.464   2.845 127.267  0.00  0.00    +0.000 A 
ATOM      6  C   UNL     1      -7.887   2.587 126.972  0.00  0.00    +0.000 C 
ATOM      7  N   UNL     1      -8.005   1.373 126.187  0.00  0.00    +0.000 NA
ATOM      8  C   UNL     1      -7.515   1.329 124.993  0.00  0.00    +0.000 C 
ATOM      9  C   UNL     1      -6.790   2.443 124.293  0.00  0.00    +0.000 A 
ATOM     10  C   UNL     1      -5.802   3.233 124.909  0.00  0.00    +0.000 A 
ATOM     11  C   UNL     1      -5.108   4.187 124.146  0.00  0.00    +0.000 A 
ATOM     12  C   UNL     1      -5.363   4.343 122.784  0.00  0.00    +0.000 A 
ATOM     13  C   UNL     1      -6.340   3.569 122.179  0.00  0.00    +0.000 A 
ATOM     14 CL   UNL     1      -6.678   3.787 120.508  0.00  0.00    +0.000 Cl
ATOM     15  C   UNL     1      -7.055   2.628 122.920  0.00  0.00    +0.000 A 
ATOM     16  N   UNL     1      -5.525   3.126 126.297  0.00  0.00    +0.000 N 
ENDROOT
BRANCH   8  17
ATOM     17  C   UNL     1      -7.662   0.055 124.249  0.00  0.00    +0.000 A 
ATOM     18  C   UNL     1      -6.547  -0.774 124.079  0.00  0.00    +0.000 A 
ATOM     19  C   UNL     1      -6.622  -1.851 123.196  0.00  0.00    +0.000 A 
ATOM     20  C   UNL     1      -7.832  -2.157 122.568  0.00  0.00    +0.000 A 
ATOM     21  C   UNL     1      -8.972  -1.396 122.835  0.00  0.00    +0.000 A 
ATOM     22  C   UNL     1      -8.874  -0.267 123.643  0.00  0.00    +0.000 A 
ATOM     23  F   UNL     1      -9.942   0.536 123.757  0.00  0.00    +0.000 F 
ENDBRANCH   8  17
TORSDOF 1
ENDMDL
MODEL 3
REMARK VINA RESULT:      -7.7      3.554      5.673
REMARK  Name = Midazolam
REMARK  2 active torsions:
REMARK  status: ('A' for Active; 'I' for Inactive)
REMARK    1  A    between atoms: C_1  and  C_2
REMARK    2  A    between atoms: C_8  and  C_9
REMARK                            x       y       z     vdW  Elec       q    Type
REMARK                         _______ _______ _______ _____ _____    ______ ____
ROOT
ATOM      1  C   UNL     1      -3.129   3.081 126.635  0.00  0.00    +0.000 C 
ATOM      2  C   UNL     1      -4.491   2.884 127.205  0.00  0.00    +0.000 A 
ATOM      3  N   UNL     1      -4.709   2.671 128.489  0.00  0.00    +0.000 NA
ATOM      4  C   UNL     1      -6.040   2.397 128.603  0.00  0.00    +0.000 A 
ATOM      5  C   UNL     1      -6.656   2.444 127.377  0.00  0.00    +0.000 A 
ATOM      6  C   UNL     1      -8.073   2.261 127.006  0.00  0.00    +0.000 C 
ATOM      7  N   UNL     1      -8.195   1.129 126.108  0.00  0.00    +0.000 NA
ATOM      8  C   UNL     1      -7.660   1.179 124.934  0.00  0.00    +0.000 C 
ATOM      9  C   UNL     1      -6.875   2.328 124.367  0.00  0.00    +0.000 A 
ATOM     10  C   UNL     1      -5.890   3.026 125.090  0.00  0.00    +0.000 A 
ATOM     11  C   UNL     1      -5.139   4.022 124.446  0.00  0.00    +0.000 A 
ATOM     12  C   UNL     1      -5.335   4.312 123.096  0.00  0.00    +0.000 A 
ATOM     13  C   UNL     1      -6.310   3.628 122.386  0.00  0.00    +0.000 A 
ATOM     14 CL   UNL     1      -6.574   4.010 120.731  0.00  0.00    +0.000 Cl
ATOM     15  C   UNL     1      -7.081   2.647 123.009  0.00  0.00    +0.000 A 
ATOM     16  N   UNL     1      -5.672   2.783 126.472  0.00  0.00    +0.000 N 
ENDROOT
BRANCH   8  17
ATOM     17  C   UNL     1      -7.813  -0.016 124.069  0.00  0.00    +0.000 A 
ATOM     18  C   UNL     1      -9.035  -0.251 123.430  0.00  0.00    +0.000 A 
ATOM     19  C   UNL     1      -9.259  -1.477 122.805  0.00  0.00    +0.000 A 
ATOM     20  C   UNL     1      -8.232  -2.421 122.732  0.00  0.00    +0.000 A 
ATOM     21  C   UNL     1      -6.975  -2.133 123.269  0.00  0.00    +0.000 A 
ATOM     22  C   UNL     1      -6.782  -0.948 123.973  0.00  0.00    +0.000 A 
ATOM     23  F   UNL     1      -5.619  -0.764 124.614  0.00  0.00    +0.000 F 
ENDBRANCH   8  17
TORSDOF 1
ENDMDL
MODEL 4
REMARK VINA RESULT:      -7.7      7.300      9.639
REMARK  Name = Midazolam
REMARK  2 active torsions:
REMARK  status: ('A' for Active; 'I' for Inactive)
REMARK    1  A    between atoms: C_1  and  C_2
REMARK    2  A    between atoms: C_8  and  C_9
REMARK                            x       y       z     vdW  Elec       q    Type
REMARK                         _______ _______ _______ _____ _____    ______ ____
ROOT
ATOM      1  C   UNL     1      -9.371   1.240 131.901  0.00  0.00    +0.000 C 
ATOM      2  C   UNL     1      -8.991   2.569 132.457  0.00  0.00    +0.000 A 
ATOM      3  N   UNL     1      -9.018   2.844 133.747  0.00  0.00    +0.000 NA
ATOM      4  C   UNL     1      -8.751   4.176 133.853  0.00  0.00    +0.000 A 
ATOM      5  C   UNL     1      -8.553   4.736 132.615  0.00  0.00    +0.000 A 
ATOM      6  C   UNL     1      -8.201   6.117 132.230  0.00  0.00    +0.000 C 
ATOM      7  N   UNL     1      -9.257   6.671 131.404  0.00  0.00    +0.000 NA
ATOM      8  C   UNL     1      -9.494   6.166 130.239  0.00  0.00    +0.000 C 
ATOM      9  C   UNL     1      -8.775   5.004 129.615  0.00  0.00    +0.000 A 
ATOM     10  C   UNL     1      -8.463   3.821 130.311  0.00  0.00    +0.000 A 
ATOM     11  C   UNL     1      -7.877   2.749 129.618  0.00  0.00    +0.000 A 
ATOM     12  C   UNL     1      -7.625   2.828 128.249  0.00  0.00    +0.000 A 
ATOM     13  C   UNL     1      -7.927   3.996 127.566  0.00  0.00    +0.000 A 
ATOM     14 CL   UNL     1      -7.584   4.105 125.885  0.00  0.00    +0.000 Cl
ATOM     15  C   UNL     1      -8.494   5.080 128.236  0.00  0.00    +0.000 A 
ATOM     16  N   UNL     1      -8.679   3.703 131.709  0.00  0.00    +0.000 N 
ENDROOT
BRANCH   8  17
ATOM     17  C   UNL     1     -10.594   6.773 129.451  0.00  0.00    +0.000 A 
ATOM     18  C   UNL     1     -10.409   8.032 128.869  0.00  0.00    +0.000 A 
ATOM     19  C   UNL     1     -11.503   8.703 128.323  0.00  0.00    +0.000 A 
ATOM     20  C   UNL     1     -12.751   8.077 128.268  0.00  0.00    +0.000 A 
ATOM     21  C   UNL     1     -12.901   6.772 128.744  0.00  0.00    +0.000 A 
ATOM     22  C   UNL     1     -11.832   6.140 129.371  0.00  0.00    +0.000 A 
ATOM     23  F   UNL     1     -12.043   4.954 129.960  0.00  0.00    +0.000 F 
ENDBRANCH   8  17
TORSDOF 1
ENDMDL
MODEL 5
REMARK VINA RESULT:      -7.4      7.851      9.612
REMARK  Name = Midazolam
REMARK  2 active torsions:
REMARK  status: ('A' for Active; 'I' for Inactive)
REMARK    1  A    between atoms: C_1  and  C_2
REMARK    2  A    between atoms: C_8  and  C_9
REMARK                            x       y       z     vdW  Elec       q    Type
REMARK                         _______ _______ _______ _____ _____    ______ ____
ROOT
ATOM      1  C   UNL     1      -9.875   2.130 131.821  0.00  0.00    +0.000 C 
ATOM      2  C   UNL     1     -10.082   3.492 131.255  0.00  0.00    +0.000 A 
ATOM      3  N   UNL     1     -10.945   3.747 130.289  0.00  0.00    +0.000 NA
ATOM      4  C   UNL     1     -10.747   5.050 129.944  0.00  0.00    +0.000 A 
ATOM      5  C   UNL     1      -9.753   5.613 130.705  0.00  0.00    +0.000 A 
ATOM      6  C   UNL     1      -9.221   6.990 130.723  0.00  0.00    +0.000 C 
ATOM      7  N   UNL     1      -7.813   6.968 130.376  0.00  0.00    +0.000 NA
ATOM      8  C   UNL     1      -6.966   6.389 131.160  0.00  0.00    +0.000 C 
ATOM      9  C   UNL     1      -7.289   5.688 132.449  0.00  0.00    +0.000 A 
ATOM     10  C   UNL     1      -8.373   4.803 132.600  0.00  0.00    +0.000 A 
ATOM     11  C   UNL     1      -8.539   4.119 133.815  0.00  0.00    +0.000 A 
ATOM     12  C   UNL     1      -7.633   4.281 134.862  0.00  0.00    +0.000 A 
ATOM     13  C   UNL     1      -6.569   5.157 134.715  0.00  0.00    +0.000 A 
ATOM     14 CL   UNL     1      -5.472   5.381 136.019  0.00  0.00    +0.000 Cl
ATOM     15  C   UNL     1      -6.393   5.861 133.524  0.00  0.00    +0.000 A 
ATOM     16  N   UNL     1      -9.334   4.625 131.571  0.00  0.00    +0.000 N 
ENDROOT
BRANCH   8  17
ATOM     17  C   UNL     1      -5.544   6.394 130.741  0.00  0.00    +0.000 A 
ATOM     18  C   UNL     1      -4.858   7.610 130.648  0.00  0.00    +0.000 A 
ATOM     19  C   UNL     1      -3.602   7.645 130.043  0.00  0.00    +0.000 A 
ATOM     20  C   UNL     1      -2.993   6.459 129.627  0.00  0.00    +0.000 A 
ATOM     21  C   UNL     1      -3.633   5.234 129.831  0.00  0.00    +0.000 A 
ATOM     22  C   UNL     1      -4.924   5.209 130.350  0.00  0.00    +0.000 A 
ATOM     23  F   UNL     1      -5.578   4.039 130.388  0.00  0.00    +0.000 F 
ENDBRANCH   8  17
TORSDOF 1
ENDMDL
MODEL 6
REMARK VINA RESULT:      -7.3      3.666      5.942
REMARK  Name = Midazolam
REMARK  2 active torsions:
REMARK  status: ('A' for Active; 'I' for Inactive)
REMARK    1  A    between atoms: C_1  and  C_2
REMARK    2  A    between atoms: C_8  and  C_9
REMARK                            x       y       z     vdW  Elec       q    Type
REMARK                         _______ _______ _______ _____ _____    ______ ____
ROOT
ATOM      1  C   UNL     1      -9.407   0.709 131.705  0.00  0.00    +0.000 C 
ATOM      2  C   UNL     1      -8.474   1.315 130.714  0.00  0.00    +0.000 A 
ATOM      3  N   UNL     1      -8.493   2.596 130.397  0.00  0.00    +0.000 NA
ATOM      4  C   UNL     1      -7.609   2.741 129.370  0.00  0.00    +0.000 A 
ATOM      5  C   UNL     1      -7.032   1.538 129.046  0.00  0.00    +0.000 A 
ATOM      6  C   UNL     1      -6.001   1.207 128.043  0.00  0.00    +0.000 C 
ATOM      7  N   UNL     1      -6.548   0.270 127.080  0.00  0.00    +0.000 NA
ATOM      8  C   UNL     1      -6.884  -0.918 127.458  0.00  0.00    +0.000 C 
ATOM      9  C   UNL     1      -6.781  -1.464 128.854  0.00  0.00    +0.000 A 
ATOM     10  C   UNL     1      -7.174  -0.747 129.999  0.00  0.00    +0.000 A 
ATOM     11  C   UNL     1      -7.134  -1.377 131.254  0.00  0.00    +0.000 A 
ATOM     12  C   UNL     1      -6.737  -2.707 131.379  0.00  0.00    +0.000 A 
ATOM     13  C   UNL     1      -6.343  -3.411 130.252  0.00  0.00    +0.000 A 
ATOM     14 CL   UNL     1      -5.821  -5.041 130.413  0.00  0.00    +0.000 Cl
ATOM     15  C   UNL     1      -6.359  -2.802 128.997  0.00  0.00    +0.000 A 
ATOM     16  N   UNL     1      -7.563   0.616 129.923  0.00  0.00    +0.000 N 
ENDROOT
BRANCH   8  17
ATOM     17  C   UNL     1      -7.446  -1.822 126.426  0.00  0.00    +0.000 A 
ATOM     18  C   UNL     1      -8.814  -2.113 126.437  0.00  0.00    +0.000 A 
ATOM     19  C   UNL     1      -9.306  -3.130 125.619  0.00  0.00    +0.000 A 
ATOM     20  C   UNL     1      -8.454  -3.780 124.723  0.00  0.00    +0.000 A 
ATOM     21  C   UNL     1      -7.112  -3.402 124.632  0.00  0.00    +0.000 A 
ATOM     22  C   UNL     1      -6.603  -2.453 125.514  0.00  0.00    +0.000 A 
ATOM     23  F   UNL     1      -5.282  -2.222 125.515  0.00  0.00    +0.000 F 
ENDBRANCH   8  17
TORSDOF 1
ENDMDL
MODEL 7
REMARK VINA RESULT:      -7.3      2.884      5.811
REMARK  Name = Midazolam
REMARK  2 active torsions:
REMARK  status: ('A' for Active; 'I' for Inactive)
REMARK    1  A    between atoms: C_1  and  C_2
REMARK    2  A    between atoms: C_8  and  C_9
REMARK                            x       y       z     vdW  Elec       q    Type
REMARK                         _______ _______ _______ _____ _____    ______ ____
ROOT
ATOM      1  C   UNL     1      -3.021  -2.278 129.944  0.00  0.00    +0.000 C 
ATOM      2  C   UNL     1      -4.339  -2.901 130.248  0.00  0.00    +0.000 A 
ATOM      3  N   UNL     1      -4.464  -4.024 130.929  0.00  0.00    +0.000 NA
ATOM      4  C   UNL     1      -5.787  -4.350 130.877  0.00  0.00    +0.000 A 
ATOM      5  C   UNL     1      -6.493  -3.418 130.156  0.00  0.00    +0.000 A 
ATOM      6  C   UNL     1      -7.937  -3.322 129.864  0.00  0.00    +0.000 C 
ATOM      7  N   UNL     1      -8.143  -3.382 128.431  0.00  0.00    +0.000 NA
ATOM      8  C   UNL     1      -7.698  -2.433 127.676  0.00  0.00    +0.000 C 
ATOM      9  C   UNL     1      -6.939  -1.220 128.135  0.00  0.00    +0.000 A 
ATOM     10  C   UNL     1      -5.891  -1.270 129.072  0.00  0.00    +0.000 A 
ATOM     11  C   UNL     1      -5.174  -0.098 129.367  0.00  0.00    +0.000 A 
ATOM     12  C   UNL     1      -5.466   1.105 128.725  0.00  0.00    +0.000 A 
ATOM     13  C   UNL     1      -6.503   1.154 127.806  0.00  0.00    +0.000 A 
ATOM     14 CL   UNL     1      -6.884   2.646 127.042  0.00  0.00    +0.000 Cl
ATOM     15  C   UNL     1      -7.240   0.008 127.511  0.00  0.00    +0.000 A 
ATOM     16  N   UNL     1      -5.574  -2.465 129.768  0.00  0.00    +0.000 N 
ENDROOT
BRANCH   8  17
ATOM     17  C   UNL     1      -7.935  -2.561 126.218  0.00  0.00    +0.000 A 
ATOM     18  C   UNL     1      -9.247  -2.627 125.737  0.00  0.00    +0.000 A 
ATOM     19  C   UNL     1      -9.474  -2.972 124.405  0.00  0.00    +0.000 A 
ATOM     20  C   UNL     1      -8.395  -3.148 123.536  0.00  0.00    +0.000 A 
ATOM     21  C   UNL     1      -7.089  -2.963 123.994  0.00  0.00    +0.000 A 
ATOM     22  C   UNL     1      -6.861  -2.711 125.344  0.00  0.00    +0.000 A 
ATOM     23  F   UNL     1      -5.596  -2.694 125.789  0.00  0.00    +0.000 F 
ENDBRANCH   8  17
TORSDOF 1
ENDMDL
MODEL 8
REMARK VINA RESULT:      -6.9      3.197      4.863
REMARK  Name = Midazolam
REMARK  2 active torsions:
REMARK  status: ('A' for Active; 'I' for Inactive)
REMARK    1  A    between atoms: C_1  and  C_2
REMARK    2  A    between atoms: C_8  and  C_9
REMARK                            x       y       z     vdW  Elec       q    Type
REMARK                         _______ _______ _______ _____ _____    ______ ____
ROOT
ATOM      1  C   UNL     1      -5.104   4.283 125.540  0.00  0.00    +0.000 C 
ATOM      2  C   UNL     1      -5.543   3.497 126.727  0.00  0.00    +0.000 A 
ATOM      3  N   UNL     1      -4.997   3.630 127.921  0.00  0.00    +0.000 NA
ATOM      4  C   UNL     1      -5.553   2.658 128.698  0.00  0.00    +0.000 A 
ATOM      5  C   UNL     1      -6.457   1.914 127.981  0.00  0.00    +0.000 A 
ATOM      6  C   UNL     1      -7.327   0.796 128.397  0.00  0.00    +0.000 C 
ATOM      7  N   UNL     1      -6.988  -0.388 127.633  0.00  0.00    +0.000 NA
ATOM      8  C   UNL     1      -7.189  -0.410 126.358  0.00  0.00    +0.000 C 
ATOM      9  C   UNL     1      -7.749   0.713 125.531  0.00  0.00    +0.000 A 
ATOM     10  C   UNL     1      -7.346   2.054 125.669  0.00  0.00    +0.000 A 
ATOM     11  C   UNL     1      -7.853   3.020 124.785  0.00  0.00    +0.000 A 
ATOM     12  C   UNL     1      -8.725   2.667 123.757  0.00  0.00    +0.000 A 
ATOM     13  C   UNL     1      -9.127   1.347 123.624  0.00  0.00    +0.000 A 
ATOM     14 CL   UNL     1     -10.230   0.920 122.377  0.00  0.00    +0.000 Cl
ATOM     15  C   UNL     1      -8.651   0.373 124.501  0.00  0.00    +0.000 A 
ATOM     16  N   UNL     1      -6.479   2.463 126.716  0.00  0.00    +0.000 N 
ENDROOT
BRANCH   8  17
ATOM     17  C   UNL     1      -6.813  -1.649 125.635  0.00  0.00    +0.000 A 
ATOM     18  C   UNL     1      -5.564  -1.728 125.008  0.00  0.00    +0.000 A 
ATOM     19  C   UNL     1      -5.295  -2.789 124.144  0.00  0.00    +0.000 A 
ATOM     20  C   UNL     1      -6.229  -3.816 123.988  0.00  0.00    +0.000 A 
ATOM     21  C   UNL     1      -7.425  -3.792 124.709  0.00  0.00    +0.000 A 
ATOM     22  C   UNL     1      -7.731  -2.687 125.498  0.00  0.00    +0.000 A 
ATOM     23  F   UNL     1      -8.950  -2.613 126.054  0.00  0.00    +0.000 F 
ENDBRANCH   8  17
TORSDOF 1
ENDMDL
MODEL 9
REMARK VINA RESULT:      -6.7      7.016      8.917
REMARK  Name = Midazolam
REMARK  2 active torsions:
REMARK  status: ('A' for Active; 'I' for Inactive)
REMARK    1  A    between atoms: C_1  and  C_2
REMARK    2  A    between atoms: C_8  and  C_9
REMARK                            x       y       z     vdW  Elec       q    Type
REMARK                         _______ _______ _______ _____ _____    ______ ____
ROOT
ATOM      1  C   UNL     1      -7.812   0.380 131.952  0.00  0.00    +0.000 C 
ATOM      2  C   UNL     1      -8.106   1.311 130.827  0.00  0.00    +0.000 A 
ATOM      3  N   UNL     1      -8.331   0.900 129.593  0.00  0.00    +0.000 NA
ATOM      4  C   UNL     1      -8.413   2.028 128.831  0.00  0.00    +0.000 A 
ATOM      5  C   UNL     1      -8.241   3.152 129.601  0.00  0.00    +0.000 A 
ATOM      6  C   UNL     1      -8.287   4.582 129.236  0.00  0.00    +0.000 C 
ATOM      7  N   UNL     1      -7.002   5.192 129.516  0.00  0.00    +0.000 NA
ATOM      8  C   UNL     1      -6.585   5.284 130.735  0.00  0.00    +0.000 C 
ATOM      9  C   UNL     1      -7.310   4.794 131.957  0.00  0.00    +0.000 A 
ATOM     10  C   UNL     1      -7.943   3.540 132.033  0.00  0.00    +0.000 A 
ATOM     11  C   UNL     1      -8.511   3.128 133.249  0.00  0.00    +0.000 A 
ATOM     12  C   UNL     1      -8.432   3.927 134.388  0.00  0.00    +0.000 A 
ATOM     13  C   UNL     1      -7.814   5.165 134.312  0.00  0.00    +0.000 A 
ATOM     14 CL   UNL     1      -7.748   6.165 135.708  0.00  0.00    +0.000 Cl
ATOM     15  C   UNL     1      -7.258   5.605 133.110  0.00  0.00    +0.000 A 
ATOM     16  N   UNL     1      -8.069   2.703 130.893  0.00  0.00    +0.000 N 
ENDROOT
BRANCH   8  17
ATOM     17  C   UNL     1      -5.259   5.911 130.951  0.00  0.00    +0.000 A 
ATOM     18  C   UNL     1      -5.107   7.288 130.753  0.00  0.00    +0.000 A 
ATOM     19  C   UNL     1      -3.827   7.841 130.733  0.00  0.00    +0.000 A 
ATOM     20  C   UNL     1      -2.716   7.042 131.011  0.00  0.00    +0.000 A 
ATOM     21  C   UNL     1      -2.885   5.692 131.325  0.00  0.00    +0.000 A 
ATOM     22  C   UNL     1      -4.152   5.121 131.254  0.00  0.00    +0.000 A 
ATOM     23  F   UNL     1      -4.267   3.793 131.404  0.00  0.00    +0.000 F 
ENDBRANCH   8  17
TORSDOF 1
ENDMDL
