MODEL 1
REMARK VINA RESULT:      -5.8      0.000      0.000
REMARK  Name = Midodrine
REMARK  10 active torsions:
REMARK  status: ('A' for Active; 'I' for Inactive)
REMARK    1  A    between atoms: C_1  and  O_2
REMARK    2  A    between atoms: O_2  and  C_3
REMARK    3  A    between atoms: C_5  and  C_6
REMARK    4  A    between atoms: C_6  and  O_7
REMARK    5  A    between atoms: C_6  and  C_8
REMARK    6  A    between atoms: C_8  and  N_9
REMARK    7  A    between atoms: C_10  and  C_12
REMARK    8  A    between atoms: C_12  and  N_13
REMARK    9  A    between atoms: C_14  and  O_15
REMARK   10  A    between atoms: O_15  and  C_16
REMARK                            x       y       z     vdW  Elec       q    Type
REMARK                         _______ _______ _______ _____ _____    ______ ____
ROOT
ATOM      1  C   UNL     1      -8.635   2.796 123.219  0.00  0.00    +0.000 C 
ENDROOT
BRANCH   1   4
ATOM      2  C   UNL     1      -8.914  -0.985 123.684  0.00  0.00    +0.000 A 
ATOM      3  C   UNL     1      -9.245   0.347 123.415  0.00  0.00    +0.000 A 
ATOM      4  C   UNL     1      -8.374   1.394 123.780  0.00  0.00    +0.000 A 
ATOM      5  C   UNL     1      -7.231   1.072 124.550  0.00  0.00    +0.000 A 
ATOM      6  C   UNL     1      -6.891  -0.254 124.782  0.00  0.00    +0.000 A 
ATOM      7  C   UNL     1      -7.720  -1.278 124.337  0.00  0.00    +0.000 A 
BRANCH   2   9
ATOM      8  C   UNL     1      -9.402  -3.285 123.478  0.00  0.00    +0.000 C 
ATOM      9  O   UNL     1      -9.748  -1.938 123.165  0.00  0.00    +0.000 OA
ENDBRANCH   2   9
BRANCH   5  10
ATOM     10  O   UNL     1      -6.512   2.109 125.055  0.00  0.00    +0.000 OA
ATOM     11  C   UNL     1      -5.423   1.900 125.931  0.00  0.00    +0.000 C 
ENDBRANCH   5  10
ENDBRANCH   1   4
BRANCH   1  12
ATOM     12  O   UNL     1      -8.499   3.775 124.252  0.00  0.00    +0.000 OA
ATOM     13  H   UNL     1      -7.658   3.574 124.701  0.00  0.00    +0.000 HD
ENDBRANCH   1  12
BRANCH   1  14
ATOM     14  C   UNL     1      -7.736   3.188 122.031  0.00  0.00    +0.000 C 
BRANCH  14  15
ATOM     15  N   UNL     1      -6.493   3.853 122.324  0.00  0.00    +0.000 N 
ATOM     16  C   UNL     1      -5.731   4.260 121.241  0.00  0.00    +0.000 C 
ATOM     17  O   UNL     1      -6.106   4.108 120.073  0.00  0.00    +0.000 OA
ATOM     18  H   UNL     1      -6.123   3.819 123.264  0.00  0.00    +0.000 HD
BRANCH  16  19
ATOM     19  C   UNL     1      -4.385   4.873 121.618  0.00  0.00    +0.000 C 
BRANCH  19  20
ATOM     20  N   UNL     1      -4.227   6.199 121.012  0.00  0.00    +0.000 NA
ATOM     21  H   UNL     1      -3.984   6.079 120.026  0.00  0.00    +0.000 HD
ATOM     22  H   UNL     1      -3.473   6.710 121.459  0.00  0.00    +0.000 HD
ENDBRANCH  19  20
ENDBRANCH  16  19
ENDBRANCH  14  15
ENDBRANCH   1  14
TORSDOF 8
ENDMDL
MODEL 2
REMARK VINA RESULT:      -5.7      2.737      5.626
REMARK  Name = Midodrine
REMARK  10 active torsions:
REMARK  status: ('A' for Active; 'I' for Inactive)
REMARK    1  A    between atoms: C_1  and  O_2
REMARK    2  A    between atoms: O_2  and  C_3
REMARK    3  A    between atoms: C_5  and  C_6
REMARK    4  A    between atoms: C_6  and  O_7
REMARK    5  A    between atoms: C_6  and  C_8
REMARK    6  A    between atoms: C_8  and  N_9
REMARK    7  A    between atoms: C_10  and  C_12
REMARK    8  A    between atoms: C_12  and  N_13
REMARK    9  A    between atoms: C_14  and  O_15
REMARK   10  A    between atoms: O_15  and  C_16
REMARK                            x       y       z     vdW  Elec       q    Type
REMARK                         _______ _______ _______ _____ _____    ______ ____
ROOT
ATOM      1  C   UNL     1      -8.436   2.774 124.528  0.00  0.00    +0.000 C 
ENDROOT
BRANCH   1   4
ATOM      2  C   UNL     1      -7.427   3.786 120.986  0.00  0.00    +0.000 A 
ATOM      3  C   UNL     1      -8.135   3.231 122.057  0.00  0.00    +0.000 A 
ATOM      4  C   UNL     1      -7.542   3.116 123.331  0.00  0.00    +0.000 A 
ATOM      5  C   UNL     1      -6.172   3.441 123.459  0.00  0.00    +0.000 A 
ATOM      6  C   UNL     1      -5.485   4.024 122.402  0.00  0.00    +0.000 A 
ATOM      7  C   UNL     1      -6.114   4.209 121.176  0.00  0.00    +0.000 A 
BRANCH   2   9
ATOM      8  C   UNL     1      -7.383   4.560 118.757  0.00  0.00    +0.000 C 
ATOM      9  O   UNL     1      -8.129   3.990 119.829  0.00  0.00    +0.000 OA
ENDBRANCH   2   9
BRANCH   5  10
ATOM     10  O   UNL     1      -5.572   3.141 124.642  0.00  0.00    +0.000 OA
ATOM     11  C   UNL     1      -5.116   4.150 125.520  0.00  0.00    +0.000 C 
ENDBRANCH   5  10
ENDBRANCH   1   4
BRANCH   1  12
ATOM     12  O   UNL     1      -9.118   3.945 124.984  0.00  0.00    +0.000 OA
ATOM     13  H   UNL     1      -9.712   4.208 124.258  0.00  0.00    +0.000 HD
ENDBRANCH   1  12
BRANCH   1  14
ATOM     14  C   UNL     1      -9.468   1.662 124.260  0.00  0.00    +0.000 C 
BRANCH  14  15
ATOM     15  N   UNL     1      -8.972   0.332 124.021  0.00  0.00    +0.000 N 
ATOM     16  C   UNL     1      -9.570  -0.385 122.997  0.00  0.00    +0.000 C 
ATOM     17  O   UNL     1     -10.458   0.095 122.284  0.00  0.00    +0.000 OA
ATOM     18  H   UNL     1      -8.373  -0.104 124.709  0.00  0.00    +0.000 HD
BRANCH  16  19
ATOM     19  C   UNL     1      -9.063  -1.818 122.857  0.00  0.00    +0.000 C 
BRANCH  19  20
ATOM     20  N   UNL     1      -9.962  -2.759 123.534  0.00  0.00    +0.000 NA
ATOM     21  H   UNL     1     -10.882  -2.323 123.622  0.00  0.00    +0.000 HD
ATOM     22  H   UNL     1      -9.625  -2.968 124.467  0.00  0.00    +0.000 HD
ENDBRANCH  19  20
ENDBRANCH  16  19
ENDBRANCH  14  15
ENDBRANCH   1  14
TORSDOF 8
ENDMDL
MODEL 3
REMARK VINA RESULT:      -5.5      9.121     10.255
REMARK  Name = Midodrine
REMARK  10 active torsions:
REMARK  status: ('A' for Active; 'I' for Inactive)
REMARK    1  A    between atoms: C_1  and  O_2
REMARK    2  A    between atoms: O_2  and  C_3
REMARK    3  A    between atoms: C_5  and  C_6
REMARK    4  A    between atoms: C_6  and  O_7
REMARK    5  A    between atoms: C_6  and  C_8
REMARK    6  A    between atoms: C_8  and  N_9
REMARK    7  A    between atoms: C_10  and  C_12
REMARK    8  A    between atoms: C_12  and  N_13
REMARK    9  A    between atoms: C_14  and  O_15
REMARK   10  A    between atoms: O_15  and  C_16
REMARK                            x       y       z     vdW  Elec       q    Type
REMARK                         _______ _______ _______ _____ _____    ______ ____
ROOT
ATOM      1  C   UNL     1     -10.489   6.036 131.391  0.00  0.00    +0.000 C 
ENDROOT
BRANCH   1   4
ATOM      2  C   UNL     1      -6.755   6.811 131.172  0.00  0.00    +0.000 A 
ATOM      3  C   UNL     1      -8.104   6.669 130.829  0.00  0.00    +0.000 A 
ATOM      4  C   UNL     1      -8.982   5.927 131.645  0.00  0.00    +0.000 A 
ATOM      5  C   UNL     1      -8.433   5.214 132.737  0.00  0.00    +0.000 A 
ATOM      6  C   UNL     1      -7.102   5.386 133.092  0.00  0.00    +0.000 A 
ATOM      7  C   UNL     1      -6.271   6.193 132.322  0.00  0.00    +0.000 A 
BRANCH   2   9
ATOM      8  C   UNL     1      -4.602   7.495 130.489  0.00  0.00    +0.000 C 
ATOM      9  O   UNL     1      -6.015   7.666 130.401  0.00  0.00    +0.000 OA
ENDBRANCH   2   9
BRANCH   5  10
ATOM     10  O   UNL     1      -9.258   4.354 133.392  0.00  0.00    +0.000 OA
ATOM     11  C   UNL     1      -9.160   2.955 133.217  0.00  0.00    +0.000 C 
ENDBRANCH   5  10
ENDBRANCH   1   4
BRANCH   1  12
ATOM     12  O   UNL     1     -11.186   6.216 132.627  0.00  0.00    +0.000 OA
ATOM     13  H   UNL     1     -11.340   5.321 132.979  0.00  0.00    +0.000 HD
ENDBRANCH   1  12
BRANCH   1  14
ATOM     14  C   UNL     1     -10.894   7.158 130.416  0.00  0.00    +0.000 C 
BRANCH  14  15
ATOM     15  N   UNL     1     -11.394   6.772 129.123  0.00  0.00    +0.000 N 
ATOM     16  C   UNL     1     -12.341   7.603 128.544  0.00  0.00    +0.000 C 
ATOM     17  O   UNL     1     -12.716   8.652 129.079  0.00  0.00    +0.000 OA
ATOM     18  H   UNL     1     -11.210   5.840 128.779  0.00  0.00    +0.000 HD
BRANCH  16  19
ATOM     19  C   UNL     1     -12.897   7.089 127.219  0.00  0.00    +0.000 C 
BRANCH  19  20
ATOM     20  N   UNL     1     -11.813   6.691 126.316  0.00  0.00    +0.000 NA
ATOM     21  H   UNL     1     -12.023   7.045 125.380  0.00  0.00    +0.000 HD
ATOM     22  H   UNL     1     -11.745   5.681 126.260  0.00  0.00    +0.000 HD
ENDBRANCH  19  20
ENDBRANCH  16  19
ENDBRANCH  14  15
ENDBRANCH   1  14
TORSDOF 8
ENDMDL
MODEL 4
REMARK VINA RESULT:      -5.5      3.321      4.889
REMARK  Name = Midodrine
REMARK  10 active torsions:
REMARK  status: ('A' for Active; 'I' for Inactive)
REMARK    1  A    between atoms: C_1  and  O_2
REMARK    2  A    between atoms: O_2  and  C_3
REMARK    3  A    between atoms: C_5  and  C_6
REMARK    4  A    between atoms: C_6  and  O_7
REMARK    5  A    between atoms: C_6  and  C_8
REMARK    6  A    between atoms: C_8  and  N_9
REMARK    7  A    between atoms: C_10  and  C_12
REMARK    8  A    between atoms: C_12  and  N_13
REMARK    9  A    between atoms: C_14  and  O_15
REMARK   10  A    between atoms: O_15  and  C_16
REMARK                            x       y       z     vdW  Elec       q    Type
REMARK                         _______ _______ _______ _____ _____    ______ ____
ROOT
ATOM      1  C   UNL     1      -8.816   0.340 125.612  0.00  0.00    +0.000 C 
ENDROOT
BRANCH   1   4
ATOM      2  C   UNL     1      -7.858  -2.315 128.186  0.00  0.00    +0.000 A 
ATOM      3  C   UNL     1      -7.886  -1.121 127.457  0.00  0.00    +0.000 A 
ATOM      4  C   UNL     1      -8.571  -1.042 126.228  0.00  0.00    +0.000 A 
ATOM      5  C   UNL     1      -9.105  -2.234 125.685  0.00  0.00    +0.000 A 
ATOM      6  C   UNL     1      -9.105  -3.407 126.429  0.00  0.00    +0.000 A 
ATOM      7  C   UNL     1      -8.499  -3.443 127.680  0.00  0.00    +0.000 A 
BRANCH   2   9
ATOM      8  C   UNL     1      -6.848  -3.506 129.955  0.00  0.00    +0.000 C 
ATOM      9  O   UNL     1      -7.295  -2.258 129.432  0.00  0.00    +0.000 OA
ENDBRANCH   2   9
BRANCH   5  10
ATOM     10  O   UNL     1      -9.588  -2.175 124.416  0.00  0.00    +0.000 OA
ATOM     11  C   UNL     1      -9.433  -3.250 123.511  0.00  0.00    +0.000 C 
ENDBRANCH   5  10
ENDBRANCH   1   4
BRANCH   1  12
ATOM     12  O   UNL     1     -10.209   0.520 125.343  0.00  0.00    +0.000 OA
ATOM     13  H   UNL     1     -10.279   0.659 124.382  0.00  0.00    +0.000 HD
ENDBRANCH   1  12
BRANCH   1  14
ATOM     14  C   UNL     1      -8.310   1.519 126.464  0.00  0.00    +0.000 C 
BRANCH  14  15
ATOM     15  N   UNL     1      -7.269   2.346 125.913  0.00  0.00    +0.000 N 
ATOM     16  C   UNL     1      -7.667   3.491 125.244  0.00  0.00    +0.000 C 
ATOM     17  O   UNL     1      -8.853   3.827 125.154  0.00  0.00    +0.000 OA
ATOM     18  H   UNL     1      -6.329   1.978 125.846  0.00  0.00    +0.000 HD
BRANCH  16  19
ATOM     19  C   UNL     1      -6.523   4.272 124.604  0.00  0.00    +0.000 C 
BRANCH  19  20
ATOM     20  N   UNL     1      -6.548   5.677 125.026  0.00  0.00    +0.000 NA
ATOM     21  H   UNL     1      -5.653   5.900 125.466  0.00  0.00    +0.000 HD
ATOM     22  H   UNL     1      -7.280   5.832 125.710  0.00  0.00    +0.000 HD
ENDBRANCH  19  20
ENDBRANCH  16  19
ENDBRANCH  14  15
ENDBRANCH   1  14
TORSDOF 8
ENDMDL
MODEL 5
REMARK VINA RESULT:      -5.4      4.800      6.604
REMARK  Name = Midodrine
REMARK  10 active torsions:
REMARK  status: ('A' for Active; 'I' for Inactive)
REMARK    1  A    between atoms: C_1  and  O_2
REMARK    2  A    between atoms: O_2  and  C_3
REMARK    3  A    between atoms: C_5  and  C_6
REMARK    4  A    between atoms: C_6  and  O_7
REMARK    5  A    between atoms: C_6  and  C_8
REMARK    6  A    between atoms: C_8  and  N_9
REMARK    7  A    between atoms: C_10  and  C_12
REMARK    8  A    between atoms: C_12  and  N_13
REMARK    9  A    between atoms: C_14  and  O_15
REMARK   10  A    between atoms: O_15  and  C_16
REMARK                            x       y       z     vdW  Elec       q    Type
REMARK                         _______ _______ _______ _____ _____    ______ ____
ROOT
ATOM      1  C   UNL     1      -8.738  -3.268 125.221  0.00  0.00    +0.000 C 
ENDROOT
BRANCH   1   4
ATOM      2  C   UNL     1      -7.459  -1.604 128.412  0.00  0.00    +0.000 A 
ATOM      3  C   UNL     1      -7.918  -2.570 127.511  0.00  0.00    +0.000 A 
ATOM      4  C   UNL     1      -8.514  -2.194 126.290  0.00  0.00    +0.000 A 
ATOM      5  C   UNL     1      -8.763  -0.819 126.068  0.00  0.00    +0.000 A 
ATOM      6  C   UNL     1      -8.274   0.136 126.949  0.00  0.00    +0.000 A 
ATOM      7  C   UNL     1      -7.611  -0.254 128.107  0.00  0.00    +0.000 A 
BRANCH   2   9
ATOM      8  C   UNL     1      -6.914  -3.453 129.774  0.00  0.00    +0.000 C 
ATOM      9  O   UNL     1      -6.766  -2.062 129.500  0.00  0.00    +0.000 OA
ENDBRANCH   2   9
BRANCH   5  10
ATOM     10  O   UNL     1      -9.510  -0.494 124.979  0.00  0.00    +0.000 OA
ATOM     11  C   UNL     1      -9.343   0.738 124.306  0.00  0.00    +0.000 C 
ENDBRANCH   5  10
ENDBRANCH   1   4
BRANCH   1  12
ATOM     12  O   UNL     1     -10.050  -3.146 124.667  0.00  0.00    +0.000 OA
ATOM     13  H   UNL     1     -10.633  -3.673 125.242  0.00  0.00    +0.000 HD
ENDBRANCH   1  12
BRANCH   1  14
ATOM     14  C   UNL     1      -7.705  -3.258 124.078  0.00  0.00    +0.000 C 
BRANCH  14  15
ATOM     15  N   UNL     1      -6.468  -3.962 124.288  0.00  0.00    +0.000 N 
ATOM     16  C   UNL     1      -5.368  -3.523 123.569  0.00  0.00    +0.000 C 
ATOM     17  O   UNL     1      -5.418  -2.546 122.813  0.00  0.00    +0.000 OA
ATOM     18  H   UNL     1      -6.480  -4.851 124.770  0.00  0.00    +0.000 HD
BRANCH  16  19
ATOM     19  C   UNL     1      -4.112  -4.369 123.766  0.00  0.00    +0.000 C 
BRANCH  19  20
ATOM     20  N   UNL     1      -4.187  -5.606 122.981  0.00  0.00    +0.000 NA
ATOM     21  H   UNL     1      -5.032  -6.112 123.252  0.00  0.00    +0.000 HD
ATOM     22  H   UNL     1      -3.390  -6.202 123.176  0.00  0.00    +0.000 HD
ENDBRANCH  19  20
ENDBRANCH  16  19
ENDBRANCH  14  15
ENDBRANCH   1  14
TORSDOF 8
ENDMDL
MODEL 6
REMARK VINA RESULT:      -5.3      3.776      5.867
REMARK  Name = Midodrine
REMARK  10 active torsions:
REMARK  status: ('A' for Active; 'I' for Inactive)
REMARK    1  A    between atoms: C_1  and  O_2
REMARK    2  A    between atoms: O_2  and  C_3
REMARK    3  A    between atoms: C_5  and  C_6
REMARK    4  A    between atoms: C_6  and  O_7
REMARK    5  A    between atoms: C_6  and  C_8
REMARK    6  A    between atoms: C_8  and  N_9
REMARK    7  A    between atoms: C_10  and  C_12
REMARK    8  A    between atoms: C_12  and  N_13
REMARK    9  A    between atoms: C_14  and  O_15
REMARK   10  A    between atoms: O_15  and  C_16
REMARK                            x       y       z     vdW  Elec       q    Type
REMARK                         _______ _______ _______ _____ _____    ______ ____
ROOT
ATOM      1  C   UNL     1      -6.683  -0.550 126.127  0.00  0.00    +0.000 C 
ENDROOT
BRANCH   1   4
ATOM      2  C   UNL     1      -7.884  -3.216 128.585  0.00  0.00    +0.000 A 
ATOM      3  C   UNL     1      -7.107  -2.225 127.976  0.00  0.00    +0.000 A 
ATOM      4  C   UNL     1      -7.362  -1.820 126.650  0.00  0.00    +0.000 A 
ATOM      5  C   UNL     1      -8.327  -2.542 125.908  0.00  0.00    +0.000 A 
ATOM      6  C   UNL     1      -9.119  -3.499 126.528  0.00  0.00    +0.000 A 
ATOM      7  C   UNL     1      -8.909  -3.823 127.864  0.00  0.00    +0.000 A 
BRANCH   2   9
ATOM      8  C   UNL     1      -6.355  -3.917 130.240  0.00  0.00    +0.000 C 
ATOM      9  O   UNL     1      -7.658  -3.439 129.916  0.00  0.00    +0.000 OA
ENDBRANCH   2   9
BRANCH   5  10
ATOM     10  O   UNL     1      -8.420  -2.265 124.580  0.00  0.00    +0.000 OA
ATOM     11  C   UNL     1      -9.248  -3.023 123.721  0.00  0.00    +0.000 C 
ENDBRANCH   5  10
ENDBRANCH   1   4
BRANCH   1  12
ATOM     12  O   UNL     1      -6.120  -0.788 124.835  0.00  0.00    +0.000 OA
ATOM     13  H   UNL     1      -6.187  -1.748 124.687  0.00  0.00    +0.000 HD
ENDBRANCH   1  12
BRANCH   1  14
ATOM     14  C   UNL     1      -7.603   0.684 126.056  0.00  0.00    +0.000 C 
BRANCH  14  15
ATOM     15  N   UNL     1      -8.090   1.083 124.762  0.00  0.00    +0.000 N 
ATOM     16  C   UNL     1      -9.445   0.919 124.525  0.00  0.00    +0.000 C 
ATOM     17  O   UNL     1     -10.221   0.494 125.388  0.00  0.00    +0.000 OA
ATOM     18  H   UNL     1      -7.428   1.265 124.019  0.00  0.00    +0.000 HD
BRANCH  16  19
ATOM     19  C   UNL     1      -9.879   1.272 123.105  0.00  0.00    +0.000 C 
BRANCH  19  20
ATOM     20  N   UNL     1     -10.721   0.214 122.537  0.00  0.00    +0.000 NA
ATOM     21  H   UNL     1     -11.168  -0.293 123.305  0.00  0.00    +0.000 HD
ATOM     22  H   UNL     1     -10.161  -0.447 122.011  0.00  0.00    +0.000 HD
ENDBRANCH  19  20
ENDBRANCH  16  19
ENDBRANCH  14  15
ENDBRANCH   1  14
TORSDOF 8
ENDMDL
MODEL 7
REMARK VINA RESULT:      -5.3      3.752      5.306
REMARK  Name = Midodrine
REMARK  10 active torsions:
REMARK  status: ('A' for Active; 'I' for Inactive)
REMARK    1  A    between atoms: C_1  and  O_2
REMARK    2  A    between atoms: O_2  and  C_3
REMARK    3  A    between atoms: C_5  and  C_6
REMARK    4  A    between atoms: C_6  and  O_7
REMARK    5  A    between atoms: C_6  and  C_8
REMARK    6  A    between atoms: C_8  and  N_9
REMARK    7  A    between atoms: C_10  and  C_12
REMARK    8  A    between atoms: C_12  and  N_13
REMARK    9  A    between atoms: C_14  and  O_15
REMARK   10  A    between atoms: O_15  and  C_16
REMARK                            x       y       z     vdW  Elec       q    Type
REMARK                         _______ _______ _______ _____ _____    ______ ____
ROOT
ATOM      1  C   UNL     1      -8.837  -2.909 123.632  0.00  0.00    +0.000 C 
ENDROOT
BRANCH   1   4
ATOM      2  C   UNL     1      -7.951  -2.637 127.337  0.00  0.00    +0.000 A 
ATOM      3  C   UNL     1      -8.687  -2.694 126.149  0.00  0.00    +0.000 A 
ATOM      4  C   UNL     1      -8.050  -2.557 124.898  0.00  0.00    +0.000 A 
ATOM      5  C   UNL     1      -6.677  -2.218 124.885  0.00  0.00    +0.000 A 
ATOM      6  C   UNL     1      -5.945  -2.197 126.065  0.00  0.00    +0.000 A 
ATOM      7  C   UNL     1      -6.576  -2.421 127.283  0.00  0.00    +0.000 A 
BRANCH   2   9
ATOM      8  C   UNL     1      -7.945  -2.593 129.697  0.00  0.00    +0.000 C 
ATOM      9  O   UNL     1      -8.629  -2.924 128.490  0.00  0.00    +0.000 OA
ENDBRANCH   2   9
BRANCH   5  10
ATOM     10  O   UNL     1      -6.129  -1.901 123.681  0.00  0.00    +0.000 OA
ATOM     11  C   UNL     1      -5.201  -2.753 123.040  0.00  0.00    +0.000 C 
ENDBRANCH   5  10
ENDBRANCH   1   4
BRANCH   1  12
ATOM     12  O   UNL     1     -10.020  -3.637 123.973  0.00  0.00    +0.000 OA
ATOM     13  H   UNL     1      -9.719  -4.519 124.254  0.00  0.00    +0.000 HD
ENDBRANCH   1  12
BRANCH   1  14
ATOM     14  C   UNL     1      -9.223  -1.699 122.761  0.00  0.00    +0.000 C 
BRANCH  14  15
ATOM     15  N   UNL     1      -8.809  -0.394 123.207  0.00  0.00    +0.000 N 
ATOM     16  C   UNL     1      -9.706   0.645 123.021  0.00  0.00    +0.000 C 
ATOM     17  O   UNL     1     -10.831   0.470 122.538  0.00  0.00    +0.000 OA
ATOM     18  H   UNL     1      -7.838  -0.237 123.439  0.00  0.00    +0.000 HD
BRANCH  16  19
ATOM     19  C   UNL     1      -9.170   2.015 123.428  0.00  0.00    +0.000 C 
BRANCH  19  20
ATOM     20  N   UNL     1      -9.621   2.372 124.777  0.00  0.00    +0.000 NA
ATOM     21  H   UNL     1      -9.256   3.299 125.007  0.00  0.00    +0.000 HD
ATOM     22  H   UNL     1      -9.262   1.716 125.461  0.00  0.00    +0.000 HD
ENDBRANCH  19  20
ENDBRANCH  16  19
ENDBRANCH  14  15
ENDBRANCH   1  14
TORSDOF 8
ENDMDL
MODEL 8
REMARK VINA RESULT:      -5.2      8.278     10.461
REMARK  Name = Midodrine
REMARK  10 active torsions:
REMARK  status: ('A' for Active; 'I' for Inactive)
REMARK    1  A    between atoms: C_1  and  O_2
REMARK    2  A    between atoms: O_2  and  C_3
REMARK    3  A    between atoms: C_5  and  C_6
REMARK    4  A    between atoms: C_6  and  O_7
REMARK    5  A    between atoms: C_6  and  C_8
REMARK    6  A    between atoms: C_8  and  N_9
REMARK    7  A    between atoms: C_10  and  C_12
REMARK    8  A    between atoms: C_12  and  N_13
REMARK    9  A    between atoms: C_14  and  O_15
REMARK   10  A    between atoms: O_15  and  C_16
REMARK                            x       y       z     vdW  Elec       q    Type
REMARK                         _______ _______ _______ _____ _____    ______ ____
ROOT
ATOM      1  C   UNL     1     -11.162   6.914 131.482  0.00  0.00    +0.000 C 
ENDROOT
BRANCH   1   4
ATOM      2  C   UNL     1     -10.177   6.783 127.794  0.00  0.00    +0.000 A 
ATOM      3  C   UNL     1     -10.127   6.660 129.186  0.00  0.00    +0.000 A 
ATOM      4  C   UNL     1     -11.080   7.304 130.002  0.00  0.00    +0.000 A 
ATOM      5  C   UNL     1     -11.995   8.188 129.384  0.00  0.00    +0.000 A 
ATOM      6  C   UNL     1     -12.062   8.279 128.000  0.00  0.00    +0.000 A 
ATOM      7  C   UNL     1     -11.168   7.568 127.208  0.00  0.00    +0.000 A 
BRANCH   2   9
ATOM      8  C   UNL     1      -8.549   5.075 127.849  0.00  0.00    +0.000 C 
ATOM      9  O   UNL     1      -9.303   6.009 127.080  0.00  0.00    +0.000 OA
ENDBRANCH   2   9
BRANCH   5  10
ATOM     10  O   UNL     1     -12.775   8.944 130.204  0.00  0.00    +0.000 OA
ATOM     11  C   UNL     1     -13.232  10.224 129.820  0.00  0.00    +0.000 C 
ENDBRANCH   5  10
ENDBRANCH   1   4
BRANCH   1  12
ATOM     12  O   UNL     1     -12.314   6.101 131.715  0.00  0.00    +0.000 OA
ATOM     13  H   UNL     1     -12.381   5.506 130.947  0.00  0.00    +0.000 HD
ENDBRANCH   1  12
BRANCH   1  14
ATOM     14  C   UNL     1      -9.915   6.189 132.023  0.00  0.00    +0.000 C 
BRANCH  14  15
ATOM     15  N   UNL     1     -10.101   4.893 132.620  0.00  0.00    +0.000 N 
ATOM     16  C   UNL     1      -9.148   3.929 132.334  0.00  0.00    +0.000 C 
ATOM     17  O   UNL     1      -8.154   4.167 131.639  0.00  0.00    +0.000 OA
ATOM     18  H   UNL     1     -10.992   4.665 133.040  0.00  0.00    +0.000 HD
BRANCH  16  19
ATOM     19  C   UNL     1      -9.453   2.554 132.921  0.00  0.00    +0.000 C 
BRANCH  19  20
ATOM     20  N   UNL     1      -9.981   1.652 131.892  0.00  0.00    +0.000 NA
ATOM     21  H   UNL     1     -10.768   1.134 132.288  0.00  0.00    +0.000 HD
ATOM     22  H   UNL     1      -9.277   0.981 131.607  0.00  0.00    +0.000 HD
ENDBRANCH  19  20
ENDBRANCH  16  19
ENDBRANCH  14  15
ENDBRANCH   1  14
TORSDOF 8
ENDMDL
MODEL 9
REMARK VINA RESULT:      -5.1      8.464     10.265
REMARK  Name = Midodrine
REMARK  10 active torsions:
REMARK  status: ('A' for Active; 'I' for Inactive)
REMARK    1  A    between atoms: C_1  and  O_2
REMARK    2  A    between atoms: O_2  and  C_3
REMARK    3  A    between atoms: C_5  and  C_6
REMARK    4  A    between atoms: C_6  and  O_7
REMARK    5  A    between atoms: C_6  and  C_8
REMARK    6  A    between atoms: C_8  and  N_9
REMARK    7  A    between atoms: C_10  and  C_12
REMARK    8  A    between atoms: C_12  and  N_13
REMARK    9  A    between atoms: C_14  and  O_15
REMARK   10  A    between atoms: O_15  and  C_16
REMARK                            x       y       z     vdW  Elec       q    Type
REMARK                         _______ _______ _______ _____ _____    ______ ____
ROOT
ATOM      1  C   UNL     1      -9.874   5.487 130.247  0.00  0.00    +0.000 C 
ENDROOT
BRANCH   1   4
ATOM      2  C   UNL     1      -8.522   5.238 133.811  0.00  0.00    +0.000 A 
ATOM      3  C   UNL     1      -8.808   5.723 132.530  0.00  0.00    +0.000 A 
ATOM      4  C   UNL     1      -9.310   4.866 131.530  0.00  0.00    +0.000 A 
ATOM      5  C   UNL     1      -9.381   3.482 131.813  0.00  0.00    +0.000 A 
ATOM      6  C   UNL     1      -9.129   3.012 133.095  0.00  0.00    +0.000 A 
ATOM      7  C   UNL     1      -8.718   3.888 134.093  0.00  0.00    +0.000 A 
BRANCH   2   9
ATOM      8  C   UNL     1      -7.499   5.653 135.897  0.00  0.00    +0.000 C 
ATOM      9  O   UNL     1      -8.178   6.168 134.754  0.00  0.00    +0.000 OA
ENDBRANCH   2   9
BRANCH   5  10
ATOM     10  O   UNL     1      -9.682   2.653 130.777  0.00  0.00    +0.000 OA
ATOM     11  C   UNL     1      -8.710   1.804 130.200  0.00  0.00    +0.000 C 
ENDBRANCH   5  10
ENDBRANCH   1   4
BRANCH   1  12
ATOM     12  O   UNL     1     -11.110   4.859 129.897  0.00  0.00    +0.000 OA
ATOM     13  H   UNL     1     -11.186   4.940 128.929  0.00  0.00    +0.000 HD
ENDBRANCH   1  12
BRANCH   1  14
ATOM     14  C   UNL     1     -10.084   7.012 130.313  0.00  0.00    +0.000 C 
BRANCH  14  15
ATOM     15  N   UNL     1     -11.380   7.525 129.954  0.00  0.00    +0.000 N 
ATOM     16  C   UNL     1     -11.446   8.328 128.827  0.00  0.00    +0.000 C 
ATOM     17  O   UNL     1     -10.457   8.565 128.125  0.00  0.00    +0.000 OA
ATOM     18  H   UNL     1     -12.138   7.465 130.621  0.00  0.00    +0.000 HD
BRANCH  16  19
ATOM     19  C   UNL     1     -12.829   8.914 128.556  0.00  0.00    +0.000 C 
BRANCH  19  20
ATOM     20  N   UNL     1     -12.946  10.261 129.125  0.00  0.00    +0.000 NA
ATOM     21  H   UNL     1     -12.892  10.190 130.143  0.00  0.00    +0.000 HD
ATOM     22  H   UNL     1     -13.842  10.673 128.888  0.00  0.00    +0.000 HD
ENDBRANCH  19  20
ENDBRANCH  16  19
ENDBRANCH  14  15
ENDBRANCH   1  14
TORSDOF 8
ENDMDL
