MODEL 1
REMARK VINA RESULT:     -10.6      0.000      0.000
REMARK  Name = Midostaurin
REMARK  6 active torsions:
REMARK  status: ('A' for Active; 'I' for Inactive)
REMARK    1  A    between atoms: C_1  and  O_2
REMARK    2  A    between atoms: O_2  and  C_3
REMARK    3  A    between atoms: C_4  and  N_34
REMARK    4  A    between atoms: C_8  and  C_9
REMARK    5  A    between atoms: N_34  and  C_35
REMARK    6  A    between atoms: C_36  and  C_38
REMARK                            x       y       z     vdW  Elec       q    Type
REMARK                         _______ _______ _______ _____ _____    ______ ____
ROOT
ATOM      1  C   UNL     1      -9.070   4.943 131.732  0.00  0.00    +0.000 C 
ATOM      2  C   UNL     1      -9.181   6.452 131.713  0.00  0.00    +0.000 C 
ATOM      3  C   UNL     1      -7.619   6.662 131.260  0.00  0.00    +0.000 C 
ATOM      4  C   UNL     1      -6.147   5.637 132.169  0.00  0.00    +0.000 C 
ATOM      5  O   UNL     1      -6.525   4.789 131.206  0.00  0.00    +0.000 OA
ATOM      6  C   UNL     1      -7.638   4.509 132.071  0.00  0.00    +0.000 C 
ATOM      7  C   UNL     1      -7.558   5.757 133.614  0.00  0.00    +0.000 C 
ATOM      8  N   UNL     1      -7.428   3.092 131.879  0.00  0.00    +0.000 N 
ATOM      9  C   UNL     1      -7.397   2.115 130.761  0.00  0.00    +0.000 A 
ATOM     10  C   UNL     1      -7.124   0.821 131.298  0.00  0.00    +0.000 A 
ATOM     11  C   UNL     1      -7.296  -0.293 130.468  0.00  0.00    +0.000 A 
ATOM     12  C   UNL     1      -7.813  -0.215 129.184  0.00  0.00    +0.000 A 
ATOM     13  C   UNL     1      -8.019   0.995 128.612  0.00  0.00    +0.000 A 
ATOM     14  C   UNL     1      -7.580   2.096 129.321  0.00  0.00    +0.000 A 
ATOM     15  C   UNL     1      -6.640   1.011 132.571  0.00  0.00    +0.000 A 
ATOM     16  C   UNL     1      -6.711   2.372 132.711  0.00  0.00    +0.000 A 
ATOM     17  C   UNL     1      -6.005   2.955 133.689  0.00  0.00    +0.000 A 
ATOM     18  C   UNL     1      -5.675   1.889 134.634  0.00  0.00    +0.000 A 
ATOM     19  C   UNL     1      -5.023   2.572 135.599  0.00  0.00    +0.000 A 
ATOM     20  C   UNL     1      -5.736   4.021 135.495  0.00  0.00    +0.000 A 
ATOM     21  C   UNL     1      -5.390   4.172 137.189  0.00  0.00    +0.000 A 
ATOM     22  C   UNL     1      -4.282   3.509 138.192  0.00  0.00    +0.000 A 
ATOM     23  C   UNL     1      -3.410   2.588 137.735  0.00  0.00    +0.000 A 
ATOM     24  C   UNL     1      -3.944   2.059 136.576  0.00  0.00    +0.000 A 
ATOM     25  N   UNL     1      -5.742   4.385 133.772  0.00  0.00    +0.000 N 
ATOM     26  C   UNL     1      -5.721   0.429 134.612  0.00  0.00    +0.000 A 
ATOM     27  C   UNL     1      -6.191  -0.007 133.385  0.00  0.00    +0.000 A 
ATOM     28  C   UNL     1      -6.193  -1.440 133.203  0.00  0.00    +0.000 C 
ATOM     29  N   UNL     1      -5.972  -1.829 134.565  0.00  0.00    +0.000 N 
ATOM     30  C   UNL     1      -5.425  -0.796 135.369  0.00  0.00    +0.000 C 
ATOM     31  O   UNL     1      -4.843  -1.071 136.414  0.00  0.00    +0.000 OA
ATOM     32  H   UNL     1      -6.121  -2.778 134.888  0.00  0.00    +0.000 HD
ENDROOT
BRANCH   2  33
ATOM     33  N   UNL     1     -10.600   6.794 131.204  0.00  0.00    +0.000 N 
ATOM     34  C   UNL     1     -11.858   6.427 131.868  0.00  0.00    +0.000 C 
ATOM     35  C   UNL     1     -10.622   7.309 129.845  0.00  0.00    +0.000 C 
ATOM     36  O   UNL     1      -9.616   7.430 129.141  0.00  0.00    +0.000 OA
BRANCH  35  37
ATOM     37  C   UNL     1     -11.876   7.664 129.147  0.00  0.00    +0.000 A 
ATOM     38  C   UNL     1     -12.561   6.741 128.365  0.00  0.00    +0.000 A 
ATOM     39  C   UNL     1     -13.461   7.203 127.411  0.00  0.00    +0.000 A 
ATOM     40  C   UNL     1     -13.887   8.526 127.446  0.00  0.00    +0.000 A 
ATOM     41  C   UNL     1     -13.423   9.378 128.446  0.00  0.00    +0.000 A 
ATOM     42  C   UNL     1     -12.354   8.978 129.246  0.00  0.00    +0.000 A 
ENDBRANCH  35  37
ENDBRANCH   2  33
BRANCH   1  44
ATOM     43  C   UNL     1     -10.596   3.447 130.717  0.00  0.00    +0.000 C 
ATOM     44  O   UNL     1      -9.749   4.525 130.543  0.00  0.00    +0.000 OA
ENDBRANCH   1  44
TORSDOF 3
ENDMDL
MODEL 2
REMARK VINA RESULT:     -10.6      4.492      8.989
REMARK  Name = Midostaurin
REMARK  6 active torsions:
REMARK  status: ('A' for Active; 'I' for Inactive)
REMARK    1  A    between atoms: C_1  and  O_2
REMARK    2  A    between atoms: O_2  and  C_3
REMARK    3  A    between atoms: C_4  and  N_34
REMARK    4  A    between atoms: C_8  and  C_9
REMARK    5  A    between atoms: N_34  and  C_35
REMARK    6  A    between atoms: C_36  and  C_38
REMARK                            x       y       z     vdW  Elec       q    Type
REMARK                         _______ _______ _______ _____ _____    ______ ____
ROOT
ATOM      1  C   UNL     1      -5.911   2.594 129.517  0.00  0.00    +0.000 C 
ATOM      2  C   UNL     1      -6.577   3.792 130.157  0.00  0.00    +0.000 C 
ATOM      3  C   UNL     1      -7.987   2.996 130.416  0.00  0.00    +0.000 C 
ATOM      4  C   UNL     1      -8.807   1.874 128.963  0.00  0.00    +0.000 C 
ATOM      5  O   UNL     1      -7.974   1.007 129.549  0.00  0.00    +0.000 OA
ATOM      6  C   UNL     1      -6.948   1.702 128.822  0.00  0.00    +0.000 C 
ATOM      7  C   UNL     1      -7.776   3.264 127.916  0.00  0.00    +0.000 C 
ATOM      8  N   UNL     1      -6.395   0.437 128.396  0.00  0.00    +0.000 N 
ATOM      9  C   UNL     1      -5.835  -0.794 129.009  0.00  0.00    +0.000 A 
ATOM     10  C   UNL     1      -5.459  -1.690 127.964  0.00  0.00    +0.000 A 
ATOM     11  C   UNL     1      -4.680  -2.805 128.293  0.00  0.00    +0.000 A 
ATOM     12  C   UNL     1      -4.169  -3.031 129.562  0.00  0.00    +0.000 A 
ATOM     13  C   UNL     1      -4.558  -2.247 130.595  0.00  0.00    +0.000 A 
ATOM     14  C   UNL     1      -5.550  -1.324 130.330  0.00  0.00    +0.000 A 
ATOM     15  C   UNL     1      -6.075  -1.248 126.817  0.00  0.00    +0.000 A 
ATOM     16  C   UNL     1      -6.715  -0.114 127.248  0.00  0.00    +0.000 A 
ATOM     17  C   UNL     1      -7.696   0.395 126.492  0.00  0.00    +0.000 A 
ATOM     18  C   UNL     1      -7.519  -0.184 125.161  0.00  0.00    +0.000 A 
ATOM     19  C   UNL     1      -8.504   0.424 124.465  0.00  0.00    +0.000 A 
ATOM     20  C   UNL     1      -8.616   1.837 125.247  0.00  0.00    +0.000 A 
ATOM     21  C   UNL     1      -9.129   2.494 123.726  0.00  0.00    +0.000 A 
ATOM     22  C   UNL     1      -9.827   1.866 122.387  0.00  0.00    +0.000 A 
ATOM     23  C   UNL     1     -10.072   0.543 122.300  0.00  0.00    +0.000 A 
ATOM     24  C   UNL     1      -9.251  -0.087 123.214  0.00  0.00    +0.000 A 
ATOM     25  N   UNL     1      -8.653   1.393 126.951  0.00  0.00    +0.000 N 
ATOM     26  C   UNL     1      -6.738  -1.285 124.602  0.00  0.00    +0.000 A 
ATOM     27  C   UNL     1      -6.012  -1.903 125.607  0.00  0.00    +0.000 A 
ATOM     28  C   UNL     1      -5.271  -3.072 125.196  0.00  0.00    +0.000 C 
ATOM     29  N   UNL     1      -5.376  -2.905 123.776  0.00  0.00    +0.000 N 
ATOM     30  C   UNL     1      -6.435  -2.047 123.382  0.00  0.00    +0.000 C 
ATOM     31  O   UNL     1      -6.881  -2.103 122.240  0.00  0.00    +0.000 OA
ATOM     32  H   UNL     1      -4.794  -3.421 123.125  0.00  0.00    +0.000 HD
ENDROOT
BRANCH   2  33
ATOM     33  N   UNL     1      -5.490   4.535 130.966  0.00  0.00    +0.000 N 
ATOM     34  C   UNL     1      -5.383   4.564 132.430  0.00  0.00    +0.000 C 
ATOM     35  C   UNL     1      -4.689   5.445 130.163  0.00  0.00    +0.000 C 
ATOM     36  O   UNL     1      -4.873   5.642 128.959  0.00  0.00    +0.000 OA
BRANCH  35  37
ATOM     37  C   UNL     1      -3.617   6.284 130.740  0.00  0.00    +0.000 A 
ATOM     38  C   UNL     1      -2.318   5.810 130.884  0.00  0.00    +0.000 A 
ATOM     39  C   UNL     1      -1.469   6.436 131.789  0.00  0.00    +0.000 A 
ATOM     40  C   UNL     1      -1.808   7.680 132.309  0.00  0.00    +0.000 A 
ATOM     41  C   UNL     1      -2.990   8.300 131.908  0.00  0.00    +0.000 A 
ATOM     42  C   UNL     1      -3.938   7.572 131.192  0.00  0.00    +0.000 A 
ENDBRANCH  35  37
ENDBRANCH   2  33
BRANCH   1  44
ATOM     43  C   UNL     1      -3.729   1.876 130.085  0.00  0.00    +0.000 C 
ATOM     44  O   UNL     1      -5.018   2.108 130.526  0.00  0.00    +0.000 OA
ENDBRANCH   1  44
TORSDOF 3
ENDMDL
MODEL 3
REMARK VINA RESULT:     -10.1      3.725      8.507
REMARK  Name = Midostaurin
REMARK  6 active torsions:
REMARK  status: ('A' for Active; 'I' for Inactive)
REMARK    1  A    between atoms: C_1  and  O_2
REMARK    2  A    between atoms: O_2  and  C_3
REMARK    3  A    between atoms: C_4  and  N_34
REMARK    4  A    between atoms: C_8  and  C_9
REMARK    5  A    between atoms: N_34  and  C_35
REMARK    6  A    between atoms: C_36  and  C_38
REMARK                            x       y       z     vdW  Elec       q    Type
REMARK                         _______ _______ _______ _____ _____    ______ ____
ROOT
ATOM      1  C   UNL     1      -6.333   3.228 130.638  0.00  0.00    +0.000 C 
ATOM      2  C   UNL     1      -6.464   4.707 130.928  0.00  0.00    +0.000 C 
ATOM      3  C   UNL     1      -8.103   4.669 130.904  0.00  0.00    +0.000 C 
ATOM      4  C   UNL     1      -9.080   3.701 129.437  0.00  0.00    +0.000 C 
ATOM      5  O   UNL     1      -8.866   2.722 130.324  0.00  0.00    +0.000 OA
ATOM      6  C   UNL     1      -7.524   2.728 129.811  0.00  0.00    +0.000 C 
ATOM      7  C   UNL     1      -7.352   4.240 128.534  0.00  0.00    +0.000 C 
ATOM      8  N   UNL     1      -7.561   1.288 129.705  0.00  0.00    +0.000 N 
ATOM      9  C   UNL     1      -7.759   0.112 130.590  0.00  0.00    +0.000 A 
ATOM     10  C   UNL     1      -7.666  -1.072 129.799  0.00  0.00    +0.000 A 
ATOM     11  C   UNL     1      -7.569  -2.304 130.456  0.00  0.00    +0.000 A 
ATOM     12  C   UNL     1      -7.457  -2.428 131.833  0.00  0.00    +0.000 A 
ATOM     13  C   UNL     1      -7.611  -1.339 132.623  0.00  0.00    +0.000 A 
ATOM     14  C   UNL     1      -7.993  -0.170 131.995  0.00  0.00    +0.000 A 
ATOM     15  C   UNL     1      -7.790  -0.685 128.486  0.00  0.00    +0.000 A 
ATOM     16  C   UNL     1      -7.892   0.677 128.590  0.00  0.00    +0.000 A 
ATOM     17  C   UNL     1      -8.370   1.367 127.546  0.00  0.00    +0.000 A 
ATOM     18  C   UNL     1      -8.251   0.479 126.391  0.00  0.00    +0.000 A 
ATOM     19  C   UNL     1      -8.697   1.270 125.391  0.00  0.00    +0.000 A 
ATOM     20  C   UNL     1      -8.274   2.734 125.936  0.00  0.00    +0.000 A 
ATOM     21  C   UNL     1      -8.142   3.179 124.264  0.00  0.00    +0.000 A 
ATOM     22  C   UNL     1      -8.802   2.618 122.877  0.00  0.00    +0.000 A 
ATOM     23  C   UNL     1      -9.617   1.544 122.893  0.00  0.00    +0.000 A 
ATOM     24  C   UNL     1      -9.361   0.854 124.061  0.00  0.00    +0.000 A 
ATOM     25  N   UNL     1      -8.815   2.752 127.612  0.00  0.00    +0.000 N 
ATOM     26  C   UNL     1      -7.989  -0.945 126.196  0.00  0.00    +0.000 A 
ATOM     27  C   UNL     1      -7.827  -1.564 127.424  0.00  0.00    +0.000 A 
ATOM     28  C   UNL     1      -7.658  -2.997 127.370  0.00  0.00    +0.000 C 
ATOM     29  N   UNL     1      -7.420  -3.132 125.963  0.00  0.00    +0.000 N 
ATOM     30  C   UNL     1      -7.866  -2.021 125.202  0.00  0.00    +0.000 C 
ATOM     31  O   UNL     1      -8.077  -2.142 124.000  0.00  0.00    +0.000 OA
ATOM     32  H   UNL     1      -7.041  -3.980 125.557  0.00  0.00    +0.000 HD
ENDROOT
BRANCH   2  33
ATOM     33  N   UNL     1      -5.318   5.081 131.895  0.00  0.00    +0.000 N 
ATOM     34  C   UNL     1      -5.427   5.170 133.357  0.00  0.00    +0.000 C 
ATOM     35  C   UNL     1      -4.138   5.602 131.224  0.00  0.00    +0.000 C 
ATOM     36  O   UNL     1      -4.060   5.770 130.005  0.00  0.00    +0.000 OA
BRANCH  35  37
ATOM     37  C   UNL     1      -2.939   6.057 131.960  0.00  0.00    +0.000 A 
ATOM     38  C   UNL     1      -2.794   7.377 132.370  0.00  0.00    +0.000 A 
ATOM     39  C   UNL     1      -1.522   7.856 132.662  0.00  0.00    +0.000 A 
ATOM     40  C   UNL     1      -0.469   6.963 132.832  0.00  0.00    +0.000 A 
ATOM     41  C   UNL     1      -0.698   5.593 132.724  0.00  0.00    +0.000 A 
ATOM     42  C   UNL     1      -1.909   5.138 132.205  0.00  0.00    +0.000 A 
ENDBRANCH  35  37
ENDBRANCH   2  33
BRANCH   1  44
ATOM     43  C   UNL     1      -4.845   1.846 131.853  0.00  0.00    +0.000 C 
ATOM     44  O   UNL     1      -5.965   2.654 131.898  0.00  0.00    +0.000 OA
ENDBRANCH   1  44
TORSDOF 3
ENDMDL
MODEL 4
REMARK VINA RESULT:     -10.0      3.493      6.485
REMARK  Name = Midostaurin
REMARK  6 active torsions:
REMARK  status: ('A' for Active; 'I' for Inactive)
REMARK    1  A    between atoms: C_1  and  O_2
REMARK    2  A    between atoms: O_2  and  C_3
REMARK    3  A    between atoms: C_4  and  N_34
REMARK    4  A    between atoms: C_8  and  C_9
REMARK    5  A    between atoms: N_34  and  C_35
REMARK    6  A    between atoms: C_36  and  C_38
REMARK                            x       y       z     vdW  Elec       q    Type
REMARK                         _______ _______ _______ _____ _____    ______ ____
ROOT
ATOM      1  C   UNL     1      -9.175   5.284 130.237  0.00  0.00    +0.000 C 
ATOM      2  C   UNL     1     -10.610   4.865 130.473  0.00  0.00    +0.000 C 
ATOM      3  C   UNL     1     -10.185   3.524 131.317  0.00  0.00    +0.000 C 
ATOM      4  C   UNL     1      -8.737   2.307 130.636  0.00  0.00    +0.000 C 
ATOM      5  O   UNL     1      -8.038   3.213 131.329  0.00  0.00    +0.000 OA
ATOM      6  C   UNL     1      -8.253   4.059 130.188  0.00  0.00    +0.000 C 
ATOM      7  C   UNL     1      -9.468   3.116 128.933  0.00  0.00    +0.000 C 
ATOM      8  N   UNL     1      -6.853   4.419 130.194  0.00  0.00    +0.000 N 
ATOM      9  C   UNL     1      -5.871   5.048 131.113  0.00  0.00    +0.000 A 
ATOM     10  C   UNL     1      -4.605   5.102 130.456  0.00  0.00    +0.000 A 
ATOM     11  C   UNL     1      -3.591   5.877 131.029  0.00  0.00    +0.000 A 
ATOM     12  C   UNL     1      -3.782   6.678 132.146  0.00  0.00    +0.000 A 
ATOM     13  C   UNL     1      -4.942   6.603 132.839  0.00  0.00    +0.000 A 
ATOM     14  C   UNL     1      -5.835   5.627 132.444  0.00  0.00    +0.000 A 
ATOM     15  C   UNL     1      -4.674   4.241 129.386  0.00  0.00    +0.000 A 
ATOM     16  C   UNL     1      -5.967   3.792 129.454  0.00  0.00    +0.000 A 
ATOM     17  C   UNL     1      -6.297   2.681 128.783  0.00  0.00    +0.000 A 
ATOM     18  C   UNL     1      -5.245   2.488 127.786  0.00  0.00    +0.000 A 
ATOM     19  C   UNL     1      -5.688   1.393 127.130  0.00  0.00    +0.000 A 
ATOM     20  C   UNL     1      -7.290   1.557 127.291  0.00  0.00    +0.000 A 
ATOM     21  C   UNL     1      -7.401   0.714 125.779  0.00  0.00    +0.000 A 
ATOM     22  C   UNL     1      -6.429  -0.330 124.979  0.00  0.00    +0.000 A 
ATOM     23  C   UNL     1      -5.221  -0.660 125.478  0.00  0.00    +0.000 A 
ATOM     24  C   UNL     1      -4.864   0.330 126.373  0.00  0.00    +0.000 A 
ATOM     25  N   UNL     1      -7.523   1.925 128.998  0.00  0.00    +0.000 N 
ATOM     26  C   UNL     1      -3.913   3.043 127.560  0.00  0.00    +0.000 A 
ATOM     27  C   UNL     1      -3.614   3.963 128.551  0.00  0.00    +0.000 A 
ATOM     28  C   UNL     1      -2.280   4.514 128.493  0.00  0.00    +0.000 C 
ATOM     29  N   UNL     1      -1.920   4.065 127.180  0.00  0.00    +0.000 N 
ATOM     30  C   UNL     1      -2.715   2.989 126.709  0.00  0.00    +0.000 C 
ATOM     31  O   UNL     1      -2.304   2.268 125.805  0.00  0.00    +0.000 OA
ATOM     32  H   UNL     1      -1.119   4.437 126.681  0.00  0.00    +0.000 HD
ENDROOT
BRANCH   2  33
ATOM     33  N   UNL     1     -11.432   6.158 130.672  0.00  0.00    +0.000 N 
ATOM     34  C   UNL     1     -11.997   6.626 131.945  0.00  0.00    +0.000 C 
ATOM     35  C   UNL     1     -11.838   6.786 129.425  0.00  0.00    +0.000 C 
ATOM     36  O   UNL     1     -11.589   6.322 128.310  0.00  0.00    +0.000 OA
BRANCH  35  37
ATOM     37  C   UNL     1     -12.662   8.013 129.382  0.00  0.00    +0.000 A 
ATOM     38  C   UNL     1     -13.476   8.305 128.293  0.00  0.00    +0.000 A 
ATOM     39  C   UNL     1     -13.887   9.618 128.094  0.00  0.00    +0.000 A 
ATOM     40  C   UNL     1     -13.743  10.551 129.114  0.00  0.00    +0.000 A 
ATOM     41  C   UNL     1     -13.200  10.162 130.337  0.00  0.00    +0.000 A 
ATOM     42  C   UNL     1     -12.581   8.919 130.448  0.00  0.00    +0.000 A 
ENDBRANCH  35  37
ENDBRANCH   2  33
BRANCH   1  44
ATOM     43  C   UNL     1      -8.377   7.485 130.579  0.00  0.00    +0.000 C 
ATOM     44  O   UNL     1      -8.974   6.374 131.144  0.00  0.00    +0.000 OA
ENDBRANCH   1  44
TORSDOF 3
ENDMDL
MODEL 5
REMARK VINA RESULT:      -9.7      3.725      7.738
REMARK  Name = Midostaurin
REMARK  6 active torsions:
REMARK  status: ('A' for Active; 'I' for Inactive)
REMARK    1  A    between atoms: C_1  and  O_2
REMARK    2  A    between atoms: O_2  and  C_3
REMARK    3  A    between atoms: C_4  and  N_34
REMARK    4  A    between atoms: C_8  and  C_9
REMARK    5  A    between atoms: N_34  and  C_35
REMARK    6  A    between atoms: C_36  and  C_38
REMARK                            x       y       z     vdW  Elec       q    Type
REMARK                         _______ _______ _______ _____ _____    ______ ____
ROOT
ATOM      1  C   UNL     1      -5.951   2.495 131.208  0.00  0.00    +0.000 C 
ATOM      2  C   UNL     1      -7.248   1.720 131.279  0.00  0.00    +0.000 C 
ATOM      3  C   UNL     1      -8.177   3.064 131.137  0.00  0.00    +0.000 C 
ATOM      4  C   UNL     1      -7.767   4.706 132.222  0.00  0.00    +0.000 C 
ATOM      5  O   UNL     1      -6.990   4.881 131.147  0.00  0.00    +0.000 OA
ATOM      6  C   UNL     1      -6.133   3.911 131.771  0.00  0.00    +0.000 C 
ATOM      7  C   UNL     1      -7.051   3.217 133.389  0.00  0.00    +0.000 C 
ATOM      8  N   UNL     1      -4.992   4.759 131.516  0.00  0.00    +0.000 N 
ATOM      9  C   UNL     1      -4.300   5.373 130.355  0.00  0.00    +0.000 A 
ATOM     10  C   UNL     1      -3.187   6.126 130.836  0.00  0.00    +0.000 A 
ATOM     11  C   UNL     1      -2.244   6.585 129.909  0.00  0.00    +0.000 A 
ATOM     12  C   UNL     1      -2.279   6.261 128.561  0.00  0.00    +0.000 A 
ATOM     13  C   UNL     1      -3.351   5.610 128.052  0.00  0.00    +0.000 A 
ATOM     14  C   UNL     1      -4.415   5.409 128.908  0.00  0.00    +0.000 A 
ATOM     15  C   UNL     1      -3.378   6.302 132.187  0.00  0.00    +0.000 A 
ATOM     16  C   UNL     1      -4.538   5.608 132.410  0.00  0.00    +0.000 A 
ATOM     17  C   UNL     1      -5.217   5.841 133.541  0.00  0.00    +0.000 A 
ATOM     18  C   UNL     1      -4.273   6.489 134.450  0.00  0.00    +0.000 A 
ATOM     19  C   UNL     1      -5.021   6.630 135.565  0.00  0.00    +0.000 A 
ATOM     20  C   UNL     1      -6.017   5.361 135.440  0.00  0.00    +0.000 A 
ATOM     21  C   UNL     1      -6.052   5.377 137.174  0.00  0.00    +0.000 A 
ATOM     22  C   UNL     1      -5.792   6.523 138.312  0.00  0.00    +0.000 A 
ATOM     23  C   UNL     1      -5.417   7.768 137.956  0.00  0.00    +0.000 A 
ATOM     24  C   UNL     1      -4.886   7.687 136.683  0.00  0.00    +0.000 A 
ATOM     25  N   UNL     1      -6.591   5.418 133.775  0.00  0.00    +0.000 N 
ATOM     26  C   UNL     1      -2.957   7.108 134.313  0.00  0.00    +0.000 A 
ATOM     27  C   UNL     1      -2.546   7.050 132.991  0.00  0.00    +0.000 A 
ATOM     28  C   UNL     1      -1.297   7.718 132.708  0.00  0.00    +0.000 C 
ATOM     29  N   UNL     1      -0.847   7.910 134.056  0.00  0.00    +0.000 N 
ATOM     30  C   UNL     1      -1.883   7.822 135.019  0.00  0.00    +0.000 C 
ATOM     31  O   UNL     1      -1.737   8.323 136.130  0.00  0.00    +0.000 OA
ATOM     32  H   UNL     1       0.110   8.163 134.275  0.00  0.00    +0.000 HD
ENDROOT
BRANCH   2  33
ATOM     33  N   UNL     1      -7.014   0.379 130.547  0.00  0.00    +0.000 N 
ATOM     34  C   UNL     1      -7.629  -0.020 129.274  0.00  0.00    +0.000 C 
ATOM     35  C   UNL     1      -6.309  -0.606 131.350  0.00  0.00    +0.000 C 
ATOM     36  O   UNL     1      -5.959  -0.416 132.517  0.00  0.00    +0.000 OA
BRANCH  35  37
ATOM     37  C   UNL     1      -6.012  -1.969 130.860  0.00  0.00    +0.000 A 
ATOM     38  C   UNL     1      -6.767  -3.067 131.258  0.00  0.00    +0.000 A 
ATOM     39  C   UNL     1      -6.223  -4.340 131.133  0.00  0.00    +0.000 A 
ATOM     40  C   UNL     1      -5.087  -4.533 130.355  0.00  0.00    +0.000 A 
ATOM     41  C   UNL     1      -4.508  -3.452 129.693  0.00  0.00    +0.000 A 
ATOM     42  C   UNL     1      -4.914  -2.156 130.009  0.00  0.00    +0.000 A 
ENDBRANCH  35  37
ENDBRANCH   2  33
BRANCH   1  44
ATOM     43  C   UNL     1      -4.151   1.801 129.838  0.00  0.00    +0.000 C 
ATOM     44  O   UNL     1      -5.460   2.239 129.888  0.00  0.00    +0.000 OA
ENDBRANCH   1  44
TORSDOF 3
ENDMDL
MODEL 6
REMARK VINA RESULT:      -9.7      4.286      7.620
REMARK  Name = Midostaurin
REMARK  6 active torsions:
REMARK  status: ('A' for Active; 'I' for Inactive)
REMARK    1  A    between atoms: C_1  and  O_2
REMARK    2  A    between atoms: O_2  and  C_3
REMARK    3  A    between atoms: C_4  and  N_34
REMARK    4  A    between atoms: C_8  and  C_9
REMARK    5  A    between atoms: N_34  and  C_35
REMARK    6  A    between atoms: C_36  and  C_38
REMARK                            x       y       z     vdW  Elec       q    Type
REMARK                         _______ _______ _______ _____ _____    ______ ____
ROOT
ATOM      1  C   UNL     1      -5.407   2.566 133.069  0.00  0.00    +0.000 C 
ATOM      2  C   UNL     1      -6.004   3.891 132.647  0.00  0.00    +0.000 C 
ATOM      3  C   UNL     1      -7.530   3.447 133.052  0.00  0.00    +0.000 C 
ATOM      4  C   UNL     1      -8.246   1.649 132.511  0.00  0.00    +0.000 C 
ATOM      5  O   UNL     1      -7.639   1.370 133.670  0.00  0.00    +0.000 OA
ATOM      6  C   UNL     1      -6.427   1.433 132.901  0.00  0.00    +0.000 C 
ATOM      7  C   UNL     1      -6.886   2.034 131.064  0.00  0.00    +0.000 C 
ATOM      8  N   UNL     1      -5.985   0.195 133.501  0.00  0.00    +0.000 N 
ATOM      9  C   UNL     1      -5.698  -0.344 134.854  0.00  0.00    +0.000 A 
ATOM     10  C   UNL     1      -5.280  -1.702 134.722  0.00  0.00    +0.000 A 
ATOM     11  C   UNL     1      -4.718  -2.336 135.836  0.00  0.00    +0.000 A 
ATOM     12  C   UNL     1      -4.452  -1.685 137.031  0.00  0.00    +0.000 A 
ATOM     13  C   UNL     1      -4.895  -0.420 137.223  0.00  0.00    +0.000 A 
ATOM     14  C   UNL     1      -5.701   0.108 136.234  0.00  0.00    +0.000 A 
ATOM     15  C   UNL     1      -5.641  -2.110 133.459  0.00  0.00    +0.000 A 
ATOM     16  C   UNL     1      -6.186  -0.970 132.928  0.00  0.00    +0.000 A 
ATOM     17  C   UNL     1      -6.958  -1.075 131.838  0.00  0.00    +0.000 A 
ATOM     18  C   UNL     1      -6.647  -2.377 131.251  0.00  0.00    +0.000 A 
ATOM     19  C   UNL     1      -7.418  -2.368 130.143  0.00  0.00    +0.000 A 
ATOM     20  C   UNL     1      -7.467  -0.785 129.806  0.00  0.00    +0.000 A 
ATOM     21  C   UNL     1      -7.638  -1.271 128.150  0.00  0.00    +0.000 A 
ATOM     22  C   UNL     1      -8.189  -2.620 127.405  0.00  0.00    +0.000 A 
ATOM     23  C   UNL     1      -8.589  -3.685 128.128  0.00  0.00    +0.000 A 
ATOM     24  C   UNL     1      -8.016  -3.569 129.379  0.00  0.00    +0.000 A 
ATOM     25  N   UNL     1      -7.836  -0.020 131.350  0.00  0.00    +0.000 N 
ATOM     26  C   UNL     1      -5.939  -3.575 131.694  0.00  0.00    +0.000 A 
ATOM     27  C   UNL     1      -5.472  -3.393 132.986  0.00  0.00    +0.000 A 
ATOM     28  C   UNL     1      -4.835  -4.548 133.575  0.00  0.00    +0.000 C 
ATOM     29  N   UNL     1      -4.688  -5.340 132.389  0.00  0.00    +0.000 N 
ATOM     30  C   UNL     1      -5.546  -4.945 131.332  0.00  0.00    +0.000 C 
ATOM     31  O   UNL     1      -5.807  -5.728 130.424  0.00  0.00    +0.000 OA
ATOM     32  H   UNL     1      -4.082  -6.152 132.353  0.00  0.00    +0.000 HD
ENDROOT
BRANCH   2  33
ATOM     33  N   UNL     1      -4.972   4.985 133.005  0.00  0.00    +0.000 N 
ATOM     34  C   UNL     1      -5.058   5.901 134.150  0.00  0.00    +0.000 C 
ATOM     35  C   UNL     1      -3.994   5.227 131.956  0.00  0.00    +0.000 C 
ATOM     36  O   UNL     1      -4.000   4.648 130.867  0.00  0.00    +0.000 OA
BRANCH  35  37
ATOM     37  C   UNL     1      -2.939   6.256 132.072  0.00  0.00    +0.000 A 
ATOM     38  C   UNL     1      -1.607   5.913 132.278  0.00  0.00    +0.000 A 
ATOM     39  C   UNL     1      -0.739   6.867 132.796  0.00  0.00    +0.000 A 
ATOM     40  C   UNL     1      -1.117   8.205 132.821  0.00  0.00    +0.000 A 
ATOM     41  C   UNL     1      -2.357   8.585 132.313  0.00  0.00    +0.000 A 
ATOM     42  C   UNL     1      -3.306   7.607 132.016  0.00  0.00    +0.000 A 
ENDBRANCH  35  37
ENDBRANCH   2  33
BRANCH   1  44
ATOM     43  C   UNL     1      -3.438   2.453 134.377  0.00  0.00    +0.000 C 
ATOM     44  O   UNL     1      -4.760   2.852 134.314  0.00  0.00    +0.000 OA
ENDBRANCH   1  44
TORSDOF 3
ENDMDL
MODEL 7
REMARK VINA RESULT:      -9.6      2.625      3.534
REMARK  Name = Midostaurin
REMARK  6 active torsions:
REMARK  status: ('A' for Active; 'I' for Inactive)
REMARK    1  A    between atoms: C_1  and  O_2
REMARK    2  A    between atoms: O_2  and  C_3
REMARK    3  A    between atoms: C_4  and  N_34
REMARK    4  A    between atoms: C_8  and  C_9
REMARK    5  A    between atoms: N_34  and  C_35
REMARK    6  A    between atoms: C_36  and  C_38
REMARK                            x       y       z     vdW  Elec       q    Type
REMARK                         _______ _______ _______ _____ _____    ______ ____
ROOT
ATOM      1  C   UNL     1      -7.615   3.340 130.546  0.00  0.00    +0.000 C 
ATOM      2  C   UNL     1      -7.836   4.646 131.278  0.00  0.00    +0.000 C 
ATOM      3  C   UNL     1      -6.278   5.125 131.103  0.00  0.00    +0.000 C 
ATOM      4  C   UNL     1      -4.770   3.848 131.475  0.00  0.00    +0.000 C 
ATOM      5  O   UNL     1      -5.048   3.586 130.193  0.00  0.00    +0.000 OA
ATOM      6  C   UNL     1      -6.169   2.858 130.720  0.00  0.00    +0.000 C 
ATOM      7  C   UNL     1      -6.240   3.158 132.682  0.00  0.00    +0.000 C 
ATOM      8  N   UNL     1      -5.848   1.744 129.858  0.00  0.00    +0.000 N 
ATOM      9  C   UNL     1      -5.703   1.467 128.407  0.00  0.00    +0.000 A 
ATOM     10  C   UNL     1      -5.356   0.093 128.239  0.00  0.00    +0.000 A 
ATOM     11  C   UNL     1      -5.413  -0.455 126.953  0.00  0.00    +0.000 A 
ATOM     12  C   UNL     1      -5.886   0.238 125.849  0.00  0.00    +0.000 A 
ATOM     13  C   UNL     1      -6.158   1.561 125.948  0.00  0.00    +0.000 A 
ATOM     14  C   UNL     1      -5.829   2.171 127.142  0.00  0.00    +0.000 A 
ATOM     15  C   UNL     1      -4.936  -0.365 129.466  0.00  0.00    +0.000 A 
ATOM     16  C   UNL     1      -5.113   0.735 130.265  0.00  0.00    +0.000 A 
ATOM     17  C   UNL     1      -4.489   0.774 131.450  0.00  0.00    +0.000 A 
ATOM     18  C   UNL     1      -4.117  -0.607 131.752  0.00  0.00    +0.000 A 
ATOM     19  C   UNL     1      -3.554  -0.477 132.973  0.00  0.00    +0.000 A 
ATOM     20  C   UNL     1      -4.368   0.793 133.561  0.00  0.00    +0.000 A 
ATOM     21  C   UNL     1      -4.099   0.083 135.121  0.00  0.00    +0.000 A 
ATOM     22  C   UNL     1      -2.984  -0.947 135.731  0.00  0.00    +0.000 A 
ATOM     23  C   UNL     1      -2.029  -1.471 134.936  0.00  0.00    +0.000 A 
ATOM     24  C   UNL     1      -2.478  -1.365 133.634  0.00  0.00    +0.000 A 
ATOM     25  N   UNL     1      -4.335   1.976 132.257  0.00  0.00    +0.000 N 
ATOM     26  C   UNL     1      -4.055  -1.856 130.998  0.00  0.00    +0.000 A 
ATOM     27  C   UNL     1      -4.445  -1.633 129.688  0.00  0.00    +0.000 A 
ATOM     28  C   UNL     1      -4.334  -2.776 128.812  0.00  0.00    +0.000 C 
ATOM     29  N   UNL     1      -4.137  -3.790 129.807  0.00  0.00    +0.000 N 
ATOM     30  C   UNL     1      -3.699  -3.281 131.057  0.00  0.00    +0.000 C 
ATOM     31  O   UNL     1      -3.138  -4.020 131.860  0.00  0.00    +0.000 OA
ATOM     32  H   UNL     1      -4.228  -4.778 129.599  0.00  0.00    +0.000 HD
ENDROOT
BRANCH   2  33
ATOM     33  N   UNL     1      -9.256   5.134 130.912  0.00  0.00    +0.000 N 
ATOM     34  C   UNL     1     -10.456   4.291 130.826  0.00  0.00    +0.000 C 
ATOM     35  C   UNL     1      -9.288   6.493 130.397  0.00  0.00    +0.000 C 
ATOM     36  O   UNL     1      -8.283   7.186 130.227  0.00  0.00    +0.000 OA
BRANCH  35  37
ATOM     37  C   UNL     1     -10.537   7.147 129.950  0.00  0.00    +0.000 A 
ATOM     38  C   UNL     1     -10.659   7.692 128.676  0.00  0.00    +0.000 A 
ATOM     39  C   UNL     1     -11.645   8.643 128.442  0.00  0.00    +0.000 A 
ATOM     40  C   UNL     1     -12.669   8.820 129.367  0.00  0.00    +0.000 A 
ATOM     41  C   UNL     1     -12.709   8.032 130.515  0.00  0.00    +0.000 A 
ATOM     42  C   UNL     1     -11.602   7.256 130.854  0.00  0.00    +0.000 A 
ENDBRANCH  35  37
ENDBRANCH   2  33
BRANCH   1  44
ATOM     43  C   UNL     1      -8.904   2.459 128.768  0.00  0.00    +0.000 C 
ATOM     44  O   UNL     1      -8.216   3.551 129.263  0.00  0.00    +0.000 OA
ENDBRANCH   1  44
TORSDOF 3
ENDMDL
MODEL 8
REMARK VINA RESULT:      -9.5      4.210      6.796
REMARK  Name = Midostaurin
REMARK  6 active torsions:
REMARK  status: ('A' for Active; 'I' for Inactive)
REMARK    1  A    between atoms: C_1  and  O_2
REMARK    2  A    between atoms: O_2  and  C_3
REMARK    3  A    between atoms: C_4  and  N_34
REMARK    4  A    between atoms: C_8  and  C_9
REMARK    5  A    between atoms: N_34  and  C_35
REMARK    6  A    between atoms: C_36  and  C_38
REMARK                            x       y       z     vdW  Elec       q    Type
REMARK                         _______ _______ _______ _____ _____    ______ ____
ROOT
ATOM      1  C   UNL     1      -6.255   6.014 132.185  0.00  0.00    +0.000 C 
ATOM      2  C   UNL     1      -6.500   5.897 130.696  0.00  0.00    +0.000 C 
ATOM      3  C   UNL     1      -5.039   5.211 130.408  0.00  0.00    +0.000 C 
ATOM      4  C   UNL     1      -3.373   5.973 131.235  0.00  0.00    +0.000 C 
ATOM      5  O   UNL     1      -3.803   5.141 132.190  0.00  0.00    +0.000 OA
ATOM      6  C   UNL     1      -4.758   6.175 132.478  0.00  0.00    +0.000 C 
ATOM      7  C   UNL     1      -4.577   7.592 131.099  0.00  0.00    +0.000 C 
ATOM      8  N   UNL     1      -4.453   6.061 133.886  0.00  0.00    +0.000 N 
ATOM      9  C   UNL     1      -4.490   5.027 134.951  0.00  0.00    +0.000 A 
ATOM     10  C   UNL     1      -4.034   5.615 136.169  0.00  0.00    +0.000 A 
ATOM     11  C   UNL     1      -4.219   4.904 137.360  0.00  0.00    +0.000 A 
ATOM     12  C   UNL     1      -4.913   3.705 137.433  0.00  0.00    +0.000 A 
ATOM     13  C   UNL     1      -5.300   3.080 136.297  0.00  0.00    +0.000 A 
ATOM     14  C   UNL     1      -4.866   3.634 135.109  0.00  0.00    +0.000 A 
ATOM     15  C   UNL     1      -3.398   6.787 135.833  0.00  0.00    +0.000 A 
ATOM     16  C   UNL     1      -3.569   6.833 134.474  0.00  0.00    +0.000 A 
ATOM     17  C   UNL     1      -2.789   7.654 133.757  0.00  0.00    +0.000 A 
ATOM     18  C   UNL     1      -2.240   8.618 134.709  0.00  0.00    +0.000 A 
ATOM     19  C   UNL     1      -1.525   9.426 133.897  0.00  0.00    +0.000 A 
ATOM     20  C   UNL     1      -2.370   9.317 132.521  0.00  0.00    +0.000 A 
ATOM     21  C   UNL     1      -1.809  10.927 132.198  0.00  0.00    +0.000 A 
ATOM     22  C   UNL     1      -0.521  11.808 132.686  0.00  0.00    +0.000 A 
ATOM     23  C   UNL     1       0.358  11.301 133.574  0.00  0.00    +0.000 A 
ATOM     24  C   UNL     1      -0.281  10.274 134.241  0.00  0.00    +0.000 A 
ATOM     25  N   UNL     1      -2.644   7.590 132.310  0.00  0.00    +0.000 N 
ATOM     26  C   UNL     1      -2.161   8.713 136.165  0.00  0.00    +0.000 A 
ATOM     27  C   UNL     1      -2.755   7.602 136.740  0.00  0.00    +0.000 A 
ATOM     28  C   UNL     1      -2.656   7.530 138.179  0.00  0.00    +0.000 C 
ATOM     29  N   UNL     1      -2.217   8.872 138.430  0.00  0.00    +0.000 N 
ATOM     30  C   UNL     1      -1.658   9.509 137.293  0.00  0.00    +0.000 C 
ATOM     31  O   UNL     1      -0.917  10.477 137.432  0.00  0.00    +0.000 OA
ATOM     32  H   UNL     1      -2.237   9.283 139.357  0.00  0.00    +0.000 HD
ENDROOT
BRANCH   2  33
ATOM     33  N   UNL     1      -8.000   5.574 130.509  0.00  0.00    +0.000 N 
ATOM     34  C   UNL     1      -8.566   4.237 130.288  0.00  0.00    +0.000 C 
ATOM     35  C   UNL     1      -8.828   6.753 130.312  0.00  0.00    +0.000 C 
ATOM     36  O   UNL     1      -8.383   7.902 130.259  0.00  0.00    +0.000 OA
BRANCH  35  37
ATOM     37  C   UNL     1     -10.285   6.673 130.076  0.00  0.00    +0.000 A 
ATOM     38  C   UNL     1     -10.815   6.667 128.791  0.00  0.00    +0.000 A 
ATOM     39  C   UNL     1     -12.149   7.015 128.611  0.00  0.00    +0.000 A 
ATOM     40  C   UNL     1     -13.003   7.072 129.707  0.00  0.00    +0.000 A 
ATOM     41  C   UNL     1     -12.521   6.765 130.977  0.00  0.00    +0.000 A 
ATOM     42  C   UNL     1     -11.147   6.648 131.181  0.00  0.00    +0.000 A 
ENDBRANCH  35  37
ENDBRANCH   2  33
BRANCH   1  44
ATOM     43  C   UNL     1      -7.903   5.383 133.762  0.00  0.00    +0.000 C 
ATOM     44  O   UNL     1      -7.052   4.969 132.755  0.00  0.00    +0.000 OA
ENDBRANCH   1  44
TORSDOF 3
ENDMDL
MODEL 9
REMARK VINA RESULT:      -9.3      4.078      7.878
REMARK  Name = Midostaurin
REMARK  6 active torsions:
REMARK  status: ('A' for Active; 'I' for Inactive)
REMARK    1  A    between atoms: C_1  and  O_2
REMARK    2  A    between atoms: O_2  and  C_3
REMARK    3  A    between atoms: C_4  and  N_34
REMARK    4  A    between atoms: C_8  and  C_9
REMARK    5  A    between atoms: N_34  and  C_35
REMARK    6  A    between atoms: C_36  and  C_38
REMARK                            x       y       z     vdW  Elec       q    Type
REMARK                         _______ _______ _______ _____ _____    ______ ____
ROOT
ATOM      1  C   UNL     1      -4.476   4.240 132.349  0.00  0.00    +0.000 C 
ATOM      2  C   UNL     1      -5.080   5.591 132.666  0.00  0.00    +0.000 C 
ATOM      3  C   UNL     1      -6.508   4.949 133.156  0.00  0.00    +0.000 C 
ATOM      4  C   UNL     1      -7.411   3.522 132.066  0.00  0.00    +0.000 C 
ATOM      5  O   UNL     1      -6.590   2.804 132.841  0.00  0.00    +0.000 OA
ATOM      6  C   UNL     1      -5.565   3.242 131.935  0.00  0.00    +0.000 C 
ATOM      7  C   UNL     1      -6.366   4.546 130.670  0.00  0.00    +0.000 C 
ATOM      8  N   UNL     1      -5.070   1.888 131.844  0.00  0.00    +0.000 N 
ATOM      9  C   UNL     1      -4.533   0.837 132.746  0.00  0.00    +0.000 A 
ATOM     10  C   UNL     1      -4.221  -0.315 131.965  0.00  0.00    +0.000 A 
ATOM     11  C   UNL     1      -3.470  -1.337 132.558  0.00  0.00    +0.000 A 
ATOM     12  C   UNL     1      -2.928  -1.244 133.831  0.00  0.00    +0.000 A 
ATOM     13  C   UNL     1      -3.256  -0.203 134.630  0.00  0.00    +0.000 A 
ATOM     14  C   UNL     1      -4.224   0.660 134.154  0.00  0.00    +0.000 A 
ATOM     15  C   UNL     1      -4.858  -0.163 130.756  0.00  0.00    +0.000 A 
ATOM     16  C   UNL     1      -5.444   1.069 130.888  0.00  0.00    +0.000 A 
ATOM     17  C   UNL     1      -6.431   1.403 130.046  0.00  0.00    +0.000 A 
ATOM     18  C   UNL     1      -6.316   0.490 128.911  0.00  0.00    +0.000 A 
ATOM     19  C   UNL     1      -7.301   0.935 128.101  0.00  0.00    +0.000 A 
ATOM     20  C   UNL     1      -7.340   2.506 128.487  0.00  0.00    +0.000 A 
ATOM     21  C   UNL     1      -7.878   2.764 126.859  0.00  0.00    +0.000 A 
ATOM     22  C   UNL     1      -8.640   1.837 125.747  0.00  0.00    +0.000 A 
ATOM     23  C   UNL     1      -8.933   0.549 126.015  0.00  0.00    +0.000 A 
ATOM     24  C   UNL     1      -8.105   0.147 127.045  0.00  0.00    +0.000 A 
ATOM     25  N   UNL     1      -7.338   2.525 130.249  0.00  0.00    +0.000 N 
ATOM     26  C   UNL     1      -5.592  -0.750 128.643  0.00  0.00    +0.000 A 
ATOM     27  C   UNL     1      -4.856  -1.114 129.759  0.00  0.00    +0.000 A 
ATOM     28  C   UNL     1      -4.169  -2.380 129.653  0.00  0.00    +0.000 C 
ATOM     29  N   UNL     1      -4.314  -2.585 128.242  0.00  0.00    +0.000 N 
ATOM     30  C   UNL     1      -5.354  -1.817 127.660  0.00  0.00    +0.000 C 
ATOM     31  O   UNL     1      -5.838  -2.151 126.583  0.00  0.00    +0.000 OA
ATOM     32  H   UNL     1      -3.770  -3.277 127.737  0.00  0.00    +0.000 HD
ENDROOT
BRANCH   2  33
ATOM     33  N   UNL     1      -3.943   6.474 133.228  0.00  0.00    +0.000 N 
ATOM     34  C   UNL     1      -3.762   6.842 134.639  0.00  0.00    +0.000 C 
ATOM     35  C   UNL     1      -3.169   7.149 132.199  0.00  0.00    +0.000 C 
ATOM     36  O   UNL     1      -3.410   7.063 130.992  0.00  0.00    +0.000 OA
BRANCH  35  37
ATOM     37  C   UNL     1      -2.058   8.072 132.514  0.00  0.00    +0.000 A 
ATOM     38  C   UNL     1      -0.760   7.610 132.707  0.00  0.00    +0.000 A 
ATOM     39  C   UNL     1       0.142   8.408 133.401  0.00  0.00    +0.000 A 
ATOM     40  C   UNL     1      -0.152   9.748 133.628  0.00  0.00    +0.000 A 
ATOM     41  C   UNL     1      -1.342  10.287 133.145  0.00  0.00    +0.000 A 
ATOM     42  C   UNL     1      -2.336   9.437 132.663  0.00  0.00    +0.000 A 
ENDBRANCH  35  37
ENDBRANCH   2  33
BRANCH   1  44
ATOM     43  C   UNL     1      -2.289   3.654 133.038  0.00  0.00    +0.000 C 
ATOM     44  O   UNL     1      -3.569   3.998 133.430  0.00  0.00    +0.000 OA
ENDBRANCH   1  44
TORSDOF 3
ENDMDL
