MODEL 1
REMARK VINA RESULT:     -10.2      0.000      0.000
REMARK  Name = Mifepristone
REMARK  8 active torsions:
REMARK  status: ('A' for Active; 'I' for Inactive)
REMARK    1  A    between atoms: C_5  and  O_6
REMARK    2  A    between atoms: C_5  and  C_7
REMARK    3  A    between atoms: C_8  and  C_9
REMARK    4  A    between atoms: C_10  and  C_11
REMARK    5  A    between atoms: C_13  and  C_14
REMARK    6  A    between atoms: C_17  and  N_20
REMARK    7  A    between atoms: N_20  and  C_21
REMARK    8  A    between atoms: N_20  and  C_22
REMARK                            x       y       z     vdW  Elec       q    Type
REMARK                         _______ _______ _______ _____ _____    ______ ____
ROOT
ATOM      1  C   UNL     1      -7.727  -2.450 126.149  0.00  0.00    +0.000 C 
ATOM      2  C   UNL     1      -9.105  -2.744 126.406  0.00  0.00    +0.000 C 
ATOM      3  C   UNL     1      -8.689  -1.324 126.244  0.00  0.00    +0.000 C 
ATOM      4  C   UNL     1      -6.839  -0.956 125.261  0.00  0.00    +0.000 C 
ATOM      5  C   UNL     1      -8.145  -1.202 124.817  0.00  0.00    +0.000 C 
ATOM      6  C   UNL     1      -8.562  -1.701 123.507  0.00  0.00    +0.000 C 
ATOM      7  C   UNL     1      -8.532   0.579 125.298  0.00  0.00    +0.000 C 
ATOM      8  C   UNL     1      -7.650   0.986 126.725  0.00  0.00    +0.000 C 
ATOM      9  C   UNL     1      -7.499  -0.080 127.981  0.00  0.00    +0.000 C 
ATOM     10  C   UNL     1      -8.057   0.293 129.158  0.00  0.00    +0.000 C 
ATOM     11  C   UNL     1      -8.626   1.674 129.145  0.00  0.00    +0.000 C 
ATOM     12  C   UNL     1      -9.197   2.149 130.428  0.00  0.00    +0.000 C 
ATOM     13  C   UNL     1      -9.274   1.396 131.681  0.00  0.00    +0.000 C 
ATOM     14  O   UNL     1      -9.745   1.999 132.644  0.00  0.00    +0.000 OA
ATOM     15  C   UNL     1      -8.751  -0.047 131.541  0.00  0.00    +0.000 C 
ATOM     16  C   UNL     1      -8.222  -0.534 130.358  0.00  0.00    +0.000 C 
ATOM     17  C   UNL     1      -7.732  -1.981 130.155  0.00  0.00    +0.000 C 
ATOM     18  C   UNL     1      -7.170  -2.546 128.815  0.00  0.00    +0.000 C 
ATOM     19  C   UNL     1      -6.984  -1.614 127.638  0.00  0.00    +0.000 C 
ENDROOT
BRANCH   8  20
ATOM     20  C   UNL     1      -6.271   1.534 126.486  0.00  0.00    +0.000 A 
ATOM     21  C   UNL     1      -5.252   1.047 127.276  0.00  0.00    +0.000 A 
ATOM     22  C   UNL     1      -4.151   1.856 127.467  0.00  0.00    +0.000 A 
ATOM     23  C   UNL     1      -3.887   2.986 126.675  0.00  0.00    +0.000 A 
ATOM     24  C   UNL     1      -4.901   3.388 125.809  0.00  0.00    +0.000 A 
ATOM     25  C   UNL     1      -6.055   2.657 125.685  0.00  0.00    +0.000 A 
BRANCH  23  26
ATOM     26  N   UNL     1      -2.688   3.662 126.754  0.00  0.00    +0.000 N 
ATOM     27  C   UNL     1      -2.567   4.882 127.540  0.00  0.00    +0.000 C 
ATOM     28  C   UNL     1      -1.434   3.024 126.367  0.00  0.00    +0.000 C 
ENDBRANCH  23  26
ENDBRANCH   8  20
BRANCH   4  29
ATOM     29  C   UNL     1      -5.547  -2.025 124.474  0.00  0.00    +0.000 C 
ATOM     30  C   UNL     1      -4.983  -3.122 124.051  0.00  0.00    +0.000 C 
ATOM     31  C   UNL     1      -4.326  -4.401 123.559  0.00  0.00    +0.000 C 
ENDBRANCH   4  29
BRANCH   4  32
ATOM     32  O   UNL     1      -6.650  -0.079 124.109  0.00  0.00    +0.000 OA
ATOM     33  H   UNL     1      -7.355   0.530 123.908  0.00  0.00    +0.000 HD
ENDBRANCH   4  32
TORSDOF 4
ENDMDL
MODEL 2
REMARK VINA RESULT:      -9.6      2.378      3.023
REMARK  Name = Mifepristone
REMARK  8 active torsions:
REMARK  status: ('A' for Active; 'I' for Inactive)
REMARK    1  A    between atoms: C_5  and  O_6
REMARK    2  A    between atoms: C_5  and  C_7
REMARK    3  A    between atoms: C_8  and  C_9
REMARK    4  A    between atoms: C_10  and  C_11
REMARK    5  A    between atoms: C_13  and  C_14
REMARK    6  A    between atoms: C_17  and  N_20
REMARK    7  A    between atoms: N_20  and  C_21
REMARK    8  A    between atoms: N_20  and  C_22
REMARK                            x       y       z     vdW  Elec       q    Type
REMARK                         _______ _______ _______ _____ _____    ______ ____
ROOT
ATOM      1  C   UNL     1      -6.601  -2.465 126.974  0.00  0.00    +0.000 C 
ATOM      2  C   UNL     1      -7.359  -2.920 128.100  0.00  0.00    +0.000 C 
ATOM      3  C   UNL     1      -7.925  -1.848 127.237  0.00  0.00    +0.000 C 
ATOM      4  C   UNL     1      -7.117  -1.645 125.280  0.00  0.00    +0.000 C 
ATOM      5  C   UNL     1      -8.097  -2.470 125.847  0.00  0.00    +0.000 C 
ATOM      6  C   UNL     1      -8.580  -3.755 125.344  0.00  0.00    +0.000 C 
ATOM      7  C   UNL     1      -9.236  -0.969 125.806  0.00  0.00    +0.000 C 
ATOM      8  C   UNL     1      -8.315   0.452 126.141  0.00  0.00    +0.000 C 
ATOM      9  C   UNL     1      -7.147   0.470 127.313  0.00  0.00    +0.000 C 
ATOM     10  C   UNL     1      -7.358   1.301 128.361  0.00  0.00    +0.000 C 
ATOM     11  C   UNL     1      -8.577   2.155 128.218  0.00  0.00    +0.000 C 
ATOM     12  C   UNL     1      -8.818   3.123 129.314  0.00  0.00    +0.000 C 
ATOM     13  C   UNL     1      -8.000   3.305 130.514  0.00  0.00    +0.000 C 
ATOM     14  O   UNL     1      -8.354   4.203 131.277  0.00  0.00    +0.000 OA
ATOM     15  C   UNL     1      -6.834   2.300 130.598  0.00  0.00    +0.000 C 
ATOM     16  C   UNL     1      -6.581   1.372 129.603  0.00  0.00    +0.000 C 
ATOM     17  C   UNL     1      -5.460   0.316 129.663  0.00  0.00    +0.000 C 
ATOM     18  C   UNL     1      -5.193  -0.756 128.563  0.00  0.00    +0.000 C 
ATOM     19  C   UNL     1      -6.007  -0.728 127.288  0.00  0.00    +0.000 C 
ENDROOT
BRANCH   8  20
ATOM     20  C   UNL     1      -7.695   1.107 124.937  0.00  0.00    +0.000 A 
ATOM     21  C   UNL     1      -6.425   1.624 125.083  0.00  0.00    +0.000 A 
ATOM     22  C   UNL     1      -6.055   2.651 124.240  0.00  0.00    +0.000 A 
ATOM     23  C   UNL     1      -6.770   2.979 123.076  0.00  0.00    +0.000 A 
ATOM     24  C   UNL     1      -8.004   2.357 122.909  0.00  0.00    +0.000 A 
ATOM     25  C   UNL     1      -8.445   1.409 123.798  0.00  0.00    +0.000 A 
BRANCH  23  26
ATOM     26  N   UNL     1      -6.276   3.874 122.150  0.00  0.00    +0.000 N 
ATOM     27  C   UNL     1      -5.003   4.547 122.366  0.00  0.00    +0.000 C 
ATOM     28  C   UNL     1      -6.802   3.921 120.790  0.00  0.00    +0.000 C 
ENDBRANCH  23  26
ENDBRANCH   8  20
BRANCH   4  29
ATOM     29  C   UNL     1      -5.826  -2.546 124.303  0.00  0.00    +0.000 C 
ATOM     30  C   UNL     1      -5.064  -3.540 123.940  0.00  0.00    +0.000 C 
ATOM     31  C   UNL     1      -4.174  -4.697 123.518  0.00  0.00    +0.000 C 
ENDBRANCH   4  29
BRANCH   4  32
ATOM     32  O   UNL     1      -7.888  -1.641 124.040  0.00  0.00    +0.000 OA
ATOM     33  H   UNL     1      -8.331  -0.829 123.808  0.00  0.00    +0.000 HD
ENDBRANCH   4  32
TORSDOF 4
ENDMDL
MODEL 3
REMARK VINA RESULT:      -9.1      5.268      8.469
REMARK  Name = Mifepristone
REMARK  8 active torsions:
REMARK  status: ('A' for Active; 'I' for Inactive)
REMARK    1  A    between atoms: C_5  and  O_6
REMARK    2  A    between atoms: C_5  and  C_7
REMARK    3  A    between atoms: C_8  and  C_9
REMARK    4  A    between atoms: C_10  and  C_11
REMARK    5  A    between atoms: C_13  and  C_14
REMARK    6  A    between atoms: C_17  and  N_20
REMARK    7  A    between atoms: N_20  and  C_21
REMARK    8  A    between atoms: N_20  and  C_22
REMARK                            x       y       z     vdW  Elec       q    Type
REMARK                         _______ _______ _______ _____ _____    ______ ____
ROOT
ATOM      1  C   UNL     1      -6.984   2.493 131.928  0.00  0.00    +0.000 C 
ATOM      2  C   UNL     1      -6.598   1.658 133.025  0.00  0.00    +0.000 C 
ATOM      3  C   UNL     1      -7.667   2.673 133.234  0.00  0.00    +0.000 C 
ATOM      4  C   UNL     1      -8.643   3.429 131.502  0.00  0.00    +0.000 C 
ATOM      5  C   UNL     1      -8.810   2.283 132.290  0.00  0.00    +0.000 C 
ATOM      6  C   UNL     1      -9.451   1.026 131.909  0.00  0.00    +0.000 C 
ATOM      7  C   UNL     1      -9.642   3.403 133.557  0.00  0.00    +0.000 C 
ATOM      8  C   UNL     1      -8.852   4.938 133.565  0.00  0.00    +0.000 C 
ATOM      9  C   UNL     1      -7.205   5.063 133.469  0.00  0.00    +0.000 C 
ATOM     10  C   UNL     1      -6.579   5.607 134.540  0.00  0.00    +0.000 C 
ATOM     11  C   UNL     1      -7.512   6.110 135.593  0.00  0.00    +0.000 C 
ATOM     12  C   UNL     1      -6.875   6.768 136.758  0.00  0.00    +0.000 C 
ATOM     13  C   UNL     1      -5.440   6.948 136.982  0.00  0.00    +0.000 C 
ATOM     14  O   UNL     1      -5.126   7.567 137.998  0.00  0.00    +0.000 OA
ATOM     15  C   UNL     1      -4.579   6.298 135.881  0.00  0.00    +0.000 C 
ATOM     16  C   UNL     1      -5.134   5.664 134.783  0.00  0.00    +0.000 C 
ATOM     17  C   UNL     1      -4.317   4.957 133.683  0.00  0.00    +0.000 C 
ATOM     18  C   UNL     1      -4.937   4.210 132.464  0.00  0.00    +0.000 C 
ATOM     19  C   UNL     1      -6.435   4.242 132.257  0.00  0.00    +0.000 C 
ENDROOT
BRANCH   8  20
ATOM     20  C   UNL     1      -9.395   5.938 132.582  0.00  0.00    +0.000 A 
ATOM     21  C   UNL     1     -10.758   6.150 132.586  0.00  0.00    +0.000 A 
ATOM     22  C   UNL     1     -11.334   6.606 131.419  0.00  0.00    +0.000 A 
ATOM     23  C   UNL     1     -10.587   7.143 130.357  0.00  0.00    +0.000 A 
ATOM     24  C   UNL     1      -9.204   7.004 130.438  0.00  0.00    +0.000 A 
ATOM     25  C   UNL     1      -8.613   6.449 131.545  0.00  0.00    +0.000 A 
BRANCH  23  26
ATOM     26  N   UNL     1     -11.193   7.770 129.289  0.00  0.00    +0.000 N 
ATOM     27  C   UNL     1     -12.591   8.173 129.352  0.00  0.00    +0.000 C 
ATOM     28  C   UNL     1     -10.403   8.368 128.217  0.00  0.00    +0.000 C 
ENDBRANCH  23  26
ENDBRANCH   8  20
BRANCH   4  29
ATOM     29  C   UNL     1      -8.514   3.099 129.684  0.00  0.00    +0.000 C 
ATOM     30  C   UNL     1      -8.500   2.399 128.583  0.00  0.00    +0.000 C 
ATOM     31  C   UNL     1      -8.482   1.584 127.301  0.00  0.00    +0.000 C 
ENDBRANCH   4  29
BRANCH   4  32
ATOM     32  O   UNL     1     -10.086   3.444 131.279  0.00  0.00    +0.000 OA
ATOM     33  H   UNL     1     -10.446   4.201 130.824  0.00  0.00    +0.000 HD
ENDBRANCH   4  32
TORSDOF 4
ENDMDL
MODEL 4
REMARK VINA RESULT:      -8.9      2.893      6.524
REMARK  Name = Mifepristone
REMARK  8 active torsions:
REMARK  status: ('A' for Active; 'I' for Inactive)
REMARK    1  A    between atoms: C_5  and  O_6
REMARK    2  A    between atoms: C_5  and  C_7
REMARK    3  A    between atoms: C_8  and  C_9
REMARK    4  A    between atoms: C_10  and  C_11
REMARK    5  A    between atoms: C_13  and  C_14
REMARK    6  A    between atoms: C_17  and  N_20
REMARK    7  A    between atoms: N_20  and  C_21
REMARK    8  A    between atoms: N_20  and  C_22
REMARK                            x       y       z     vdW  Elec       q    Type
REMARK                         _______ _______ _______ _____ _____    ______ ____
ROOT
ATOM      1  C   UNL     1      -6.723  -3.629 130.716  0.00  0.00    +0.000 C 
ATOM      2  C   UNL     1      -5.948  -4.613 130.022  0.00  0.00    +0.000 C 
ATOM      3  C   UNL     1      -5.631  -3.172 129.821  0.00  0.00    +0.000 C 
ATOM      4  C   UNL     1      -6.331  -1.806 131.293  0.00  0.00    +0.000 C 
ATOM      5  C   UNL     1      -5.207  -2.637 131.192  0.00  0.00    +0.000 C 
ATOM      6  C   UNL     1      -4.368  -3.135 132.281  0.00  0.00    +0.000 C 
ATOM      7  C   UNL     1      -4.508  -1.370 129.985  0.00  0.00    +0.000 C 
ATOM      8  C   UNL     1      -5.794  -0.724 129.031  0.00  0.00    +0.000 C 
ATOM      9  C   UNL     1      -7.000  -1.690 128.439  0.00  0.00    +0.000 C 
ATOM     10  C   UNL     1      -7.087  -1.785 127.090  0.00  0.00    +0.000 C 
ATOM     11  C   UNL     1      -6.133  -0.898 126.359  0.00  0.00    +0.000 C 
ATOM     12  C   UNL     1      -6.231  -0.924 124.881  0.00  0.00    +0.000 C 
ATOM     13  C   UNL     1      -7.146  -1.739 124.081  0.00  0.00    +0.000 C 
ATOM     14  O   UNL     1      -7.095  -1.571 122.863  0.00  0.00    +0.000 OA
ATOM     15  C   UNL     1      -8.006  -2.686 124.941  0.00  0.00    +0.000 C 
ATOM     16  C   UNL     1      -7.936  -2.702 126.323  0.00  0.00    +0.000 C 
ATOM     17  C   UNL     1      -8.738  -3.663 127.223  0.00  0.00    +0.000 C 
ATOM     18  C   UNL     1      -8.636  -3.712 128.778  0.00  0.00    +0.000 C 
ATOM     19  C   UNL     1      -7.776  -2.696 129.497  0.00  0.00    +0.000 C 
ENDROOT
BRANCH   8  20
ATOM     20  C   UNL     1      -6.483   0.475 129.620  0.00  0.00    +0.000 A 
ATOM     21  C   UNL     1      -7.859   0.440 129.693  0.00  0.00    +0.000 A 
ATOM     22  C   UNL     1      -8.527   1.646 129.707  0.00  0.00    +0.000 A 
ATOM     23  C   UNL     1      -7.886   2.872 129.953  0.00  0.00    +0.000 A 
ATOM     24  C   UNL     1      -6.494   2.851 129.978  0.00  0.00    +0.000 A 
ATOM     25  C   UNL     1      -5.803   1.672 129.853  0.00  0.00    +0.000 A 
BRANCH  23  26
ATOM     26  N   UNL     1      -8.599   4.035 130.157  0.00  0.00    +0.000 N 
ATOM     27  C   UNL     1     -10.033   3.999 130.410  0.00  0.00    +0.000 C 
ATOM     28  C   UNL     1      -7.924   5.288 130.478  0.00  0.00    +0.000 C 
ENDBRANCH  23  26
ENDBRANCH   8  20
BRANCH   4  29
ATOM     29  C   UNL     1      -7.268  -1.970 132.882  0.00  0.00    +0.000 C 
ATOM     30  C   UNL     1      -7.771  -2.561 133.930  0.00  0.00    +0.000 C 
ATOM     31  C   UNL     1      -8.359  -3.250 135.150  0.00  0.00    +0.000 C 
ENDBRANCH   4  29
BRANCH   4  32
ATOM     32  O   UNL     1      -5.508  -0.837 132.011  0.00  0.00    +0.000 OA
ATOM     33  H   UNL     1      -5.587   0.076 131.751  0.00  0.00    +0.000 HD
ENDBRANCH   4  32
TORSDOF 4
ENDMDL
MODEL 5
REMARK VINA RESULT:      -8.8      2.460      5.685
REMARK  Name = Mifepristone
REMARK  8 active torsions:
REMARK  status: ('A' for Active; 'I' for Inactive)
REMARK    1  A    between atoms: C_5  and  O_6
REMARK    2  A    between atoms: C_5  and  C_7
REMARK    3  A    between atoms: C_8  and  C_9
REMARK    4  A    between atoms: C_10  and  C_11
REMARK    5  A    between atoms: C_13  and  C_14
REMARK    6  A    between atoms: C_17  and  N_20
REMARK    7  A    between atoms: N_20  and  C_21
REMARK    8  A    between atoms: N_20  and  C_22
REMARK                            x       y       z     vdW  Elec       q    Type
REMARK                         _______ _______ _______ _____ _____    ______ ____
ROOT
ATOM      1  C   UNL     1      -8.080  -0.992 126.569  0.00  0.00    +0.000 C 
ATOM      2  C   UNL     1      -8.193  -1.816 125.404  0.00  0.00    +0.000 C 
ATOM      3  C   UNL     1      -7.041  -0.881 125.515  0.00  0.00    +0.000 C 
ATOM      4  C   UNL     1      -6.551  -0.164 127.457  0.00  0.00    +0.000 C 
ATOM      5  C   UNL     1      -6.246  -1.332 126.745  0.00  0.00    +0.000 C 
ATOM      6  C   UNL     1      -5.832  -2.624 127.289  0.00  0.00    +0.000 C 
ATOM      7  C   UNL     1      -5.009  -0.294 125.774  0.00  0.00    +0.000 C 
ATOM      8  C   UNL     1      -5.654   1.291 125.546  0.00  0.00    +0.000 C 
ATOM      9  C   UNL     1      -7.247   1.531 125.165  0.00  0.00    +0.000 C 
ATOM     10  C   UNL     1      -7.499   2.099 123.962  0.00  0.00    +0.000 C 
ATOM     11  C   UNL     1      -6.270   2.519 123.223  0.00  0.00    +0.000 C 
ATOM     12  C   UNL     1      -6.499   3.199 121.926  0.00  0.00    +0.000 C 
ATOM     13  C   UNL     1      -7.793   3.474 121.300  0.00  0.00    +0.000 C 
ATOM     14  O   UNL     1      -7.758   4.096 120.239  0.00  0.00    +0.000 OA
ATOM     15  C   UNL     1      -8.977   2.903 122.106  0.00  0.00    +0.000 C 
ATOM     16  C   UNL     1      -8.806   2.251 123.314  0.00  0.00    +0.000 C 
ATOM     17  C   UNL     1      -9.952   1.620 124.131  0.00  0.00    +0.000 C 
ATOM     18  C   UNL     1      -9.762   0.852 125.475  0.00  0.00    +0.000 C 
ATOM     19  C   UNL     1      -8.387   0.785 126.103  0.00  0.00    +0.000 C 
ENDROOT
BRANCH   8  20
ATOM     20  C   UNL     1      -5.346   2.268 126.646  0.00  0.00    +0.000 A 
ATOM     21  C   UNL     1      -6.397   3.006 127.148  0.00  0.00    +0.000 A 
ATOM     22  C   UNL     1      -6.101   4.223 127.726  0.00  0.00    +0.000 A 
ATOM     23  C   UNL     1      -4.798   4.598 128.095  0.00  0.00    +0.000 A 
ATOM     24  C   UNL     1      -3.767   3.769 127.660  0.00  0.00    +0.000 A 
ATOM     25  C   UNL     1      -4.033   2.606 126.983  0.00  0.00    +0.000 A 
BRANCH  23  26
ATOM     26  N   UNL     1      -4.554   5.728 128.846  0.00  0.00    +0.000 N 
ATOM     27  C   UNL     1      -5.023   5.829 130.221  0.00  0.00    +0.000 C 
ATOM     28  C   UNL     1      -3.542   6.699 128.444  0.00  0.00    +0.000 C 
ENDBRANCH  23  26
ENDBRANCH   8  20
BRANCH   4  29
ATOM     29  C   UNL     1      -7.219  -0.455 129.160  0.00  0.00    +0.000 C 
ATOM     30  C   UNL     1      -7.942  -0.242 130.224  0.00  0.00    +0.000 C 
ATOM     31  C   UNL     1      -8.783   0.006 131.465  0.00  0.00    +0.000 C 
ENDBRANCH   4  29
BRANCH   4  32
ATOM     32  O   UNL     1      -5.235  -0.245 128.084  0.00  0.00    +0.000 OA
ATOM     33  H   UNL     1      -5.190  -0.075 129.021  0.00  0.00    +0.000 HD
ENDBRANCH   4  32
TORSDOF 4
ENDMDL
MODEL 6
REMARK VINA RESULT:      -8.2      4.269      6.691
REMARK  Name = Mifepristone
REMARK  8 active torsions:
REMARK  status: ('A' for Active; 'I' for Inactive)
REMARK    1  A    between atoms: C_5  and  O_6
REMARK    2  A    between atoms: C_5  and  C_7
REMARK    3  A    between atoms: C_8  and  C_9
REMARK    4  A    between atoms: C_10  and  C_11
REMARK    5  A    between atoms: C_13  and  C_14
REMARK    6  A    between atoms: C_17  and  N_20
REMARK    7  A    between atoms: N_20  and  C_21
REMARK    8  A    between atoms: N_20  and  C_22
REMARK                            x       y       z     vdW  Elec       q    Type
REMARK                         _______ _______ _______ _____ _____    ______ ____
ROOT
ATOM      1  C   UNL     1      -8.847   2.235 132.231  0.00  0.00    +0.000 C 
ATOM      2  C   UNL     1     -10.208   1.914 131.923  0.00  0.00    +0.000 C 
ATOM      3  C   UNL     1      -9.310   2.373 130.828  0.00  0.00    +0.000 C 
ATOM      4  C   UNL     1      -7.214   2.230 131.162  0.00  0.00    +0.000 C 
ATOM      5  C   UNL     1      -8.195   1.327 130.729  0.00  0.00    +0.000 C 
ATOM      6  C   UNL     1      -8.142  -0.133 130.771  0.00  0.00    +0.000 C 
ATOM      7  C   UNL     1      -8.125   2.211 129.065  0.00  0.00    +0.000 C 
ATOM      8  C   UNL     1      -7.871   3.898 129.328  0.00  0.00    +0.000 C 
ATOM      9  C   UNL     1      -8.651   4.711 130.540  0.00  0.00    +0.000 C 
ATOM     10  C   UNL     1      -9.503   5.691 130.156  0.00  0.00    +0.000 C 
ATOM     11  C   UNL     1      -9.505   5.947 128.683  0.00  0.00    +0.000 C 
ATOM     12  C   UNL     1     -10.378   7.051 128.221  0.00  0.00    +0.000 C 
ATOM     13  C   UNL     1     -11.242   7.889 129.055  0.00  0.00    +0.000 C 
ATOM     14  O   UNL     1     -11.850   8.785 128.472  0.00  0.00    +0.000 OA
ATOM     15  C   UNL     1     -11.232   7.464 130.537  0.00  0.00    +0.000 C 
ATOM     16  C   UNL     1     -10.441   6.430 131.007  0.00  0.00    +0.000 C 
ATOM     17  C   UNL     1     -10.434   5.936 132.468  0.00  0.00    +0.000 C 
ATOM     18  C   UNL     1      -9.573   4.749 132.996  0.00  0.00    +0.000 C 
ATOM     19  C   UNL     1      -8.591   4.073 132.065  0.00  0.00    +0.000 C 
ENDROOT
BRANCH   8  20
ATOM     20  C   UNL     1      -6.430   4.319 129.415  0.00  0.00    +0.000 A 
ATOM     21  C   UNL     1      -6.051   5.046 130.524  0.00  0.00    +0.000 A 
ATOM     22  C   UNL     1      -4.956   5.874 130.397  0.00  0.00    +0.000 A 
ATOM     23  C   UNL     1      -4.051   5.786 129.326  0.00  0.00    +0.000 A 
ATOM     24  C   UNL     1      -4.418   4.958 128.269  0.00  0.00    +0.000 A 
ATOM     25  C   UNL     1      -5.565   4.206 128.325  0.00  0.00    +0.000 A 
BRANCH  23  26
ATOM     26  N   UNL     1      -2.862   6.485 129.322  0.00  0.00    +0.000 N 
ATOM     27  C   UNL     1      -1.986   6.479 130.485  0.00  0.00    +0.000 C 
ATOM     28  C   UNL     1      -2.267   6.956 128.075  0.00  0.00    +0.000 C 
ENDBRANCH  23  26
ENDBRANCH   8  20
BRANCH   4  29
ATOM     29  C   UNL     1      -6.155   1.607 132.547  0.00  0.00    +0.000 C 
ATOM     30  C   UNL     1      -5.713   1.489 133.768  0.00  0.00    +0.000 C 
ATOM     31  C   UNL     1      -5.196   1.354 135.191  0.00  0.00    +0.000 C 
ENDBRANCH   4  29
BRANCH   4  32
ATOM     32  O   UNL     1      -6.259   1.560 130.284  0.00  0.00    +0.000 OA
ATOM     33  H   UNL     1      -5.400   1.364 130.647  0.00  0.00    +0.000 HD
ENDBRANCH   4  32
TORSDOF 4
ENDMDL
MODEL 7
REMARK VINA RESULT:      -8.2      4.194      7.103
REMARK  Name = Mifepristone
REMARK  8 active torsions:
REMARK  status: ('A' for Active; 'I' for Inactive)
REMARK    1  A    between atoms: C_5  and  O_6
REMARK    2  A    between atoms: C_5  and  C_7
REMARK    3  A    between atoms: C_8  and  C_9
REMARK    4  A    between atoms: C_10  and  C_11
REMARK    5  A    between atoms: C_13  and  C_14
REMARK    6  A    between atoms: C_17  and  N_20
REMARK    7  A    between atoms: N_20  and  C_21
REMARK    8  A    between atoms: N_20  and  C_22
REMARK                            x       y       z     vdW  Elec       q    Type
REMARK                         _______ _______ _______ _____ _____    ______ ____
ROOT
ATOM      1  C   UNL     1      -7.997   0.210 129.767  0.00  0.00    +0.000 C 
ATOM      2  C   UNL     1      -7.795   1.494 129.165  0.00  0.00    +0.000 C 
ATOM      3  C   UNL     1      -6.814   1.008 130.174  0.00  0.00    +0.000 C 
ATOM      4  C   UNL     1      -6.770  -1.083 130.563  0.00  0.00    +0.000 C 
ATOM      5  C   UNL     1      -6.194  -0.263 129.583  0.00  0.00    +0.000 C 
ATOM      6  C   UNL     1      -5.714  -0.658 128.260  0.00  0.00    +0.000 C 
ATOM      7  C   UNL     1      -4.955   0.264 130.902  0.00  0.00    +0.000 C 
ATOM      8  C   UNL     1      -5.754   0.352 132.429  0.00  0.00    +0.000 C 
ATOM      9  C   UNL     1      -7.273   0.991 132.576  0.00  0.00    +0.000 C 
ATOM     10  C   UNL     1      -7.384   2.111 133.329  0.00  0.00    +0.000 C 
ATOM     11  C   UNL     1      -6.111   2.517 134.000  0.00  0.00    +0.000 C 
ATOM     12  C   UNL     1      -6.197   3.704 134.882  0.00  0.00    +0.000 C 
ATOM     13  C   UNL     1      -7.387   4.518 135.139  0.00  0.00    +0.000 C 
ATOM     14  O   UNL     1      -7.250   5.435 135.947  0.00  0.00    +0.000 OA
ATOM     15  C   UNL     1      -8.607   4.064 134.314  0.00  0.00    +0.000 C 
ATOM     16  C   UNL     1      -8.566   2.968 133.469  0.00  0.00    +0.000 C 
ATOM     17  C   UNL     1      -9.743   2.505 132.587  0.00  0.00    +0.000 C 
ATOM     18  C   UNL     1      -9.691   1.295 131.606  0.00  0.00    +0.000 C 
ATOM     19  C   UNL     1      -8.451   0.430 131.560  0.00  0.00    +0.000 C 
ENDROOT
BRANCH   8  20
ATOM     20  C   UNL     1      -5.774  -0.933 133.211  0.00  0.00    +0.000 A 
ATOM     21  C   UNL     1      -4.569  -1.573 133.405  0.00  0.00    +0.000 A 
ATOM     22  C   UNL     1      -4.598  -2.935 133.617  0.00  0.00    +0.000 A 
ATOM     23  C   UNL     1      -5.773  -3.633 133.941  0.00  0.00    +0.000 A 
ATOM     24  C   UNL     1      -6.966  -2.923 133.836  0.00  0.00    +0.000 A 
ATOM     25  C   UNL     1      -6.969  -1.589 133.515  0.00  0.00    +0.000 A 
BRANCH  23  26
ATOM     26  N   UNL     1      -5.747  -4.953 134.340  0.00  0.00    +0.000 N 
ATOM     27  C   UNL     1      -4.498  -5.702 134.365  0.00  0.00    +0.000 C 
ATOM     28  C   UNL     1      -6.861  -5.543 135.074  0.00  0.00    +0.000 C 
ENDBRANCH  23  26
ENDBRANCH   8  20
BRANCH   4  29
ATOM     29  C   UNL     1      -7.681  -2.551 129.896  0.00  0.00    +0.000 C 
ATOM     30  C   UNL     1      -8.355  -3.264 129.037  0.00  0.00    +0.000 C 
ATOM     31  C   UNL     1      -9.142  -4.095 128.037  0.00  0.00    +0.000 C 
ENDBRANCH   4  29
BRANCH   4  32
ATOM     32  O   UNL     1      -5.585  -1.933 130.498  0.00  0.00    +0.000 OA
ATOM     33  H   UNL     1      -5.705  -2.818 130.166  0.00  0.00    +0.000 HD
ENDBRANCH   4  32
TORSDOF 4
ENDMDL
MODEL 8
REMARK VINA RESULT:      -8.1      3.590      7.754
REMARK  Name = Mifepristone
REMARK  8 active torsions:
REMARK  status: ('A' for Active; 'I' for Inactive)
REMARK    1  A    between atoms: C_5  and  O_6
REMARK    2  A    between atoms: C_5  and  C_7
REMARK    3  A    between atoms: C_8  and  C_9
REMARK    4  A    between atoms: C_10  and  C_11
REMARK    5  A    between atoms: C_13  and  C_14
REMARK    6  A    between atoms: C_17  and  N_20
REMARK    7  A    between atoms: N_20  and  C_21
REMARK    8  A    between atoms: N_20  and  C_22
REMARK                            x       y       z     vdW  Elec       q    Type
REMARK                         _______ _______ _______ _____ _____    ______ ____
ROOT
ATOM      1  C   UNL     1      -6.821   1.862 130.403  0.00  0.00    +0.000 C 
ATOM      2  C   UNL     1      -7.852   2.370 129.549  0.00  0.00    +0.000 C 
ATOM      3  C   UNL     1      -8.069   1.074 130.250  0.00  0.00    +0.000 C 
ATOM      4  C   UNL     1      -6.853   0.669 131.947  0.00  0.00    +0.000 C 
ATOM      5  C   UNL     1      -8.036   1.393 131.748  0.00  0.00    +0.000 C 
ATOM      6  C   UNL     1      -8.582   2.456 132.590  0.00  0.00    +0.000 C 
ATOM      7  C   UNL     1      -8.917  -0.271 131.667  0.00  0.00    +0.000 C 
ATOM      8  C   UNL     1      -7.893  -1.418 130.882  0.00  0.00    +0.000 C 
ATOM      9  C   UNL     1      -7.003  -1.012 129.547  0.00  0.00    +0.000 C 
ATOM     10  C   UNL     1      -7.307  -1.664 128.400  0.00  0.00    +0.000 C 
ATOM     11  C   UNL     1      -8.336  -2.735 128.568  0.00  0.00    +0.000 C 
ATOM     12  C   UNL     1      -8.659  -3.515 127.350  0.00  0.00    +0.000 C 
ATOM     13  C   UNL     1      -8.090  -3.326 126.015  0.00  0.00    +0.000 C 
ATOM     14  O   UNL     1      -8.464  -4.119 125.152  0.00  0.00    +0.000 OA
ATOM     15  C   UNL     1      -7.121  -2.130 125.945  0.00  0.00    +0.000 C 
ATOM     16  C   UNL     1      -6.802  -1.367 127.055  0.00  0.00    +0.000 C 
ATOM     17  C   UNL     1      -5.879  -0.133 127.026  0.00  0.00    +0.000 C 
ATOM     18  C   UNL     1      -5.545   0.752 128.265  0.00  0.00    +0.000 C 
ATOM     19  C   UNL     1      -6.064   0.347 129.627  0.00  0.00    +0.000 C 
ENDROOT
BRANCH   8  20
ATOM     20  C   UNL     1      -6.952  -2.158 131.791  0.00  0.00    +0.000 A 
ATOM     21  C   UNL     1      -5.634  -2.248 131.397  0.00  0.00    +0.000 A 
ATOM     22  C   UNL     1      -4.897  -3.310 131.877  0.00  0.00    +0.000 A 
ATOM     23  C   UNL     1      -5.318  -4.108 132.954  0.00  0.00    +0.000 A 
ATOM     24  C   UNL     1      -6.624  -3.915 133.396  0.00  0.00    +0.000 A 
ATOM     25  C   UNL     1      -7.416  -2.934 132.855  0.00  0.00    +0.000 A 
BRANCH  23  26
ATOM     26  N   UNL     1      -4.481  -5.034 133.541  0.00  0.00    +0.000 N 
ATOM     27  C   UNL     1      -3.034  -4.911 133.431  0.00  0.00    +0.000 C 
ATOM     28  C   UNL     1      -4.969  -5.949 134.568  0.00  0.00    +0.000 C 
ENDBRANCH  23  26
ENDBRANCH   8  20
BRANCH   4  29
ATOM     29  C   UNL     1      -5.529   1.595 132.853  0.00  0.00    +0.000 C 
ATOM     30  C   UNL     1      -4.349   2.104 133.074  0.00  0.00    +0.000 C 
ATOM     31  C   UNL     1      -2.973   2.695 133.332  0.00  0.00    +0.000 C 
ENDBRANCH   4  29
BRANCH   4  32
ATOM     32  O   UNL     1      -7.342   0.301 133.273  0.00  0.00    +0.000 OA
ATOM     33  H   UNL     1      -7.034   0.823 134.008  0.00  0.00    +0.000 HD
ENDBRANCH   4  32
TORSDOF 4
ENDMDL
MODEL 9
REMARK VINA RESULT:      -8.1      4.349      8.963
REMARK  Name = Mifepristone
REMARK  8 active torsions:
REMARK  status: ('A' for Active; 'I' for Inactive)
REMARK    1  A    between atoms: C_5  and  O_6
REMARK    2  A    between atoms: C_5  and  C_7
REMARK    3  A    between atoms: C_8  and  C_9
REMARK    4  A    between atoms: C_10  and  C_11
REMARK    5  A    between atoms: C_13  and  C_14
REMARK    6  A    between atoms: C_17  and  N_20
REMARK    7  A    between atoms: N_20  and  C_21
REMARK    8  A    between atoms: N_20  and  C_22
REMARK                            x       y       z     vdW  Elec       q    Type
REMARK                         _______ _______ _______ _____ _____    ______ ____
ROOT
ATOM      1  C   UNL     1      -6.982   6.201 132.143  0.00  0.00    +0.000 C 
ATOM      2  C   UNL     1      -6.996   7.106 131.034  0.00  0.00    +0.000 C 
ATOM      3  C   UNL     1      -7.428   5.698 130.819  0.00  0.00    +0.000 C 
ATOM      4  C   UNL     1      -7.997   4.580 132.537  0.00  0.00    +0.000 C 
ATOM      5  C   UNL     1      -8.660   5.493 131.706  0.00  0.00    +0.000 C 
ATOM      6  C   UNL     1      -9.848   6.284 132.021  0.00  0.00    +0.000 C 
ATOM      7  C   UNL     1      -8.782   4.096 130.446  0.00  0.00    +0.000 C 
ATOM      8  C   UNL     1      -7.347   3.139 130.518  0.00  0.00    +0.000 C 
ATOM      9  C   UNL     1      -5.853   3.832 130.680  0.00  0.00    +0.000 C 
ATOM     10  C   UNL     1      -4.991   3.649 129.652  0.00  0.00    +0.000 C 
ATOM     11  C   UNL     1      -5.510   2.744 128.581  0.00  0.00    +0.000 C 
ATOM     12  C   UNL     1      -4.579   2.467 127.463  0.00  0.00    +0.000 C 
ATOM     13  C   UNL     1      -3.227   3.005 127.298  0.00  0.00    +0.000 C 
ATOM     14  O   UNL     1      -2.604   2.606 126.315  0.00  0.00    +0.000 OA
ATOM     15  C   UNL     1      -2.844   4.003 128.409  0.00  0.00    +0.000 C 
ATOM     16  C   UNL     1      -3.689   4.299 129.464  0.00  0.00    +0.000 C 
ATOM     17  C   UNL     1      -3.373   5.325 130.570  0.00  0.00    +0.000 C 
ATOM     18  C   UNL     1      -4.335   5.690 131.740  0.00  0.00    +0.000 C 
ATOM     19  C   UNL     1      -5.638   4.936 131.892  0.00  0.00    +0.000 C 
ENDROOT
BRANCH   8  20
ATOM     20  C   UNL     1      -7.384   2.011 131.512  0.00  0.00    +0.000 A 
ATOM     21  C   UNL     1      -6.285   1.854 132.330  0.00  0.00    +0.000 A 
ATOM     22  C   UNL     1      -6.045   0.595 132.838  0.00  0.00    +0.000 A 
ATOM     23  C   UNL     1      -7.001  -0.434 132.815  0.00  0.00    +0.000 A 
ATOM     24  C   UNL     1      -8.149  -0.198 132.064  0.00  0.00    +0.000 A 
ATOM     25  C   UNL     1      -8.359   1.014 131.455  0.00  0.00    +0.000 A 
BRANCH  23  26
ATOM     26  N   UNL     1      -6.811  -1.615 133.500  0.00  0.00    +0.000 N 
ATOM     27  C   UNL     1      -5.696  -1.774 134.424  0.00  0.00    +0.000 C 
ATOM     28  C   UNL     1      -7.877  -2.606 133.609  0.00  0.00    +0.000 C 
ENDBRANCH  23  26
ENDBRANCH   8  20
BRANCH   4  29
ATOM     29  C   UNL     1      -8.132   4.951 134.347  0.00  0.00    +0.000 C 
ATOM     30  C   UNL     1      -7.839   5.509 135.489  0.00  0.00    +0.000 C 
ATOM     31  C   UNL     1      -7.497   6.156 136.820  0.00  0.00    +0.000 C 
ENDBRANCH   4  29
BRANCH   4  32
ATOM     32  O   UNL     1      -9.260   3.869 132.706  0.00  0.00    +0.000 OA
ATOM     33  H   UNL     1      -9.937   4.302 133.219  0.00  0.00    +0.000 HD
ENDBRANCH   4  32
TORSDOF 4
ENDMDL
