MODEL 1
REMARK VINA RESULT:      -5.0      0.000      0.000
REMARK  Name = Migalastat
REMARK  5 active torsions:
REMARK  status: ('A' for Active; 'I' for Inactive)
REMARK    1  A    between atoms: O_1  and  C_2
REMARK    2  A    between atoms: C_2  and  C_3
REMARK    3  A    between atoms: C_6  and  O_7
REMARK    4  A    between atoms: C_8  and  O_9
REMARK    5  A    between atoms: C_10  and  O_11
REMARK                            x       y       z     vdW  Elec       q    Type
REMARK                         _______ _______ _______ _____ _____    ______ ____
ROOT
ATOM      1  C   UNK A   1     -11.896   7.386 128.530  0.00  0.00    +0.000 C 
ATOM      2  N   UNK A   1     -12.487   6.351 129.415  0.00  0.00    +0.000 NA
ATOM      3  C   UNK A   0     -12.014   6.410 130.791  0.00  0.00    +0.000 C 
ATOM      4  C   UNK A   1     -10.489   6.369 130.916  0.00  0.00    +0.000 C 
ATOM      5  C   UNK A   1      -9.883   7.498 130.058  0.00  0.00    +0.000 C 
ATOM      6  C   UNK A   1     -10.344   7.365 128.582  0.00  0.00    +0.000 C 
ATOM      7  H   UNK A   1     -12.309   5.425 129.027  0.00  0.00    +0.000 HD
ENDROOT
BRANCH   4   8
ATOM      8  O   UNK A   1     -10.129   6.473 132.296  0.00  0.00    +0.000 OA
ATOM      9  H   UNK A   1     -10.697   5.875 132.803  0.00  0.00    +0.000 HD
ENDBRANCH   4   8
BRANCH   5  10
ATOM     10  O   UNK A   1      -8.456   7.469 130.150  0.00  0.00    +0.000 OA
ATOM     11  H   UNK A   1      -8.180   6.557 129.941  0.00  0.00    +0.000 HD
ENDBRANCH   5  10
BRANCH   6  12
ATOM     12  O   UNK A   1      -9.801   6.151 128.032  0.00  0.00    +0.000 OA
ATOM     13  H   UNK A   1      -9.570   6.307 127.109  0.00  0.00    +0.000 HD
ENDBRANCH   6  12
BRANCH   1  14
ATOM     14  C   UNK A   1     -12.552   7.121 127.156  0.00  0.00    +0.000 C 
BRANCH  14  15
ATOM     15  O   UNK A   1     -11.695   6.663 126.129  0.00  0.00    +0.000 OA
ATOM     16  H   UNK A   1     -11.593   5.705 126.294  0.00  0.00    +0.000 HD
ENDBRANCH  14  15
ENDBRANCH   1  14
TORSDOF 5
ENDMDL
MODEL 2
REMARK VINA RESULT:      -4.7      2.036      2.488
REMARK  Name = Migalastat
REMARK  5 active torsions:
REMARK  status: ('A' for Active; 'I' for Inactive)
REMARK    1  A    between atoms: O_1  and  C_2
REMARK    2  A    between atoms: C_2  and  C_3
REMARK    3  A    between atoms: C_6  and  O_7
REMARK    4  A    between atoms: C_8  and  O_9
REMARK    5  A    between atoms: C_10  and  O_11
REMARK                            x       y       z     vdW  Elec       q    Type
REMARK                         _______ _______ _______ _____ _____    ______ ____
ROOT
ATOM      1  C   UNK A   1     -11.069   8.072 128.451  0.00  0.00    +0.000 C 
ATOM      2  N   UNK A   1     -12.297   8.893 128.601  0.00  0.00    +0.000 NA
ATOM      3  C   UNK A   0     -12.706   9.096 129.984  0.00  0.00    +0.000 C 
ATOM      4  C   UNK A   1     -12.871   7.794 130.771  0.00  0.00    +0.000 C 
ATOM      5  C   UNK A   1     -11.564   6.982 130.680  0.00  0.00    +0.000 C 
ATOM      6  C   UNK A   1     -11.193   6.715 129.196  0.00  0.00    +0.000 C 
ATOM      7  H   UNK A   1     -13.060   8.470 128.073  0.00  0.00    +0.000 HD
ENDROOT
BRANCH   4   8
ATOM      8  O   UNK A   1     -13.232   8.104 132.120  0.00  0.00    +0.000 OA
ATOM      9  H   UNK A   1     -12.815   7.452 132.703  0.00  0.00    +0.000 HD
ENDBRANCH   4   8
BRANCH   5  10
ATOM     10  O   UNK A   1     -11.702   5.752 131.399  0.00  0.00    +0.000 OA
ATOM     11  H   UNK A   1     -11.586   5.966 132.343  0.00  0.00    +0.000 HD
ENDBRANCH   5  10
BRANCH   6  12
ATOM     12  O   UNK A   1     -12.198   5.867 128.610  0.00  0.00    +0.000 OA
ATOM     13  H   UNK A   1     -11.763   5.227 128.034  0.00  0.00    +0.000 HD
ENDBRANCH   6  12
BRANCH   1  14
ATOM     14  C   UNK A   1     -10.846   8.012 126.923  0.00  0.00    +0.000 C 
BRANCH  14  15
ATOM     15  O   UNK A   1     -10.535   6.743 126.383  0.00  0.00    +0.000 OA
ATOM     16  H   UNK A   1      -9.643   6.536 126.724  0.00  0.00    +0.000 HD
ENDBRANCH  14  15
ENDBRANCH   1  14
TORSDOF 5
ENDMDL
MODEL 3
REMARK VINA RESULT:      -4.7      2.654      3.671
REMARK  Name = Migalastat
REMARK  5 active torsions:
REMARK  status: ('A' for Active; 'I' for Inactive)
REMARK    1  A    between atoms: O_1  and  C_2
REMARK    2  A    between atoms: C_2  and  C_3
REMARK    3  A    between atoms: C_6  and  O_7
REMARK    4  A    between atoms: C_8  and  O_9
REMARK    5  A    between atoms: C_10  and  O_11
REMARK                            x       y       z     vdW  Elec       q    Type
REMARK                         _______ _______ _______ _____ _____    ______ ____
ROOT
ATOM      1  C   UNK A   1     -12.876   8.792 128.505  0.00  0.00    +0.000 C 
ATOM      2  N   UNK A   1     -11.481   9.273 128.344  0.00  0.00    +0.000 NA
ATOM      3  C   UNK A   0     -10.554   8.251 127.875  0.00  0.00    +0.000 C 
ATOM      4  C   UNK A   1     -10.555   6.985 128.734  0.00  0.00    +0.000 C 
ATOM      5  C   UNK A   1     -11.995   6.443 128.832  0.00  0.00    +0.000 C 
ATOM      6  C   UNK A   1     -12.945   7.528 129.405  0.00  0.00    +0.000 C 
ATOM      7  H   UNK A   1     -11.148   9.664 129.225  0.00  0.00    +0.000 HD
ENDROOT
BRANCH   4   8
ATOM      8  O   UNK A   1      -9.647   6.035 128.170  0.00  0.00    +0.000 OA
ATOM      9  H   UNK A   1      -9.395   5.407 128.863  0.00  0.00    +0.000 HD
ENDBRANCH   4   8
BRANCH   5  10
ATOM     10  O   UNK A   1     -12.020   5.265 129.643  0.00  0.00    +0.000 OA
ATOM     11  H   UNK A   1     -12.546   4.602 129.159  0.00  0.00    +0.000 HD
ENDBRANCH   5  10
BRANCH   6  12
ATOM     12  O   UNK A   1     -12.564   7.811 130.764  0.00  0.00    +0.000 OA
ATOM     13  H   UNK A   1     -13.363   7.930 131.290  0.00  0.00    +0.000 HD
ENDBRANCH   6  12
BRANCH   1  14
ATOM     14  C   UNK A   1     -13.646  10.040 128.992  0.00  0.00    +0.000 C 
BRANCH  14  15
ATOM     15  O   UNK A   1     -13.279  10.549 130.259  0.00  0.00    +0.000 OA
ATOM     16  H   UNK A   1     -12.728   9.850 130.662  0.00  0.00    +0.000 HD
ENDBRANCH  14  15
ENDBRANCH   1  14
TORSDOF 5
ENDMDL
MODEL 4
REMARK VINA RESULT:      -4.6      1.925      2.525
REMARK  Name = Migalastat
REMARK  5 active torsions:
REMARK  status: ('A' for Active; 'I' for Inactive)
REMARK    1  A    between atoms: O_1  and  C_2
REMARK    2  A    between atoms: C_2  and  C_3
REMARK    3  A    between atoms: C_6  and  O_7
REMARK    4  A    between atoms: C_8  and  O_9
REMARK    5  A    between atoms: C_10  and  O_11
REMARK                            x       y       z     vdW  Elec       q    Type
REMARK                         _______ _______ _______ _____ _____    ______ ____
ROOT
ATOM      1  C   UNK A   1     -12.062   6.734 128.343  0.00  0.00    +0.000 C 
ATOM      2  N   UNK A   1     -10.681   6.349 128.727  0.00  0.00    +0.000 NA
ATOM      3  C   UNK A   0     -10.587   5.718 130.037  0.00  0.00    +0.000 C 
ATOM      4  C   UNK A   1     -11.212   6.546 131.161  0.00  0.00    +0.000 C 
ATOM      5  C   UNK A   1     -12.673   6.874 130.794  0.00  0.00    +0.000 C 
ATOM      6  C   UNK A   1     -12.735   7.614 129.430  0.00  0.00    +0.000 C 
ATOM      7  H   UNK A   1     -10.074   7.168 128.693  0.00  0.00    +0.000 HD
ENDROOT
BRANCH   4   8
ATOM      8  O   UNK A   1     -11.103   5.824 132.391  0.00  0.00    +0.000 OA
ATOM      9  H   UNK A   1     -11.998   5.642 132.715  0.00  0.00    +0.000 HD
ENDBRANCH   4   8
BRANCH   5  10
ATOM     10  O   UNK A   1     -13.271   7.661 131.828  0.00  0.00    +0.000 OA
ATOM     11  H   UNK A   1     -14.203   7.379 131.890  0.00  0.00    +0.000 HD
ENDBRANCH   5  10
BRANCH   6  12
ATOM     12  O   UNK A   1     -12.091   8.894 129.564  0.00  0.00    +0.000 OA
ATOM     13  H   UNK A   1     -12.038   9.305 128.694  0.00  0.00    +0.000 HD
ENDBRANCH   6  12
BRANCH   1  14
ATOM     14  C   UNK A   1     -11.897   7.362 126.940  0.00  0.00    +0.000 C 
BRANCH  14  15
ATOM     15  O   UNK A   1     -10.892   8.347 126.808  0.00  0.00    +0.000 OA
ATOM     16  H   UNK A   1     -11.031   8.732 125.920  0.00  0.00    +0.000 HD
ENDBRANCH  14  15
ENDBRANCH   1  14
TORSDOF 5
ENDMDL
MODEL 5
REMARK VINA RESULT:      -4.6      2.084      2.316
REMARK  Name = Migalastat
REMARK  5 active torsions:
REMARK  status: ('A' for Active; 'I' for Inactive)
REMARK    1  A    between atoms: O_1  and  C_2
REMARK    2  A    between atoms: C_2  and  C_3
REMARK    3  A    between atoms: C_6  and  O_7
REMARK    4  A    between atoms: C_8  and  O_9
REMARK    5  A    between atoms: C_10  and  O_11
REMARK                            x       y       z     vdW  Elec       q    Type
REMARK                         _______ _______ _______ _____ _____    ______ ____
ROOT
ATOM      1  C   UNK A   1     -12.050   8.308 129.547  0.00  0.00    +0.000 C 
ATOM      2  N   UNK A   1     -12.885   7.644 130.579  0.00  0.00    +0.000 NA
ATOM      3  C   UNK A   0     -12.145   6.738 131.446  0.00  0.00    +0.000 C 
ATOM      4  C   UNK A   1     -11.348   5.677 130.683  0.00  0.00    +0.000 C 
ATOM      5  C   UNK A   1     -10.422   6.375 129.668  0.00  0.00    +0.000 C 
ATOM      6  C   UNK A   1     -11.247   7.275 128.710  0.00  0.00    +0.000 C 
ATOM      7  H   UNK A   1     -13.653   7.145 130.131  0.00  0.00    +0.000 HD
ENDROOT
BRANCH   4   8
ATOM      8  O   UNK A   1     -10.629   4.869 131.619  0.00  0.00    +0.000 OA
ATOM      9  H   UNK A   1     -10.601   3.963 131.278  0.00  0.00    +0.000 HD
ENDBRANCH   4   8
BRANCH   5  10
ATOM     10  O   UNK A   1      -9.677   5.398 128.934  0.00  0.00    +0.000 OA
ATOM     11  H   UNK A   1     -10.325   4.760 128.581  0.00  0.00    +0.000 HD
ENDBRANCH   5  10
BRANCH   6  12
ATOM     12  O   UNK A   1     -12.108   6.440 127.912  0.00  0.00    +0.000 OA
ATOM     13  H   UNK A   1     -12.797   6.991 127.523  0.00  0.00    +0.000 HD
ENDBRANCH   6  12
BRANCH   1  14
ATOM     14  C   UNK A   1     -13.048   9.204 128.779  0.00  0.00    +0.000 C 
BRANCH  14  15
ATOM     15  O   UNK A   1     -13.090  10.565 129.159  0.00  0.00    +0.000 OA
ATOM     16  H   UNK A   1     -12.876  11.061 128.344  0.00  0.00    +0.000 HD
ENDBRANCH  14  15
ENDBRANCH   1  14
TORSDOF 5
ENDMDL
MODEL 6
REMARK VINA RESULT:      -4.6      7.832      9.099
REMARK  Name = Migalastat
REMARK  5 active torsions:
REMARK  status: ('A' for Active; 'I' for Inactive)
REMARK    1  A    between atoms: O_1  and  C_2
REMARK    2  A    between atoms: C_2  and  C_3
REMARK    3  A    between atoms: C_6  and  O_7
REMARK    4  A    between atoms: C_8  and  O_9
REMARK    5  A    between atoms: C_10  and  O_11
REMARK                            x       y       z     vdW  Elec       q    Type
REMARK                         _______ _______ _______ _____ _____    ______ ____
ROOT
ATOM      1  C   UNK A   1      -7.891   2.084 123.122  0.00  0.00    +0.000 C 
ATOM      2  N   UNK A   1      -7.265   0.953 123.853  0.00  0.00    +0.000 NA
ATOM      3  C   UNK A   0      -7.755  -0.357 123.446  0.00  0.00    +0.000 C 
ATOM      4  C   UNK A   1      -9.277  -0.490 123.519  0.00  0.00    +0.000 C 
ATOM      5  C   UNK A   1      -9.923   0.639 122.691  0.00  0.00    +0.000 C 
ATOM      6  C   UNK A   1      -9.441   2.025 123.197  0.00  0.00    +0.000 C 
ATOM      7  H   UNK A   1      -7.399   1.077 124.856  0.00  0.00    +0.000 HD
ENDROOT
BRANCH   4   8
ATOM      8  O   UNK A   1      -9.656  -1.792 123.062  0.00  0.00    +0.000 OA
ATOM      9  H   UNK A   1      -9.693  -1.774 122.094  0.00  0.00    +0.000 HD
ENDBRANCH   4   8
BRANCH   5  10
ATOM     10  O   UNK A   1     -11.348   0.540 122.758  0.00  0.00    +0.000 OA
ATOM     11  H   UNK A   1     -11.564   0.191 123.643  0.00  0.00    +0.000 HD
ENDBRANCH   5  10
BRANCH   6  12
ATOM     12  O   UNK A   1      -9.925   2.226 124.538  0.00  0.00    +0.000 OA
ATOM     13  H   UNK A   1      -9.621   1.496 125.088  0.00  0.00    +0.000 HD
ENDBRANCH   6  12
BRANCH   1  14
ATOM     14  C   UNK A   1      -7.210   3.336 123.719  0.00  0.00    +0.000 C 
BRANCH  14  15
ATOM     15  O   UNK A   1      -8.061   4.276 124.344  0.00  0.00    +0.000 OA
ATOM     16  H   UNK A   1      -7.763   4.308 125.274  0.00  0.00    +0.000 HD
ENDBRANCH  14  15
ENDBRANCH   1  14
TORSDOF 5
ENDMDL
MODEL 7
REMARK VINA RESULT:      -4.5      8.697      9.455
REMARK  Name = Migalastat
REMARK  5 active torsions:
REMARK  status: ('A' for Active; 'I' for Inactive)
REMARK    1  A    between atoms: O_1  and  C_2
REMARK    2  A    between atoms: C_2  and  C_3
REMARK    3  A    between atoms: C_6  and  O_7
REMARK    4  A    between atoms: C_8  and  O_9
REMARK    5  A    between atoms: C_10  and  O_11
REMARK                            x       y       z     vdW  Elec       q    Type
REMARK                         _______ _______ _______ _____ _____    ______ ____
ROOT
ATOM      1  C   UNK A   1      -8.724  -1.425 123.464  0.00  0.00    +0.000 C 
ATOM      2  N   UNK A   1      -9.841  -0.704 122.803  0.00  0.00    +0.000 NA
ATOM      3  C   UNK A   0      -9.836   0.734 123.033  0.00  0.00    +0.000 C 
ATOM      4  C   UNK A   1      -9.797   1.115 124.515  0.00  0.00    +0.000 C 
ATOM      5  C   UNK A   1      -8.587   0.429 125.181  0.00  0.00    +0.000 C 
ATOM      6  C   UNK A   1      -8.660  -1.109 124.983  0.00  0.00    +0.000 C 
ATOM      7  H   UNK A   1     -10.732  -1.100 123.104  0.00  0.00    +0.000 HD
ENDROOT
BRANCH   4   8
ATOM      8  O   UNK A   1      -9.753   2.540 124.631  0.00  0.00    +0.000 OA
ATOM      9  H   UNK A   1     -10.534   2.828 125.126  0.00  0.00    +0.000 HD
ENDBRANCH   4   8
BRANCH   5  10
ATOM     10  O   UNK A   1      -8.541   0.762 126.571  0.00  0.00    +0.000 OA
ATOM     11  H   UNK A   1      -9.431   0.590 126.930  0.00  0.00    +0.000 HD
ENDBRANCH   5  10
BRANCH   6  12
ATOM     12  O   UNK A   1      -9.807  -1.616 125.689  0.00  0.00    +0.000 OA
ATOM     13  H   UNK A   1     -10.049  -0.986 126.378  0.00  0.00    +0.000 HD
ENDBRANCH   6  12
BRANCH   1  14
ATOM     14  C   UNK A   1      -8.946  -2.902 123.066  0.00  0.00    +0.000 C 
BRANCH  14  15
ATOM     15  O   UNK A   1     -10.195  -3.465 123.415  0.00  0.00    +0.000 OA
ATOM     16  H   UNK A   1     -10.851  -2.975 122.881  0.00  0.00    +0.000 HD
ENDBRANCH  14  15
ENDBRANCH   1  14
TORSDOF 5
ENDMDL
MODEL 8
REMARK VINA RESULT:      -4.5      2.172      3.445
REMARK  Name = Migalastat
REMARK  5 active torsions:
REMARK  status: ('A' for Active; 'I' for Inactive)
REMARK    1  A    between atoms: O_1  and  C_2
REMARK    2  A    between atoms: C_2  and  C_3
REMARK    3  A    between atoms: C_6  and  O_7
REMARK    4  A    between atoms: C_8  and  O_9
REMARK    5  A    between atoms: C_10  and  O_11
REMARK                            x       y       z     vdW  Elec       q    Type
REMARK                         _______ _______ _______ _____ _____    ______ ____
ROOT
ATOM      1  C   UNK A   1     -11.494   5.992 129.895  0.00  0.00    +0.000 C 
ATOM      2  N   UNK A   1     -12.128   6.857 130.921  0.00  0.00    +0.000 NA
ATOM      3  C   UNK A   0     -12.941   7.931 130.367  0.00  0.00    +0.000 C 
ATOM      4  C   UNK A   1     -12.193   8.808 129.361  0.00  0.00    +0.000 C 
ATOM      5  C   UNK A   1     -11.604   7.912 128.252  0.00  0.00    +0.000 C 
ATOM      6  C   UNK A   1     -10.682   6.825 128.866  0.00  0.00    +0.000 C 
ATOM      7  H   UNK A   1     -11.411   7.245 131.534  0.00  0.00    +0.000 HD
ENDROOT
BRANCH   4   8
ATOM      8  O   UNK A   1     -13.086   9.800 128.849  0.00  0.00    +0.000 OA
ATOM      9  H   UNK A   1     -12.952   9.864 127.892  0.00  0.00    +0.000 HD
ENDBRANCH   4   8
BRANCH   5  10
ATOM     10  O   UNK A   1     -10.888   8.713 127.307  0.00  0.00    +0.000 OA
ATOM     11  H   UNK A   1      -9.957   8.722 127.597  0.00  0.00    +0.000 HD
ENDBRANCH   5  10
BRANCH   6  12
ATOM     12  O   UNK A   1      -9.542   7.466 129.468  0.00  0.00    +0.000 OA
ATOM     13  H   UNK A   1      -8.869   6.798 129.641  0.00  0.00    +0.000 HD
ENDBRANCH   6  12
BRANCH   1  14
ATOM     14  C   UNK A   1     -10.709   4.947 130.722  0.00  0.00    +0.000 C 
BRANCH  14  15
ATOM     15  O   UNK A   1     -11.225   3.631 130.723  0.00  0.00    +0.000 OA
ATOM     16  H   UNK A   1     -11.470   3.457 131.652  0.00  0.00    +0.000 HD
ENDBRANCH  14  15
ENDBRANCH   1  14
TORSDOF 5
ENDMDL
MODEL 9
REMARK VINA RESULT:      -4.5      2.518      3.617
REMARK  Name = Migalastat
REMARK  5 active torsions:
REMARK  status: ('A' for Active; 'I' for Inactive)
REMARK    1  A    between atoms: O_1  and  C_2
REMARK    2  A    between atoms: C_2  and  C_3
REMARK    3  A    between atoms: C_6  and  O_7
REMARK    4  A    between atoms: C_8  and  O_9
REMARK    5  A    between atoms: C_10  and  O_11
REMARK                            x       y       z     vdW  Elec       q    Type
REMARK                         _______ _______ _______ _____ _____    ______ ____
ROOT
ATOM      1  C   UNK A   1      -9.233   5.461 129.720  0.00  0.00    +0.000 C 
ATOM      2  N   UNK A   1      -9.683   6.197 128.512  0.00  0.00    +0.000 NA
ATOM      3  C   UNK A   0     -10.443   7.404 128.805  0.00  0.00    +0.000 C 
ATOM      4  C   UNK A   1     -11.642   7.164 129.725  0.00  0.00    +0.000 C 
ATOM      5  C   UNK A   1     -11.157   6.472 131.014  0.00  0.00    +0.000 C 
ATOM      6  C   UNK A   1     -10.417   5.150 130.675  0.00  0.00    +0.000 C 
ATOM      7  H   UNK A   1     -10.232   5.577 127.917  0.00  0.00    +0.000 HD
ENDROOT
BRANCH   4   8
ATOM      8  O   UNK A   1     -12.292   8.411 129.982  0.00  0.00    +0.000 OA
ATOM      9  H   UNK A   1     -11.791   8.879 130.666  0.00  0.00    +0.000 HD
ENDBRANCH   4   8
BRANCH   5  10
ATOM     10  O   UNK A   1     -12.267   6.225 131.883  0.00  0.00    +0.000 OA
ATOM     11  H   UNK A   1     -12.084   5.383 132.339  0.00  0.00    +0.000 HD
ENDBRANCH   5  10
BRANCH   6  12
ATOM     12  O   UNK A   1     -11.355   4.227 130.090  0.00  0.00    +0.000 OA
ATOM     13  H   UNK A   1     -11.257   3.372 130.523  0.00  0.00    +0.000 HD
ENDBRANCH   6  12
BRANCH   1  14
ATOM     14  C   UNK A   1      -8.458   4.250 129.151  0.00  0.00    +0.000 C 
BRANCH  14  15
ATOM     15  O   UNK A   1      -9.203   3.065 128.953  0.00  0.00    +0.000 OA
ATOM     16  H   UNK A   1      -9.881   3.072 129.657  0.00  0.00    +0.000 HD
ENDBRANCH  14  15
ENDBRANCH   1  14
TORSDOF 5
ENDMDL
