MODEL 1
REMARK VINA RESULT:      -5.5      0.000      0.000
REMARK  Name = Miglitol
REMARK  8 active torsions:
REMARK  status: ('A' for Active; 'I' for Inactive)
REMARK    1  A    between atoms: O_1  and  C_2
REMARK    2  A    between atoms: C_2  and  C_3
REMARK    3  A    between atoms: C_3  and  N_4
REMARK    4  A    between atoms: C_6  and  O_7
REMARK    5  A    between atoms: C_8  and  O_9
REMARK    6  A    between atoms: C_10  and  O_11
REMARK    7  A    between atoms: C_12  and  C_13
REMARK    8  A    between atoms: C_13  and  O_14
REMARK                            x       y       z     vdW  Elec       q    Type
REMARK                         _______ _______ _______ _____ _____    ______ ____
ROOT
ATOM      1  N   UNL     1     -12.742   8.181 128.949  0.00  0.00    +0.000 NA
ATOM      2  C   UNL     1     -12.751   8.008 130.424  0.00  0.00    +0.000 C 
ATOM      3  C   UNL     1     -12.289   6.620 130.873  0.00  0.00    +0.000 C 
ATOM      4  C   UNL     1     -10.843   6.422 130.418  0.00  0.00    +0.000 C 
ATOM      5  C   UNL     1     -10.758   6.596 128.899  0.00  0.00    +0.000 C 
ATOM      6  C   UNL     1     -11.378   7.932 128.374  0.00  0.00    +0.000 C 
ENDROOT
BRANCH   3   7
ATOM      7  O   UNL     1     -12.417   6.493 132.295  0.00  0.00    +0.000 OA
ATOM      8  H   UNL     1     -11.957   7.226 132.720  0.00  0.00    +0.000 HD
ENDBRANCH   3   7
BRANCH   4   9
ATOM      9  O   UNL     1     -10.362   5.124 130.792  0.00  0.00    +0.000 OA
ATOM     10  H   UNL     1      -9.903   5.212 131.646  0.00  0.00    +0.000 HD
ENDBRANCH   4   9
BRANCH   5  11
ATOM     11  O   UNL     1      -9.381   6.505 128.485  0.00  0.00    +0.000 OA
ATOM     12  H   UNL     1      -8.819   6.851 129.194  0.00  0.00    +0.000 HD
ENDBRANCH   5  11
BRANCH   1  13
ATOM     13  C   UNL     1     -13.336   9.521 128.681  0.00  0.00    +0.000 C 
BRANCH  13  14
ATOM     14  C   UNL     1     -13.241  10.481 129.852  0.00  0.00    +0.000 C 
BRANCH  14  15
ATOM     15  O   UNL     1     -13.272  11.861 129.542  0.00  0.00    +0.000 OA
ATOM     16  H   UNL     1     -12.348  12.063 129.291  0.00  0.00    +0.000 HD
ENDBRANCH  14  15
ENDBRANCH  13  14
ENDBRANCH   1  13
BRANCH   6  17
ATOM     17  C   UNL     1     -11.099   7.870 126.807  0.00  0.00    +0.000 C 
BRANCH  17  18
ATOM     18  O   UNL     1     -11.152   6.607 126.161  0.00  0.00    +0.000 OA
ATOM     19  H   UNL     1     -10.233   6.342 125.973  0.00  0.00    +0.000 HD
ENDBRANCH  17  18
ENDBRANCH   6  17
TORSDOF 8
ENDMDL
MODEL 2
REMARK VINA RESULT:      -5.2      1.452      3.849
REMARK  Name = Miglitol
REMARK  8 active torsions:
REMARK  status: ('A' for Active; 'I' for Inactive)
REMARK    1  A    between atoms: O_1  and  C_2
REMARK    2  A    between atoms: C_2  and  C_3
REMARK    3  A    between atoms: C_3  and  N_4
REMARK    4  A    between atoms: C_6  and  O_7
REMARK    5  A    between atoms: C_8  and  O_9
REMARK    6  A    between atoms: C_10  and  O_11
REMARK    7  A    between atoms: C_12  and  C_13
REMARK    8  A    between atoms: C_13  and  O_14
REMARK                            x       y       z     vdW  Elec       q    Type
REMARK                         _______ _______ _______ _____ _____    ______ ____
ROOT
ATOM      1  N   UNL     1     -10.747   8.061 129.012  0.00  0.00    +0.000 NA
ATOM      2  C   UNL     1      -9.980   6.807 129.228  0.00  0.00    +0.000 C 
ATOM      3  C   UNL     1      -9.829   6.438 130.705  0.00  0.00    +0.000 C 
ATOM      4  C   UNL     1     -11.223   6.204 131.290  0.00  0.00    +0.000 C 
ATOM      5  C   UNL     1     -12.075   7.461 131.092  0.00  0.00    +0.000 C 
ATOM      6  C   UNL     1     -12.118   7.978 129.618  0.00  0.00    +0.000 C 
ENDROOT
BRANCH   3   7
ATOM      7  O   UNL     1      -8.998   5.278 130.841  0.00  0.00    +0.000 OA
ATOM      8  H   UNL     1      -9.226   4.820 131.659  0.00  0.00    +0.000 HD
ENDBRANCH   3   7
BRANCH   4   9
ATOM      9  O   UNL     1     -11.144   5.876 132.683  0.00  0.00    +0.000 OA
ATOM     10  H   UNL     1     -10.330   5.362 132.822  0.00  0.00    +0.000 HD
ENDBRANCH   4   9
BRANCH   5  11
ATOM     11  O   UNL     1     -13.415   7.205 131.556  0.00  0.00    +0.000 OA
ATOM     12  H   UNL     1     -13.735   6.388 131.147  0.00  0.00    +0.000 HD
ENDBRANCH   5  11
BRANCH   1  13
ATOM     13  C   UNL     1     -10.688   8.342 127.550  0.00  0.00    +0.000 C 
BRANCH  13  14
ATOM     14  C   UNL     1     -10.661   7.095 126.685  0.00  0.00    +0.000 C 
BRANCH  14  15
ATOM     15  O   UNL     1     -11.907   6.643 126.190  0.00  0.00    +0.000 OA
ATOM     16  H   UNL     1     -12.139   5.903 126.786  0.00  0.00    +0.000 HD
ENDBRANCH  14  15
ENDBRANCH  13  14
ENDBRANCH   1  13
BRANCH   6  17
ATOM     17  C   UNL     1     -13.103   9.228 129.700  0.00  0.00    +0.000 C 
BRANCH  17  18
ATOM     18  O   UNL     1     -13.117   9.999 130.892  0.00  0.00    +0.000 OA
ATOM     19  H   UNL     1     -13.323   9.390 131.625  0.00  0.00    +0.000 HD
ENDBRANCH  17  18
ENDBRANCH   6  17
TORSDOF 8
ENDMDL
MODEL 3
REMARK VINA RESULT:      -5.2      1.142      3.483
REMARK  Name = Miglitol
REMARK  8 active torsions:
REMARK  status: ('A' for Active; 'I' for Inactive)
REMARK    1  A    between atoms: O_1  and  C_2
REMARK    2  A    between atoms: C_2  and  C_3
REMARK    3  A    between atoms: C_3  and  N_4
REMARK    4  A    between atoms: C_6  and  O_7
REMARK    5  A    between atoms: C_8  and  O_9
REMARK    6  A    between atoms: C_10  and  O_11
REMARK    7  A    between atoms: C_12  and  C_13
REMARK    8  A    between atoms: C_13  and  O_14
REMARK                            x       y       z     vdW  Elec       q    Type
REMARK                         _______ _______ _______ _____ _____    ______ ____
ROOT
ATOM      1  N   UNL     1     -11.678   8.458 129.325  0.00  0.00    +0.000 NA
ATOM      2  C   UNL     1     -11.872   8.464 127.852  0.00  0.00    +0.000 C 
ATOM      3  C   UNL     1     -10.653   7.954 127.079  0.00  0.00    +0.000 C 
ATOM      4  C   UNL     1     -10.400   6.501 127.481  0.00  0.00    +0.000 C 
ATOM      5  C   UNL     1     -10.198   6.419 128.998  0.00  0.00    +0.000 C 
ATOM      6  C   UNL     1     -11.342   7.085 129.830  0.00  0.00    +0.000 C 
ENDROOT
BRANCH   3   7
ATOM      7  O   UNL     1     -10.876   8.081 125.669  0.00  0.00    +0.000 OA
ATOM      8  H   UNL     1     -11.824   8.158 125.505  0.00  0.00    +0.000 HD
ENDBRANCH   3   7
BRANCH   4   9
ATOM      9  O   UNL     1      -9.252   5.975 126.803  0.00  0.00    +0.000 OA
ATOM     10  H   UNL     1      -9.564   5.327 126.148  0.00  0.00    +0.000 HD
ENDBRANCH   4   9
BRANCH   5  11
ATOM     11  O   UNL     1     -10.056   5.039 129.385  0.00  0.00    +0.000 OA
ATOM     12  H   UNL     1      -9.120   4.797 129.337  0.00  0.00    +0.000 HD
ENDBRANCH   5  11
BRANCH   1  13
ATOM     13  C   UNL     1     -12.889   9.098 129.911  0.00  0.00    +0.000 C 
BRANCH  13  14
ATOM     14  C   UNL     1     -13.492  10.183 129.038  0.00  0.00    +0.000 C 
BRANCH  14  15
ATOM     15  O   UNL     1     -13.176  11.519 129.382  0.00  0.00    +0.000 OA
ATOM     16  H   UNL     1     -12.317  11.674 128.940  0.00  0.00    +0.000 HD
ENDBRANCH  14  15
ENDBRANCH  13  14
ENDBRANCH   1  13
BRANCH   6  17
ATOM     17  C   UNL     1     -10.906   6.801 131.336  0.00  0.00    +0.000 C 
BRANCH  17  18
ATOM     18  O   UNL     1     -11.545   5.744 132.035  0.00  0.00    +0.000 OA
ATOM     19  H   UNL     1     -11.096   5.657 132.897  0.00  0.00    +0.000 HD
ENDBRANCH  17  18
ENDBRANCH   6  17
TORSDOF 8
ENDMDL
MODEL 4
REMARK VINA RESULT:      -4.7     10.696     12.825
REMARK  Name = Miglitol
REMARK  8 active torsions:
REMARK  status: ('A' for Active; 'I' for Inactive)
REMARK    1  A    between atoms: O_1  and  C_2
REMARK    2  A    between atoms: C_2  and  C_3
REMARK    3  A    between atoms: C_3  and  N_4
REMARK    4  A    between atoms: C_6  and  O_7
REMARK    5  A    between atoms: C_8  and  O_9
REMARK    6  A    between atoms: C_10  and  O_11
REMARK    7  A    between atoms: C_12  and  C_13
REMARK    8  A    between atoms: C_13  and  O_14
REMARK                            x       y       z     vdW  Elec       q    Type
REMARK                         _______ _______ _______ _____ _____    ______ ____
ROOT
ATOM      1  N   UNL     1      -6.307  -2.689 124.166  0.00  0.00    +0.000 NA
ATOM      2  C   UNL     1      -5.543  -2.077 125.284  0.00  0.00    +0.000 C 
ATOM      3  C   UNL     1      -5.774  -0.571 125.421  0.00  0.00    +0.000 C 
ATOM      4  C   UNL     1      -7.254  -0.334 125.721  0.00  0.00    +0.000 C 
ATOM      5  C   UNL     1      -8.105  -0.950 124.606  0.00  0.00    +0.000 C 
ATOM      6  C   UNL     1      -7.781  -2.451 124.312  0.00  0.00    +0.000 C 
ENDROOT
BRANCH   3   7
ATOM      7  O   UNL     1      -4.934  -0.035 126.451  0.00  0.00    +0.000 OA
ATOM      8  H   UNL     1      -4.498   0.760 126.121  0.00  0.00    +0.000 HD
ENDBRANCH   3   7
BRANCH   4   9
ATOM      9  O   UNL     1      -7.535   1.067 125.837  0.00  0.00    +0.000 OA
ATOM     10  H   UNL     1      -8.231   1.285 125.193  0.00  0.00    +0.000 HD
ENDBRANCH   4   9
BRANCH   5  11
ATOM     11  O   UNL     1      -9.500  -0.811 124.940  0.00  0.00    +0.000 OA
ATOM     12  H   UNL     1      -9.786   0.085 124.713  0.00  0.00    +0.000 HD
ENDBRANCH   5  11
BRANCH   1  13
ATOM     13  C   UNL     1      -5.872  -4.112 124.090  0.00  0.00    +0.000 C 
BRANCH  13  14
ATOM     14  C   UNL     1      -4.456  -4.295 123.576  0.00  0.00    +0.000 C 
BRANCH  14  15
ATOM     15  O   UNL     1      -4.142  -5.561 123.027  0.00  0.00    +0.000 OA
ATOM     16  H   UNL     1      -3.513  -5.943 123.671  0.00  0.00    +0.000 HD
ENDBRANCH  14  15
ENDBRANCH  13  14
ENDBRANCH   1  13
BRANCH   6  17
ATOM     17  C   UNL     1      -8.834  -2.834 123.180  0.00  0.00    +0.000 C 
BRANCH  17  18
ATOM     18  O   UNL     1     -10.065  -3.420 123.573  0.00  0.00    +0.000 OA
ATOM     19  H   UNL     1     -10.756  -3.058 122.988  0.00  0.00    +0.000 HD
ENDBRANCH  17  18
ENDBRANCH   6  17
TORSDOF 8
ENDMDL
MODEL 5
REMARK VINA RESULT:      -4.6      8.680     10.688
REMARK  Name = Miglitol
REMARK  8 active torsions:
REMARK  status: ('A' for Active; 'I' for Inactive)
REMARK    1  A    between atoms: O_1  and  C_2
REMARK    2  A    between atoms: C_2  and  C_3
REMARK    3  A    between atoms: C_3  and  N_4
REMARK    4  A    between atoms: C_6  and  O_7
REMARK    5  A    between atoms: C_8  and  O_9
REMARK    6  A    between atoms: C_10  and  O_11
REMARK    7  A    between atoms: C_12  and  C_13
REMARK    8  A    between atoms: C_13  and  O_14
REMARK                            x       y       z     vdW  Elec       q    Type
REMARK                         _______ _______ _______ _____ _____    ______ ____
ROOT
ATOM      1  N   UNL     1      -7.815  -0.637 123.326  0.00  0.00    +0.000 NA
ATOM      2  C   UNL     1      -6.924  -0.647 124.515  0.00  0.00    +0.000 C 
ATOM      3  C   UNL     1      -6.504   0.753 124.967  0.00  0.00    +0.000 C 
ATOM      4  C   UNL     1      -7.760   1.529 125.367  0.00  0.00    +0.000 C 
ATOM      5  C   UNL     1      -8.731   1.571 124.183  0.00  0.00    +0.000 C 
ATOM      6  C   UNL     1      -9.056   0.168 123.575  0.00  0.00    +0.000 C 
ENDROOT
BRANCH   3   7
ATOM      7  O   UNL     1      -5.572   0.661 126.052  0.00  0.00    +0.000 OA
ATOM      8  H   UNL     1      -6.027   0.868 126.877  0.00  0.00    +0.000 HD
ENDBRANCH   3   7
BRANCH   4   9
ATOM      9  O   UNL     1      -7.428   2.861 125.780  0.00  0.00    +0.000 OA
ATOM     10  H   UNL     1      -7.841   3.015 126.647  0.00  0.00    +0.000 HD
ENDBRANCH   4   9
BRANCH   5  11
ATOM     11  O   UNL     1      -9.952   2.218 124.593  0.00  0.00    +0.000 OA
ATOM     12  H   UNL     1     -10.456   1.607 125.149  0.00  0.00    +0.000 HD
ENDBRANCH   5  11
BRANCH   1  13
ATOM     13  C   UNL     1      -8.019  -2.063 122.943  0.00  0.00    +0.000 C 
BRANCH  13  14
ATOM     14  C   UNL     1      -8.896  -2.838 123.908  0.00  0.00    +0.000 C 
BRANCH  14  15
ATOM     15  O   UNL     1     -10.118  -3.333 123.394  0.00  0.00    +0.000 OA
ATOM     16  H   UNL     1     -10.154  -4.252 123.726  0.00  0.00    +0.000 HD
ENDBRANCH  14  15
ENDBRANCH  13  14
ENDBRANCH   1  13
BRANCH   6  17
ATOM     17  C   UNL     1     -10.111   0.506 122.430  0.00  0.00    +0.000 C 
BRANCH  17  18
ATOM     18  O   UNL     1     -11.481   0.618 122.785  0.00  0.00    +0.000 OA
ATOM     19  H   UNL     1     -11.999   0.232 122.055  0.00  0.00    +0.000 HD
ENDBRANCH  17  18
ENDBRANCH   6  17
TORSDOF 8
ENDMDL
MODEL 6
REMARK VINA RESULT:      -4.6     11.344     13.205
REMARK  Name = Miglitol
REMARK  8 active torsions:
REMARK  status: ('A' for Active; 'I' for Inactive)
REMARK    1  A    between atoms: O_1  and  C_2
REMARK    2  A    between atoms: C_2  and  C_3
REMARK    3  A    between atoms: C_3  and  N_4
REMARK    4  A    between atoms: C_6  and  O_7
REMARK    5  A    between atoms: C_8  and  O_9
REMARK    6  A    between atoms: C_10  and  O_11
REMARK    7  A    between atoms: C_12  and  C_13
REMARK    8  A    between atoms: C_13  and  O_14
REMARK                            x       y       z     vdW  Elec       q    Type
REMARK                         _______ _______ _______ _____ _____    ______ ____
ROOT
ATOM      1  N   UNL     1      -6.443  -3.194 124.383  0.00  0.00    +0.000 NA
ATOM      2  C   UNL     1      -7.640  -3.111 123.507  0.00  0.00    +0.000 C 
ATOM      3  C   UNL     1      -8.940  -3.486 124.223  0.00  0.00    +0.000 C 
ATOM      4  C   UNL     1      -9.165  -2.497 125.366  0.00  0.00    +0.000 C 
ATOM      5  C   UNL     1      -7.957  -2.524 126.308  0.00  0.00    +0.000 C 
ATOM      6  C   UNL     1      -6.584  -2.316 125.592  0.00  0.00    +0.000 C 
ENDROOT
BRANCH   3   7
ATOM      7  O   UNL     1     -10.033  -3.479 123.296  0.00  0.00    +0.000 OA
ATOM      8  H   UNL     1     -10.153  -2.584 122.957  0.00  0.00    +0.000 HD
ENDBRANCH   3   7
BRANCH   4   9
ATOM      9  O   UNL     1     -10.361  -2.814 126.089  0.00  0.00    +0.000 OA
ATOM     10  H   UNL     1     -10.804  -3.545 125.624  0.00  0.00    +0.000 HD
ENDBRANCH   4   9
BRANCH   5  11
ATOM     11  O   UNL     1      -8.129  -1.522 127.330  0.00  0.00    +0.000 OA
ATOM     12  H   UNL     1      -8.204  -0.655 126.906  0.00  0.00    +0.000 HD
ENDBRANCH   5  11
BRANCH   1  13
ATOM     13  C   UNL     1      -5.265  -2.929 123.509  0.00  0.00    +0.000 C 
BRANCH  13  14
ATOM     14  C   UNL     1      -4.206  -4.015 123.562  0.00  0.00    +0.000 C 
BRANCH  14  15
ATOM     15  O   UNL     1      -4.671  -5.350 123.589  0.00  0.00    +0.000 OA
ATOM     16  H   UNL     1      -5.635  -5.257 123.727  0.00  0.00    +0.000 HD
ENDBRANCH  14  15
ENDBRANCH  13  14
ENDBRANCH   1  13
BRANCH   6  17
ATOM     17  C   UNL     1      -5.541  -2.330 126.796  0.00  0.00    +0.000 C 
BRANCH  17  18
ATOM     18  O   UNL     1      -5.093  -1.087 127.316  0.00  0.00    +0.000 OA
ATOM     19  H   UNL     1      -4.183  -1.222 127.637  0.00  0.00    +0.000 HD
ENDBRANCH  17  18
ENDBRANCH   6  17
TORSDOF 8
ENDMDL
MODEL 7
REMARK VINA RESULT:      -4.5      2.350      4.491
REMARK  Name = Miglitol
REMARK  8 active torsions:
REMARK  status: ('A' for Active; 'I' for Inactive)
REMARK    1  A    between atoms: O_1  and  C_2
REMARK    2  A    between atoms: C_2  and  C_3
REMARK    3  A    between atoms: C_3  and  N_4
REMARK    4  A    between atoms: C_6  and  O_7
REMARK    5  A    between atoms: C_8  and  O_9
REMARK    6  A    between atoms: C_10  and  O_11
REMARK    7  A    between atoms: C_12  and  C_13
REMARK    8  A    between atoms: C_13  and  O_14
REMARK                            x       y       z     vdW  Elec       q    Type
REMARK                         _______ _______ _______ _____ _____    ______ ____
ROOT
ATOM      1  N   UNL     1      -9.523   6.101 129.438  0.00  0.00    +0.000 NA
ATOM      2  C   UNL     1      -9.827   5.439 130.733  0.00  0.00    +0.000 C 
ATOM      3  C   UNL     1     -10.675   6.303 131.669  0.00  0.00    +0.000 C 
ATOM      4  C   UNL     1     -12.018   6.576 130.990  0.00  0.00    +0.000 C 
ATOM      5  C   UNL     1     -11.777   7.253 129.638  0.00  0.00    +0.000 C 
ATOM      6  C   UNL     1     -10.776   6.490 128.711  0.00  0.00    +0.000 C 
ENDROOT
BRANCH   3   7
ATOM      7  O   UNL     1     -10.845   5.643 132.930  0.00  0.00    +0.000 OA
ATOM      8  H   UNL     1     -11.449   6.159 133.477  0.00  0.00    +0.000 HD
ENDBRANCH   3   7
BRANCH   4   9
ATOM      9  O   UNL     1     -12.849   7.403 131.815  0.00  0.00    +0.000 OA
ATOM     10  H   UNL     1     -13.493   7.847 131.237  0.00  0.00    +0.000 HD
ENDBRANCH   4   9
BRANCH   5  11
ATOM     11  O   UNL     1     -13.037   7.421 128.959  0.00  0.00    +0.000 OA
ATOM     12  H   UNL     1     -12.983   6.992 128.093  0.00  0.00    +0.000 HD
ENDBRANCH   5  11
BRANCH   1  13
ATOM     13  C   UNL     1      -8.593   5.192 128.711  0.00  0.00    +0.000 C 
BRANCH  13  14
ATOM     14  C   UNL     1      -8.481   3.808 129.325  0.00  0.00    +0.000 C 
BRANCH  14  15
ATOM     15  O   UNL     1      -8.982   2.733 128.555  0.00  0.00    +0.000 OA
ATOM     16  H   UNL     1      -8.191   2.388 128.096  0.00  0.00    +0.000 HD
ENDBRANCH  14  15
ENDBRANCH  13  14
ENDBRANCH   1  13
BRANCH   6  17
ATOM     17  C   UNL     1     -10.767   7.371 127.384  0.00  0.00    +0.000 C 
BRANCH  17  18
ATOM     18  O   UNL     1     -11.147   6.756 126.162  0.00  0.00    +0.000 OA
ATOM     19  H   UNL     1     -11.750   7.371 125.706  0.00  0.00    +0.000 HD
ENDBRANCH  17  18
ENDBRANCH   6  17
TORSDOF 8
ENDMDL
MODEL 8
REMARK VINA RESULT:      -4.4      7.937      9.302
REMARK  Name = Miglitol
REMARK  8 active torsions:
REMARK  status: ('A' for Active; 'I' for Inactive)
REMARK    1  A    between atoms: O_1  and  C_2
REMARK    2  A    between atoms: C_2  and  C_3
REMARK    3  A    between atoms: C_3  and  N_4
REMARK    4  A    between atoms: C_6  and  O_7
REMARK    5  A    between atoms: C_8  and  O_9
REMARK    6  A    between atoms: C_10  and  O_11
REMARK    7  A    between atoms: C_12  and  C_13
REMARK    8  A    between atoms: C_13  and  O_14
REMARK                            x       y       z     vdW  Elec       q    Type
REMARK                         _______ _______ _______ _____ _____    ______ ____
ROOT
ATOM      1  N   UNL     1      -8.077   2.752 122.309  0.00  0.00    +0.000 NA
ATOM      2  C   UNL     1      -9.377   2.097 122.017  0.00  0.00    +0.000 C 
ATOM      3  C   UNL     1      -9.731   0.986 123.008  0.00  0.00    +0.000 C 
ATOM      4  C   UNL     1      -9.854   1.602 124.401  0.00  0.00    +0.000 C 
ATOM      5  C   UNL     1      -8.544   2.305 124.765  0.00  0.00    +0.000 C 
ATOM      6  C   UNL     1      -8.051   3.331 123.693  0.00  0.00    +0.000 C 
ENDROOT
BRANCH   3   7
ATOM      7  O   UNL     1     -10.945   0.337 122.608  0.00  0.00    +0.000 OA
ATOM      8  H   UNL     1     -11.474   0.147 123.391  0.00  0.00    +0.000 HD
ENDBRANCH   3   7
BRANCH   4   9
ATOM      9  O   UNL     1     -10.164   0.600 125.378  0.00  0.00    +0.000 OA
ATOM     10  H   UNL     1     -10.231  -0.254 124.917  0.00  0.00    +0.000 HD
ENDBRANCH   4   9
BRANCH   5  11
ATOM     11  O   UNL     1      -8.696   2.967 126.037  0.00  0.00    +0.000 OA
ATOM     12  H   UNL     1      -8.970   2.314 126.696  0.00  0.00    +0.000 HD
ENDBRANCH   5  11
BRANCH   1  13
ATOM     13  C   UNL     1      -7.826   3.704 121.191  0.00  0.00    +0.000 C 
BRANCH  13  14
ATOM     14  C   UNL     1      -6.393   3.699 120.690  0.00  0.00    +0.000 C 
BRANCH  14  15
ATOM     15  O   UNL     1      -5.558   4.742 121.155  0.00  0.00    +0.000 OA
ATOM     16  H   UNL     1      -5.681   4.723 122.125  0.00  0.00    +0.000 HD
ENDBRANCH  14  15
ENDBRANCH  13  14
ENDBRANCH   1  13
BRANCH   6  17
ATOM     17  C   UNL     1      -6.733   3.938 124.352  0.00  0.00    +0.000 C 
BRANCH  17  18
ATOM     18  O   UNL     1      -6.745   5.299 124.756  0.00  0.00    +0.000 OA
ATOM     19  H   UNL     1      -7.622   5.658 124.527  0.00  0.00    +0.000 HD
ENDBRANCH  17  18
ENDBRANCH   6  17
TORSDOF 8
ENDMDL
MODEL 9
REMARK VINA RESULT:      -4.4      7.943     10.349
REMARK  Name = Miglitol
REMARK  8 active torsions:
REMARK  status: ('A' for Active; 'I' for Inactive)
REMARK    1  A    between atoms: O_1  and  C_2
REMARK    2  A    between atoms: C_2  and  C_3
REMARK    3  A    between atoms: C_3  and  N_4
REMARK    4  A    between atoms: C_6  and  O_7
REMARK    5  A    between atoms: C_8  and  O_9
REMARK    6  A    between atoms: C_10  and  O_11
REMARK    7  A    between atoms: C_12  and  C_13
REMARK    8  A    between atoms: C_13  and  O_14
REMARK                            x       y       z     vdW  Elec       q    Type
REMARK                         _______ _______ _______ _____ _____    ______ ____
ROOT
ATOM      1  N   UNL     1      -7.700   0.242 123.814  0.00  0.00    +0.000 NA
ATOM      2  C   UNL     1      -7.149   1.501 123.251  0.00  0.00    +0.000 C 
ATOM      3  C   UNL     1      -8.061   2.711 123.468  0.00  0.00    +0.000 C 
ATOM      4  C   UNL     1      -8.216   2.935 124.972  0.00  0.00    +0.000 C 
ATOM      5  C   UNL     1      -8.776   1.666 125.622  0.00  0.00    +0.000 C 
ATOM      6  C   UNL     1      -7.971   0.369 125.285  0.00  0.00    +0.000 C 
ENDROOT
BRANCH   3   7
ATOM      7  O   UNL     1      -7.513   3.864 122.816  0.00  0.00    +0.000 OA
ATOM      8  H   UNL     1      -7.922   3.959 121.947  0.00  0.00    +0.000 HD
ENDBRANCH   3   7
BRANCH   4   9
ATOM      9  O   UNL     1      -9.082   4.047 125.237  0.00  0.00    +0.000 OA
ATOM     10  H   UNL     1      -9.504   4.301 124.398  0.00  0.00    +0.000 HD
ENDBRANCH   4   9
BRANCH   5  11
ATOM     11  O   UNL     1      -8.831   1.847 127.050  0.00  0.00    +0.000 OA
ATOM     12  H   UNL     1      -8.144   1.301 127.459  0.00  0.00    +0.000 HD
ENDBRANCH   5  11
BRANCH   1  13
ATOM     13  C   UNL     1      -6.766  -0.845 123.407  0.00  0.00    +0.000 C 
BRANCH  13  14
ATOM     14  C   UNL     1      -7.445  -2.009 122.710  0.00  0.00    +0.000 C 
BRANCH  14  15
ATOM     15  O   UNL     1      -8.859  -2.033 122.753  0.00  0.00    +0.000 OA
ATOM     16  H   UNL     1      -9.123  -1.866 121.826  0.00  0.00    +0.000 HD
ENDBRANCH  14  15
ENDBRANCH  13  14
ENDBRANCH   1  13
BRANCH   6  17
ATOM     17  C   UNL     1      -8.726  -0.754 126.125  0.00  0.00    +0.000 C 
BRANCH  17  18
ATOM     18  O   UNL     1      -9.713  -1.538 125.470  0.00  0.00    +0.000 OA
ATOM     19  H   UNL     1      -9.945  -2.269 126.072  0.00  0.00    +0.000 HD
ENDBRANCH  17  18
ENDBRANCH   6  17
TORSDOF 8
ENDMDL
