MODEL 1
REMARK VINA RESULT:      -5.7      0.000      0.000
REMARK  Name = Miglustat
REMARK  9 active torsions:
REMARK  status: ('A' for Active; 'I' for Inactive)
REMARK    1  A    between atoms: C_1  and  C_2
REMARK    2  A    between atoms: C_2  and  C_3
REMARK    3  A    between atoms: C_3  and  C_4
REMARK    4  A    between atoms: C_4  and  N_5
REMARK    5  A    between atoms: C_7  and  O_8
REMARK    6  A    between atoms: C_9  and  O_10
REMARK    7  A    between atoms: C_11  and  O_12
REMARK    8  A    between atoms: C_13  and  C_14
REMARK    9  A    between atoms: C_14  and  O_15
REMARK                            x       y       z     vdW  Elec       q    Type
REMARK                         _______ _______ _______ _____ _____    ______ ____
ROOT
ATOM      1  N   UNL     1     -12.680   7.796 128.912  0.00  0.00    +0.000 NA
ATOM      2  C   UNL     1     -12.694   7.643 130.384  0.00  0.00    +0.000 C 
ATOM      3  C   UNL     1     -12.088   6.301 130.817  0.00  0.00    +0.000 C 
ATOM      4  C   UNL     1     -10.631   6.235 130.356  0.00  0.00    +0.000 C 
ATOM      5  C   UNL     1     -10.553   6.463 128.845  0.00  0.00    +0.000 C 
ATOM      6  C   UNL     1     -11.270   7.765 128.393  0.00  0.00    +0.000 C 
ENDROOT
BRANCH   3   7
ATOM      7  O   UNL     1     -12.205   6.142 132.234  0.00  0.00    +0.000 OA
ATOM      8  H   UNL     1     -11.536   6.698 132.665  0.00  0.00    +0.000 HD
ENDBRANCH   3   7
BRANCH   4   9
ATOM      9  O   UNL     1     -10.048   4.970 130.698  0.00  0.00    +0.000 OA
ATOM     10  H   UNL     1     -10.767   4.318 130.752  0.00  0.00    +0.000 HD
ENDBRANCH   4   9
BRANCH   5  11
ATOM     11  O   UNL     1      -9.173   6.478 128.439  0.00  0.00    +0.000 OA
ATOM     12  H   UNL     1      -8.932   7.393 128.211  0.00  0.00    +0.000 HD
ENDBRANCH   5  11
BRANCH   1  13
ATOM     13  C   UNL     1     -13.462   9.002 128.540  0.00  0.00    +0.000 C 
BRANCH  13  14
ATOM     14  C   UNL     1     -13.141  10.192 129.445  0.00  0.00    +0.000 C 
BRANCH  14  16
ATOM     15  C   UNL     1     -13.805  12.383 130.374  0.00  0.00    +0.000 C 
ATOM     16  C   UNL     1     -13.887  11.484 129.140  0.00  0.00    +0.000 C 
ENDBRANCH  14  16
ENDBRANCH  13  14
ENDBRANCH   1  13
BRANCH   6  17
ATOM     17  C   UNL     1     -11.083   7.801 126.847  0.00  0.00    +0.000 C 
BRANCH  17  18
ATOM     18  O   UNL     1     -11.206   6.486 126.305  0.00  0.00    +0.000 OA
ATOM     19  H   UNL     1     -10.362   6.284 125.860  0.00  0.00    +0.000 HD
ENDBRANCH  17  18
ENDBRANCH   6  17
TORSDOF 8
ENDMDL
MODEL 2
REMARK VINA RESULT:      -5.2      9.691     12.275
REMARK  Name = Miglustat
REMARK  9 active torsions:
REMARK  status: ('A' for Active; 'I' for Inactive)
REMARK    1  A    between atoms: C_1  and  C_2
REMARK    2  A    between atoms: C_2  and  C_3
REMARK    3  A    between atoms: C_3  and  C_4
REMARK    4  A    between atoms: C_4  and  N_5
REMARK    5  A    between atoms: C_7  and  O_8
REMARK    6  A    between atoms: C_9  and  O_10
REMARK    7  A    between atoms: C_11  and  O_12
REMARK    8  A    between atoms: C_13  and  C_14
REMARK    9  A    between atoms: C_14  and  O_15
REMARK                            x       y       z     vdW  Elec       q    Type
REMARK                         _______ _______ _______ _____ _____    ______ ____
ROOT
ATOM      1  N   UNL     1      -7.315  -1.243 124.481  0.00  0.00    +0.000 NA
ATOM      2  C   UNL     1      -7.249   0.065 125.170  0.00  0.00    +0.000 C 
ATOM      3  C   UNL     1      -7.569   1.222 124.214  0.00  0.00    +0.000 C 
ATOM      4  C   UNL     1      -8.990   1.051 123.674  0.00  0.00    +0.000 C 
ATOM      5  C   UNL     1      -9.134  -0.322 123.014  0.00  0.00    +0.000 C 
ATOM      6  C   UNL     1      -8.697  -1.487 123.944  0.00  0.00    +0.000 C 
ENDROOT
BRANCH   3   7
ATOM      7  O   UNL     1      -7.402   2.475 124.884  0.00  0.00    +0.000 OA
ATOM      8  H   UNL     1      -6.454   2.683 124.921  0.00  0.00    +0.000 HD
ENDBRANCH   3   7
BRANCH   4   9
ATOM      9  O   UNL     1      -9.304   2.089 122.735  0.00  0.00    +0.000 OA
ATOM     10  H   UNL     1     -10.125   1.836 122.279  0.00  0.00    +0.000 HD
ENDBRANCH   4   9
BRANCH   5  11
ATOM     11  O   UNL     1     -10.495  -0.500 122.583  0.00  0.00    +0.000 OA
ATOM     12  H   UNL     1     -10.947  -1.068 123.231  0.00  0.00    +0.000 HD
ENDBRANCH   5  11
BRANCH   1  13
ATOM     13  C   UNL     1      -6.795  -2.299 125.386  0.00  0.00    +0.000 C 
BRANCH  13  14
ATOM     14  C   UNL     1      -5.379  -2.732 125.002  0.00  0.00    +0.000 C 
BRANCH  14  16
ATOM     15  C   UNL     1      -4.323  -4.495 123.632  0.00  0.00    +0.000 C 
ATOM     16  C   UNL     1      -5.201  -3.245 123.579  0.00  0.00    +0.000 C 
ENDBRANCH  14  16
ENDBRANCH  13  14
ENDBRANCH   1  13
BRANCH   6  17
ATOM     17  C   UNL     1      -8.910  -2.772 123.091  0.00  0.00    +0.000 C 
BRANCH  17  18
ATOM     18  O   UNL     1     -10.158  -3.382 123.419  0.00  0.00    +0.000 OA
ATOM     19  H   UNL     1     -10.501  -2.918 124.205  0.00  0.00    +0.000 HD
ENDBRANCH  17  18
ENDBRANCH   6  17
TORSDOF 8
ENDMDL
MODEL 3
REMARK VINA RESULT:      -5.0      8.724     11.094
REMARK  Name = Miglustat
REMARK  9 active torsions:
REMARK  status: ('A' for Active; 'I' for Inactive)
REMARK    1  A    between atoms: C_1  and  C_2
REMARK    2  A    between atoms: C_2  and  C_3
REMARK    3  A    between atoms: C_3  and  C_4
REMARK    4  A    between atoms: C_4  and  N_5
REMARK    5  A    between atoms: C_7  and  O_8
REMARK    6  A    between atoms: C_9  and  O_10
REMARK    7  A    between atoms: C_11  and  O_12
REMARK    8  A    between atoms: C_13  and  C_14
REMARK    9  A    between atoms: C_14  and  O_15
REMARK                            x       y       z     vdW  Elec       q    Type
REMARK                         _______ _______ _______ _____ _____    ______ ____
ROOT
ATOM      1  N   UNL     1      -8.032  -1.279 125.509  0.00  0.00    +0.000 NA
ATOM      2  C   UNL     1      -8.340  -0.163 126.432  0.00  0.00    +0.000 C 
ATOM      3  C   UNL     1      -8.434   1.175 125.687  0.00  0.00    +0.000 C 
ATOM      4  C   UNL     1      -9.561   1.099 124.655  0.00  0.00    +0.000 C 
ATOM      5  C   UNL     1      -9.328  -0.089 123.717  0.00  0.00    +0.000 C 
ATOM      6  C   UNL     1      -9.116  -1.426 124.479  0.00  0.00    +0.000 C 
ENDROOT
BRANCH   3   7
ATOM      7  O   UNL     1      -8.635   2.244 126.616  0.00  0.00    +0.000 OA
ATOM      8  H   UNL     1      -7.807   2.746 126.695  0.00  0.00    +0.000 HD
ENDBRANCH   3   7
BRANCH   4   9
ATOM      9  O   UNL     1      -9.642   2.317 123.902  0.00  0.00    +0.000 OA
ATOM     10  H   UNL     1     -10.583   2.497 123.732  0.00  0.00    +0.000 HD
ENDBRANCH   4   9
BRANCH   5  11
ATOM     11  O   UNL     1     -10.435  -0.195 122.806  0.00  0.00    +0.000 OA
ATOM     12  H   UNL     1     -10.528  -1.129 122.546  0.00  0.00    +0.000 HD
ENDBRANCH   5  11
BRANCH   1  13
ATOM     13  C   UNL     1      -7.744  -2.501 126.301  0.00  0.00    +0.000 C 
BRANCH  13  14
ATOM     14  C   UNL     1      -9.026  -3.218 126.729  0.00  0.00    +0.000 C 
BRANCH  14  16
ATOM     15  C   UNL     1      -8.202  -3.140 129.056  0.00  0.00    +0.000 C 
ATOM     16  C   UNL     1      -8.951  -3.997 128.035  0.00  0.00    +0.000 C 
ENDBRANCH  14  16
ENDBRANCH  13  14
ENDBRANCH   1  13
BRANCH   6  17
ATOM     17  C   UNL     1      -8.892  -2.485 123.360  0.00  0.00    +0.000 C 
BRANCH  17  18
ATOM     18  O   UNL     1     -10.048  -3.311 123.223  0.00  0.00    +0.000 OA
ATOM     19  H   UNL     1      -9.900  -3.876 122.443  0.00  0.00    +0.000 HD
ENDBRANCH  17  18
ENDBRANCH   6  17
TORSDOF 8
ENDMDL
MODEL 4
REMARK VINA RESULT:      -4.9      7.974     10.698
REMARK  Name = Miglustat
REMARK  9 active torsions:
REMARK  status: ('A' for Active; 'I' for Inactive)
REMARK    1  A    between atoms: C_1  and  C_2
REMARK    2  A    between atoms: C_2  and  C_3
REMARK    3  A    between atoms: C_3  and  C_4
REMARK    4  A    between atoms: C_4  and  N_5
REMARK    5  A    between atoms: C_7  and  O_8
REMARK    6  A    between atoms: C_9  and  O_10
REMARK    7  A    between atoms: C_11  and  O_12
REMARK    8  A    between atoms: C_13  and  C_14
REMARK    9  A    between atoms: C_14  and  O_15
REMARK                            x       y       z     vdW  Elec       q    Type
REMARK                         _______ _______ _______ _____ _____    ______ ____
ROOT
ATOM      1  N   UNL     1      -8.370   0.205 123.943  0.00  0.00    +0.000 NA
ATOM      2  C   UNL     1      -7.918   1.341 123.109  0.00  0.00    +0.000 C 
ATOM      3  C   UNL     1      -8.662   2.634 123.466  0.00  0.00    +0.000 C 
ATOM      4  C   UNL     1      -8.381   2.989 124.928  0.00  0.00    +0.000 C 
ATOM      5  C   UNL     1      -8.764   1.814 125.831  0.00  0.00    +0.000 C 
ATOM      6  C   UNL     1      -8.101   0.478 125.396  0.00  0.00    +0.000 C 
ENDROOT
BRANCH   3   7
ATOM      7  O   UNL     1      -8.275   3.687 122.579  0.00  0.00    +0.000 OA
ATOM      8  H   UNL     1      -7.349   3.548 122.318  0.00  0.00    +0.000 HD
ENDBRANCH   3   7
BRANCH   4   9
ATOM      9  O   UNL     1      -9.105   4.166 125.311  0.00  0.00    +0.000 OA
ATOM     10  H   UNL     1      -8.459   4.818 125.635  0.00  0.00    +0.000 HD
ENDBRANCH   4   9
BRANCH   5  11
ATOM     11  O   UNL     1      -8.420   2.131 127.191  0.00  0.00    +0.000 OA
ATOM     12  H   UNL     1      -8.954   2.896 127.470  0.00  0.00    +0.000 HD
ENDBRANCH   5  11
BRANCH   1  13
ATOM     13  C   UNL     1      -7.780  -1.052 123.418  0.00  0.00    +0.000 C 
BRANCH  13  14
ATOM     14  C   UNL     1      -8.833  -1.944 122.759  0.00  0.00    +0.000 C 
BRANCH  14  16
ATOM     15  C   UNL     1      -8.090  -3.630 124.405  0.00  0.00    +0.000 C 
ATOM     16  C   UNL     1      -9.276  -3.159 123.563  0.00  0.00    +0.000 C 
ENDBRANCH  14  16
ENDBRANCH  13  14
ENDBRANCH   1  13
BRANCH   6  17
ATOM     17  C   UNL     1      -8.620  -0.571 126.423  0.00  0.00    +0.000 C 
BRANCH  17  18
ATOM     18  O   UNL     1      -7.684  -0.720 127.491  0.00  0.00    +0.000 OA
ATOM     19  H   UNL     1      -7.973  -1.491 128.013  0.00  0.00    +0.000 HD
ENDBRANCH  17  18
ENDBRANCH   6  17
TORSDOF 8
ENDMDL
MODEL 5
REMARK VINA RESULT:      -4.9      8.538     11.167
REMARK  Name = Miglustat
REMARK  9 active torsions:
REMARK  status: ('A' for Active; 'I' for Inactive)
REMARK    1  A    between atoms: C_1  and  C_2
REMARK    2  A    between atoms: C_2  and  C_3
REMARK    3  A    between atoms: C_3  and  C_4
REMARK    4  A    between atoms: C_4  and  N_5
REMARK    5  A    between atoms: C_7  and  O_8
REMARK    6  A    between atoms: C_9  and  O_10
REMARK    7  A    between atoms: C_11  and  O_12
REMARK    8  A    between atoms: C_13  and  C_14
REMARK    9  A    between atoms: C_14  and  O_15
REMARK                            x       y       z     vdW  Elec       q    Type
REMARK                         _______ _______ _______ _____ _____    ______ ____
ROOT
ATOM      1  N   UNL     1      -7.367   0.261 123.382  0.00  0.00    +0.000 NA
ATOM      2  C   UNL     1      -6.604   1.006 124.409  0.00  0.00    +0.000 C 
ATOM      3  C   UNL     1      -7.121   2.443 124.563  0.00  0.00    +0.000 C 
ATOM      4  C   UNL     1      -8.586   2.405 125.005  0.00  0.00    +0.000 C 
ATOM      5  C   UNL     1      -9.408   1.581 124.012  0.00  0.00    +0.000 C 
ATOM      6  C   UNL     1      -8.816   0.165 123.767  0.00  0.00    +0.000 C 
ENDROOT
BRANCH   3   7
ATOM      7  O   UNL     1      -6.304   3.164 125.489  0.00  0.00    +0.000 OA
ATOM      8  H   UNL     1      -6.471   2.821 126.382  0.00  0.00    +0.000 HD
ENDBRANCH   3   7
BRANCH   4   9
ATOM      9  O   UNL     1      -9.118   3.733 125.108  0.00  0.00    +0.000 OA
ATOM     10  H   UNL     1      -9.710   3.756 125.879  0.00  0.00    +0.000 HD
ENDBRANCH   4   9
BRANCH   5  11
ATOM     11  O   UNL     1     -10.764   1.488 124.483  0.00  0.00    +0.000 OA
ATOM     12  H   UNL     1     -11.353   1.828 123.786  0.00  0.00    +0.000 HD
ENDBRANCH   5  11
BRANCH   1  13
ATOM     13  C   UNL     1      -6.696  -1.038 123.123  0.00  0.00    +0.000 C 
BRANCH  13  14
ATOM     14  C   UNL     1      -6.434  -1.811 124.417  0.00  0.00    +0.000 C 
BRANCH  14  16
ATOM     15  C   UNL     1      -4.697  -3.277 123.448  0.00  0.00    +0.000 C 
ATOM     16  C   UNL     1      -5.998  -3.261 124.251  0.00  0.00    +0.000 C 
ENDBRANCH  14  16
ENDBRANCH  13  14
ENDBRANCH   1  13
BRANCH   6  17
ATOM     17  C   UNL     1      -9.782  -0.492 122.737  0.00  0.00    +0.000 C 
BRANCH  17  18
ATOM     18  O   UNL     1     -10.450   0.514 121.976  0.00  0.00    +0.000 OA
ATOM     19  H   UNL     1     -10.564   1.283 122.563  0.00  0.00    +0.000 HD
ENDBRANCH  17  18
ENDBRANCH   6  17
TORSDOF 8
ENDMDL
MODEL 6
REMARK VINA RESULT:      -4.8     11.377     12.657
REMARK  Name = Miglustat
REMARK  9 active torsions:
REMARK  status: ('A' for Active; 'I' for Inactive)
REMARK    1  A    between atoms: C_1  and  C_2
REMARK    2  A    between atoms: C_2  and  C_3
REMARK    3  A    between atoms: C_3  and  C_4
REMARK    4  A    between atoms: C_4  and  N_5
REMARK    5  A    between atoms: C_7  and  O_8
REMARK    6  A    between atoms: C_9  and  O_10
REMARK    7  A    between atoms: C_11  and  O_12
REMARK    8  A    between atoms: C_13  and  C_14
REMARK    9  A    between atoms: C_14  and  O_15
REMARK                            x       y       z     vdW  Elec       q    Type
REMARK                         _______ _______ _______ _____ _____    ______ ____
ROOT
ATOM      1  N   UNL     1      -6.927  -1.816 125.835  0.00  0.00    +0.000 NA
ATOM      2  C   UNL     1      -5.636  -1.846 126.560  0.00  0.00    +0.000 C 
ATOM      3  C   UNL     1      -5.818  -1.526 128.049  0.00  0.00    +0.000 C 
ATOM      4  C   UNL     1      -6.731  -2.579 128.681  0.00  0.00    +0.000 C 
ATOM      5  C   UNL     1      -8.058  -2.641 127.920  0.00  0.00    +0.000 C 
ATOM      6  C   UNL     1      -7.867  -2.847 126.392  0.00  0.00    +0.000 C 
ENDROOT
BRANCH   3   7
ATOM      7  O   UNL     1      -4.546  -1.466 128.700  0.00  0.00    +0.000 OA
ATOM      8  H   UNL     1      -4.170  -0.581 128.565  0.00  0.00    +0.000 HD
ENDBRANCH   3   7
BRANCH   4   9
ATOM      9  O   UNL     1      -6.966  -2.280 130.064  0.00  0.00    +0.000 OA
ATOM     10  H   UNL     1      -6.253  -1.692 130.365  0.00  0.00    +0.000 HD
ENDBRANCH   4   9
BRANCH   5  11
ATOM     11  O   UNL     1      -8.873  -3.688 128.475  0.00  0.00    +0.000 OA
ATOM     12  H   UNL     1      -8.398  -4.075 129.232  0.00  0.00    +0.000 HD
ENDBRANCH   5  11
BRANCH   1  13
ATOM     13  C   UNL     1      -6.670  -1.920 124.376  0.00  0.00    +0.000 C 
BRANCH  13  14
ATOM     14  C   UNL     1      -6.126  -3.296 123.989  0.00  0.00    +0.000 C 
BRANCH  14  16
ATOM     15  C   UNL     1      -4.141  -4.699 123.549  0.00  0.00    +0.000 C 
ATOM     16  C   UNL     1      -4.748  -3.311 123.342  0.00  0.00    +0.000 C 
ENDBRANCH  14  16
ENDBRANCH  13  14
ENDBRANCH   1  13
BRANCH   6  17
ATOM     17  C   UNL     1      -9.313  -2.873 125.816  0.00  0.00    +0.000 C 
BRANCH  17  18
ATOM     18  O   UNL     1      -9.792  -1.542 125.623  0.00  0.00    +0.000 OA
ATOM     19  H   UNL     1     -10.276  -1.296 126.433  0.00  0.00    +0.000 HD
ENDBRANCH  17  18
ENDBRANCH   6  17
TORSDOF 8
ENDMDL
MODEL 7
REMARK VINA RESULT:      -4.7      8.148      9.321
REMARK  Name = Miglustat
REMARK  9 active torsions:
REMARK  status: ('A' for Active; 'I' for Inactive)
REMARK    1  A    between atoms: C_1  and  C_2
REMARK    2  A    between atoms: C_2  and  C_3
REMARK    3  A    between atoms: C_3  and  C_4
REMARK    4  A    between atoms: C_4  and  N_5
REMARK    5  A    between atoms: C_7  and  O_8
REMARK    6  A    between atoms: C_9  and  O_10
REMARK    7  A    between atoms: C_11  and  O_12
REMARK    8  A    between atoms: C_13  and  C_14
REMARK    9  A    between atoms: C_14  and  O_15
REMARK                            x       y       z     vdW  Elec       q    Type
REMARK                         _______ _______ _______ _____ _____    ______ ____
ROOT
ATOM      1  N   UNL     1      -5.919   2.741 126.031  0.00  0.00    +0.000 NA
ATOM      2  C   UNL     1      -6.571   1.423 126.203  0.00  0.00    +0.000 C 
ATOM      3  C   UNL     1      -8.100   1.536 126.132  0.00  0.00    +0.000 C 
ATOM      4  C   UNL     1      -8.501   2.079 124.759  0.00  0.00    +0.000 C 
ATOM      5  C   UNL     1      -7.793   3.411 124.499  0.00  0.00    +0.000 C 
ATOM      6  C   UNL     1      -6.253   3.322 124.686  0.00  0.00    +0.000 C 
ENDROOT
BRANCH   3   7
ATOM      7  O   UNL     1      -8.701   0.266 126.399  0.00  0.00    +0.000 OA
ATOM      8  H   UNL     1      -9.207   0.330 127.225  0.00  0.00    +0.000 HD
ENDBRANCH   3   7
BRANCH   4   9
ATOM      9  O   UNL     1      -9.923   2.248 124.676  0.00  0.00    +0.000 OA
ATOM     10  H   UNL     1     -10.103   2.895 123.973  0.00  0.00    +0.000 HD
ENDBRANCH   4   9
BRANCH   5  11
ATOM     11  O   UNL     1      -8.117   3.867 123.174  0.00  0.00    +0.000 OA
ATOM     12  H   UNL     1      -7.692   3.271 122.533  0.00  0.00    +0.000 HD
ENDBRANCH   5  11
BRANCH   1  13
ATOM     13  C   UNL     1      -4.469   2.609 126.318  0.00  0.00    +0.000 C 
BRANCH  13  14
ATOM     14  C   UNL     1      -4.044   3.467 127.511  0.00  0.00    +0.000 C 
BRANCH  14  16
ATOM     15  C   UNL     1      -1.842   3.066 126.463  0.00  0.00    +0.000 C 
ATOM     16  C   UNL     1      -2.551   3.743 127.636  0.00  0.00    +0.000 C 
ENDBRANCH  14  16
ENDBRANCH  13  14
ENDBRANCH   1  13
BRANCH   6  17
ATOM     17  C   UNL     1      -5.738   4.761 124.388  0.00  0.00    +0.000 C 
BRANCH  17  18
ATOM     18  O   UNL     1      -6.618   5.729 124.960  0.00  0.00    +0.000 OA
ATOM     19  H   UNL     1      -7.293   5.236 125.460  0.00  0.00    +0.000 HD
ENDBRANCH  17  18
ENDBRANCH   6  17
TORSDOF 8
ENDMDL
MODEL 8
REMARK VINA RESULT:      -4.7      8.830     11.295
REMARK  Name = Miglustat
REMARK  9 active torsions:
REMARK  status: ('A' for Active; 'I' for Inactive)
REMARK    1  A    between atoms: C_1  and  C_2
REMARK    2  A    between atoms: C_2  and  C_3
REMARK    3  A    between atoms: C_3  and  C_4
REMARK    4  A    between atoms: C_4  and  N_5
REMARK    5  A    between atoms: C_7  and  O_8
REMARK    6  A    between atoms: C_9  and  O_10
REMARK    7  A    between atoms: C_11  and  O_12
REMARK    8  A    between atoms: C_13  and  C_14
REMARK    9  A    between atoms: C_14  and  O_15
REMARK                            x       y       z     vdW  Elec       q    Type
REMARK                         _______ _______ _______ _____ _____    ______ ____
ROOT
ATOM      1  N   UNL     1      -7.820  -0.929 124.481  0.00  0.00    +0.000 NA
ATOM      2  C   UNL     1      -7.583  -0.996 125.941  0.00  0.00    +0.000 C 
ATOM      3  C   UNL     1      -7.423   0.403 126.550  0.00  0.00    +0.000 C 
ATOM      4  C   UNL     1      -8.708   1.201 126.323  0.00  0.00    +0.000 C 
ATOM      5  C   UNL     1      -9.041   1.238 124.829  0.00  0.00    +0.000 C 
ATOM      6  C   UNL     1      -9.086  -0.176 124.187  0.00  0.00    +0.000 C 
ENDROOT
BRANCH   3   7
ATOM      7  O   UNL     1      -7.099   0.302 127.940  0.00  0.00    +0.000 OA
ATOM      8  H   UNL     1      -7.473   1.069 128.402  0.00  0.00    +0.000 HD
ENDBRANCH   3   7
BRANCH   4   9
ATOM      9  O   UNL     1      -8.575   2.534 126.834  0.00  0.00    +0.000 OA
ATOM     10  H   UNL     1      -8.070   3.052 126.183  0.00  0.00    +0.000 HD
ENDBRANCH   4   9
BRANCH   5  11
ATOM     11  O   UNL     1     -10.292   1.921 124.640  0.00  0.00    +0.000 OA
ATOM     12  H   UNL     1     -10.680   2.095 125.515  0.00  0.00    +0.000 HD
ENDBRANCH   5  11
BRANCH   1  13
ATOM     13  C   UNL     1      -7.755  -2.300 123.913  0.00  0.00    +0.000 C 
BRANCH  13  14
ATOM     14  C   UNL     1      -6.523  -3.062 124.405  0.00  0.00    +0.000 C 
BRANCH  14  16
ATOM     15  C   UNL     1      -4.501  -4.287 123.688  0.00  0.00    +0.000 C 
ATOM     16  C   UNL     1      -5.293  -2.991 123.511  0.00  0.00    +0.000 C 
ENDBRANCH  14  16
ENDBRANCH  13  14
ENDBRANCH   1  13
BRANCH   6  17
ATOM     17  C   UNL     1      -9.425   0.083 122.689  0.00  0.00    +0.000 C 
BRANCH  17  18
ATOM     18  O   UNL     1     -10.837   0.201 122.516  0.00  0.00    +0.000 OA
ATOM     19  H   UNL     1     -11.002   0.234 121.556  0.00  0.00    +0.000 HD
ENDBRANCH  17  18
ENDBRANCH   6  17
TORSDOF 8
ENDMDL
MODEL 9
REMARK VINA RESULT:      -4.6      8.574     11.360
REMARK  Name = Miglustat
REMARK  9 active torsions:
REMARK  status: ('A' for Active; 'I' for Inactive)
REMARK    1  A    between atoms: C_1  and  C_2
REMARK    2  A    between atoms: C_2  and  C_3
REMARK    3  A    between atoms: C_3  and  C_4
REMARK    4  A    between atoms: C_4  and  N_5
REMARK    5  A    between atoms: C_7  and  O_8
REMARK    6  A    between atoms: C_9  and  O_10
REMARK    7  A    between atoms: C_11  and  O_12
REMARK    8  A    between atoms: C_13  and  C_14
REMARK    9  A    between atoms: C_14  and  O_15
REMARK                            x       y       z     vdW  Elec       q    Type
REMARK                         _______ _______ _______ _____ _____    ______ ____
ROOT
ATOM      1  N   UNL     1      -7.389  -0.196 124.909  0.00  0.00    +0.000 NA
ATOM      2  C   UNL     1      -8.046  -0.630 123.655  0.00  0.00    +0.000 C 
ATOM      3  C   UNL     1      -9.551  -0.337 123.676  0.00  0.00    +0.000 C 
ATOM      4  C   UNL     1      -9.768   1.171 123.817  0.00  0.00    +0.000 C 
ATOM      5  C   UNL     1      -9.045   1.686 125.063  0.00  0.00    +0.000 C 
ATOM      6  C   UNL     1      -7.544   1.287 125.098  0.00  0.00    +0.000 C 
ENDROOT
BRANCH   3   7
ATOM      7  O   UNL     1     -10.171  -0.855 122.495  0.00  0.00    +0.000 OA
ATOM      8  H   UNL     1     -10.765  -0.178 122.134  0.00  0.00    +0.000 HD
ENDBRANCH   3   7
BRANCH   4   9
ATOM      9  O   UNL     1     -11.168   1.477 123.893  0.00  0.00    +0.000 OA
ATOM     10  H   UNL     1     -11.470   1.703 122.996  0.00  0.00    +0.000 HD
ENDBRANCH   4   9
BRANCH   5  11
ATOM     11  O   UNL     1      -9.191   3.115 125.138  0.00  0.00    +0.000 OA
ATOM     12  H   UNL     1      -9.925   3.378 124.555  0.00  0.00    +0.000 HD
ENDBRANCH   5  11
BRANCH   1  13
ATOM     13  C   UNL     1      -5.990  -0.691 124.924  0.00  0.00    +0.000 C 
BRANCH  13  14
ATOM     14  C   UNL     1      -5.788  -1.859 123.958  0.00  0.00    +0.000 C 
BRANCH  14  16
ATOM     15  C   UNL     1      -4.499  -3.922 123.527  0.00  0.00    +0.000 C 
ATOM     16  C   UNL     1      -5.309  -3.164 124.579  0.00  0.00    +0.000 C 
ENDBRANCH  14  16
ENDBRANCH  13  14
ENDBRANCH   1  13
BRANCH   6  17
ATOM     17  C   UNL     1      -7.007   1.892 126.429  0.00  0.00    +0.000 C 
BRANCH  17  18
ATOM     18  O   UNL     1      -6.439   3.179 126.192  0.00  0.00    +0.000 OA
ATOM     19  H   UNL     1      -5.631   3.235 126.734  0.00  0.00    +0.000 HD
ENDBRANCH  17  18
ENDBRANCH   6  17
TORSDOF 8
ENDMDL
