MODEL 1
REMARK VINA RESULT:      -6.0      0.000      0.000
REMARK  Name = Milnacipran
REMARK  8 active torsions:
REMARK  status: ('A' for Active; 'I' for Inactive)
REMARK    1  A    between atoms: C_1  and  C_2
REMARK    2  A    between atoms: C_2  and  N_3
REMARK    3  A    between atoms: N_3  and  C_4
REMARK    4  A    between atoms: C_4  and  C_5
REMARK    5  A    between atoms: C_6  and  C_8
REMARK    6  A    between atoms: C_8  and  C_13
REMARK    7  A    between atoms: C_10  and  C_11
REMARK    8  A    between atoms: C_11  and  N_12
REMARK                            x       y       z     vdW  Elec       q    Type
REMARK                         _______ _______ _______ _____ _____    ______ ____
ROOT
ATOM      1  C   UNL     1      -7.394  -0.892 125.839  0.00  0.00    +0.000 C 
ATOM      2  C   UNL     1      -6.888   0.533 125.564  0.00  0.00    +0.000 C 
ATOM      3  C   UNL     1      -8.240   0.156 125.076  0.00  0.00    +0.000 C 
ENDROOT
BRANCH   1   4
ATOM      4  C   UNL     1      -8.061  -1.490 127.088  0.00  0.00    +0.000 A 
ATOM      5  C   UNL     1      -7.731  -1.093 128.384  0.00  0.00    +0.000 A 
ATOM      6  C   UNL     1      -7.848  -1.998 129.449  0.00  0.00    +0.000 A 
ATOM      7  C   UNL     1      -8.323  -3.296 129.242  0.00  0.00    +0.000 A 
ATOM      8  C   UNL     1      -8.742  -3.674 127.981  0.00  0.00    +0.000 A 
ATOM      9  C   UNL     1      -8.708  -2.738 126.954  0.00  0.00    +0.000 A 
ENDBRANCH   1   4
BRANCH   1  11
ATOM     10  N   UNL     1      -6.578  -2.629 124.137  0.00  0.00    +0.000 N 
ATOM     11  C   UNL     1      -6.345  -1.886 125.322  0.00  0.00    +0.000 C 
ATOM     12  O   UNL     1      -5.375  -2.095 126.037  0.00  0.00    +0.000 OA
BRANCH  10  14
ATOM     13  C   UNL     1      -4.337  -3.589 123.307  0.00  0.00    +0.000 C 
ATOM     14  C   UNL     1      -5.677  -3.785 123.980  0.00  0.00    +0.000 C 
ENDBRANCH  10  14
BRANCH  10  15
ATOM     15  C   UNL     1      -7.749  -2.350 123.309  0.00  0.00    +0.000 C 
ATOM     16  C   UNL     1      -9.031  -3.137 123.401  0.00  0.00    +0.000 C 
ENDBRANCH  10  15
ENDBRANCH   1  11
BRANCH   3  17
ATOM     17  C   UNL     1      -9.405   0.887 125.696  0.00  0.00    +0.000 C 
BRANCH  17  18
ATOM     18  N   UNL     1      -9.747   2.027 124.854  0.00  0.00    +0.000 NA
ATOM     19  H   UNL     1      -9.906   1.702 123.902  0.00  0.00    +0.000 HD
ATOM     20  H   UNL     1      -8.938   2.646 124.799  0.00  0.00    +0.000 HD
ENDBRANCH  17  18
ENDBRANCH   3  17
TORSDOF 6
ENDMDL
MODEL 2
REMARK VINA RESULT:      -5.9      1.712      4.378
REMARK  Name = Milnacipran
REMARK  8 active torsions:
REMARK  status: ('A' for Active; 'I' for Inactive)
REMARK    1  A    between atoms: C_1  and  C_2
REMARK    2  A    between atoms: C_2  and  N_3
REMARK    3  A    between atoms: N_3  and  C_4
REMARK    4  A    between atoms: C_4  and  C_5
REMARK    5  A    between atoms: C_6  and  C_8
REMARK    6  A    between atoms: C_8  and  C_13
REMARK    7  A    between atoms: C_10  and  C_11
REMARK    8  A    between atoms: C_11  and  N_12
REMARK                            x       y       z     vdW  Elec       q    Type
REMARK                         _______ _______ _______ _____ _____    ______ ____
ROOT
ATOM      1  C   UNL     1      -7.831  -1.980 125.042  0.00  0.00    +0.000 C 
ATOM      2  C   UNL     1      -8.185  -2.418 123.612  0.00  0.00    +0.000 C 
ATOM      3  C   UNL     1      -6.751  -2.352 123.997  0.00  0.00    +0.000 C 
ENDROOT
BRANCH   1   4
ATOM      4  C   UNL     1      -7.783  -2.786 126.349  0.00  0.00    +0.000 A 
ATOM      5  C   UNL     1      -8.753  -3.730 126.691  0.00  0.00    +0.000 A 
ATOM      6  C   UNL     1      -9.050  -3.978 128.039  0.00  0.00    +0.000 A 
ATOM      7  C   UNL     1      -8.365  -3.316 129.061  0.00  0.00    +0.000 A 
ATOM      8  C   UNL     1      -7.339  -2.447 128.741  0.00  0.00    +0.000 A 
ATOM      9  C   UNL     1      -6.993  -2.282 127.405  0.00  0.00    +0.000 A 
ENDBRANCH   1   4
BRANCH   1  11
ATOM     10  N   UNL     1      -7.756   0.550 125.462  0.00  0.00    +0.000 N 
ATOM     11  C   UNL     1      -8.520  -0.636 125.321  0.00  0.00    +0.000 C 
ATOM     12  O   UNL     1      -9.723  -0.661 125.537  0.00  0.00    +0.000 OA
BRANCH  10  14
ATOM     13  C   UNL     1      -8.529   1.768 127.594  0.00  0.00    +0.000 C 
ATOM     14  C   UNL     1      -8.500   1.658 126.087  0.00  0.00    +0.000 C 
ENDBRANCH  10  14
BRANCH  10  15
ATOM     15  C   UNL     1      -6.319   0.539 125.194  0.00  0.00    +0.000 C 
ATOM     16  C   UNL     1      -5.278   0.723 126.269  0.00  0.00    +0.000 C 
ENDBRANCH  10  15
ENDBRANCH   1  11
BRANCH   3  17
ATOM     17  C   UNL     1      -6.001  -3.661 124.015  0.00  0.00    +0.000 C 
BRANCH  17  18
ATOM     18  N   UNL     1      -4.621  -3.418 123.611  0.00  0.00    +0.000 NA
ATOM     19  H   UNL     1      -4.211  -2.720 124.228  0.00  0.00    +0.000 HD
ATOM     20  H   UNL     1      -4.624  -2.994 122.683  0.00  0.00    +0.000 HD
ENDBRANCH  17  18
ENDBRANCH   3  17
TORSDOF 6
ENDMDL
MODEL 3
REMARK VINA RESULT:      -5.9      1.850      5.027
REMARK  Name = Milnacipran
REMARK  8 active torsions:
REMARK  status: ('A' for Active; 'I' for Inactive)
REMARK    1  A    between atoms: C_1  and  C_2
REMARK    2  A    between atoms: C_2  and  N_3
REMARK    3  A    between atoms: N_3  and  C_4
REMARK    4  A    between atoms: C_4  and  C_5
REMARK    5  A    between atoms: C_6  and  C_8
REMARK    6  A    between atoms: C_8  and  C_13
REMARK    7  A    between atoms: C_10  and  C_11
REMARK    8  A    between atoms: C_11  and  N_12
REMARK                            x       y       z     vdW  Elec       q    Type
REMARK                         _______ _______ _______ _____ _____    ______ ____
ROOT
ATOM      1  C   UNL     1      -7.945  -1.834 126.072  0.00  0.00    +0.000 C 
ATOM      2  C   UNL     1      -8.464  -3.013 126.912  0.00  0.00    +0.000 C 
ATOM      3  C   UNL     1      -9.191  -2.659 125.665  0.00  0.00    +0.000 C 
ENDROOT
BRANCH   1   4
ATOM      4  C   UNL     1      -6.826  -1.775 125.022  0.00  0.00    +0.000 A 
ATOM      5  C   UNL     1      -7.001  -1.199 123.763  0.00  0.00    +0.000 A 
ATOM      6  C   UNL     1      -6.266  -1.670 122.665  0.00  0.00    +0.000 A 
ATOM      7  C   UNL     1      -5.327  -2.695 122.813  0.00  0.00    +0.000 A 
ATOM      8  C   UNL     1      -5.075  -3.210 124.070  0.00  0.00    +0.000 A 
ATOM      9  C   UNL     1      -5.743  -2.670 125.162  0.00  0.00    +0.000 A 
ENDBRANCH   1   4
BRANCH   1  11
ATOM     10  N   UNL     1      -8.578   0.566 126.722  0.00  0.00    +0.000 N 
ATOM     11  C   UNL     1      -7.825  -0.606 126.986  0.00  0.00    +0.000 C 
ATOM     12  O   UNL     1      -6.971  -0.644 127.860  0.00  0.00    +0.000 OA
BRANCH  10  14
ATOM     13  C   UNL     1      -8.716   2.131 128.761  0.00  0.00    +0.000 C 
ATOM     14  C   UNL     1      -8.086   1.755 127.439  0.00  0.00    +0.000 C 
ENDBRANCH  10  14
BRANCH  10  15
ATOM     15  C   UNL     1      -9.591   0.570 125.668  0.00  0.00    +0.000 C 
ATOM     16  C   UNL     1      -9.657   1.624 124.592  0.00  0.00    +0.000 C 
ENDBRANCH  10  15
ENDBRANCH   1  11
BRANCH   3  17
ATOM     17  C   UNL     1      -9.173  -3.690 124.563  0.00  0.00    +0.000 C 
BRANCH  17  18
ATOM     18  N   UNL     1     -10.044  -3.239 123.484  0.00  0.00    +0.000 NA
ATOM     19  H   UNL     1     -10.967  -3.036 123.863  0.00  0.00    +0.000 HD
ATOM     20  H   UNL     1     -10.181  -4.011 122.831  0.00  0.00    +0.000 HD
ENDBRANCH  17  18
ENDBRANCH   3  17
TORSDOF 6
ENDMDL
MODEL 4
REMARK VINA RESULT:      -5.7      2.127      4.829
REMARK  Name = Milnacipran
REMARK  8 active torsions:
REMARK  status: ('A' for Active; 'I' for Inactive)
REMARK    1  A    between atoms: C_1  and  C_2
REMARK    2  A    between atoms: C_2  and  N_3
REMARK    3  A    between atoms: N_3  and  C_4
REMARK    4  A    between atoms: C_4  and  C_5
REMARK    5  A    between atoms: C_6  and  C_8
REMARK    6  A    between atoms: C_8  and  C_13
REMARK    7  A    between atoms: C_10  and  C_11
REMARK    8  A    between atoms: C_11  and  N_12
REMARK                            x       y       z     vdW  Elec       q    Type
REMARK                         _______ _______ _______ _____ _____    ______ ____
ROOT
ATOM      1  C   UNL     1      -7.679  -0.529 125.258  0.00  0.00    +0.000 C 
ATOM      2  C   UNL     1      -8.325  -0.979 126.579  0.00  0.00    +0.000 C 
ATOM      3  C   UNL     1      -8.974  -1.377 125.302  0.00  0.00    +0.000 C 
ENDROOT
BRANCH   1   4
ATOM      4  C   UNL     1      -6.521  -1.140 124.455  0.00  0.00    +0.000 A 
ATOM      5  C   UNL     1      -6.541  -1.248 123.064  0.00  0.00    +0.000 A 
ATOM      6  C   UNL     1      -5.849  -2.290 122.428  0.00  0.00    +0.000 A 
ATOM      7  C   UNL     1      -5.106  -3.216 123.166  0.00  0.00    +0.000 A 
ATOM      8  C   UNL     1      -5.001  -3.068 124.535  0.00  0.00    +0.000 A 
ATOM      9  C   UNL     1      -5.614  -1.977 125.141  0.00  0.00    +0.000 A 
ENDBRANCH   1   4
BRANCH   1  11
ATOM     10  N   UNL     1      -8.076   1.826 124.320  0.00  0.00    +0.000 N 
ATOM     11  C   UNL     1      -7.490   0.994 125.308  0.00  0.00    +0.000 C 
ATOM     12  O   UNL     1      -6.720   1.433 126.150  0.00  0.00    +0.000 OA
BRANCH  10  14
ATOM     13  C   UNL     1      -6.453   3.515 123.251  0.00  0.00    +0.000 C 
ATOM     14  C   UNL     1      -7.507   3.185 124.284  0.00  0.00    +0.000 C 
ENDBRANCH  10  14
BRANCH  10  15
ATOM     15  C   UNL     1      -8.992   1.264 123.330  0.00  0.00    +0.000 C 
ATOM     16  C   UNL     1     -10.492   1.327 123.466  0.00  0.00    +0.000 C 
ENDBRANCH  10  15
ENDBRANCH   1  11
BRANCH   3  17
ATOM     17  C   UNL     1      -9.003  -2.855 124.997  0.00  0.00    +0.000 C 
BRANCH  17  18
ATOM     18  N   UNL     1      -9.840  -3.076 123.823  0.00  0.00    +0.000 NA
ATOM     19  H   UNL     1      -9.304  -3.584 123.122  0.00  0.00    +0.000 HD
ATOM     20  H   UNL     1     -10.053  -2.172 123.400  0.00  0.00    +0.000 HD
ENDBRANCH  17  18
ENDBRANCH   3  17
TORSDOF 6
ENDMDL
MODEL 5
REMARK VINA RESULT:      -5.6      1.949      4.504
REMARK  Name = Milnacipran
REMARK  8 active torsions:
REMARK  status: ('A' for Active; 'I' for Inactive)
REMARK    1  A    between atoms: C_1  and  C_2
REMARK    2  A    between atoms: C_2  and  N_3
REMARK    3  A    between atoms: N_3  and  C_4
REMARK    4  A    between atoms: C_4  and  C_5
REMARK    5  A    between atoms: C_6  and  C_8
REMARK    6  A    between atoms: C_8  and  C_13
REMARK    7  A    between atoms: C_10  and  C_11
REMARK    8  A    between atoms: C_11  and  N_12
REMARK                            x       y       z     vdW  Elec       q    Type
REMARK                         _______ _______ _______ _____ _____    ______ ____
ROOT
ATOM      1  C   UNL     1      -5.947  -2.232 124.391  0.00  0.00    +0.000 C 
ATOM      2  C   UNL     1      -5.394  -2.285 122.957  0.00  0.00    +0.000 C 
ATOM      3  C   UNL     1      -4.774  -3.158 123.987  0.00  0.00    +0.000 C 
ENDROOT
BRANCH   1   4
ATOM      4  C   UNL     1      -7.156  -2.942 125.020  0.00  0.00    +0.000 A 
ATOM      5  C   UNL     1      -8.193  -3.485 124.261  0.00  0.00    +0.000 A 
ATOM      6  C   UNL     1      -9.491  -3.552 124.788  0.00  0.00    +0.000 A 
ATOM      7  C   UNL     1      -9.766  -3.109 126.085  0.00  0.00    +0.000 A 
ATOM      8  C   UNL     1      -8.732  -2.655 126.881  0.00  0.00    +0.000 A 
ATOM      9  C   UNL     1      -7.436  -2.682 126.379  0.00  0.00    +0.000 A 
ENDBRANCH   1   4
BRANCH   1  11
ATOM     10  N   UNL     1      -6.820   0.178 124.277  0.00  0.00    +0.000 N 
ATOM     11  C   UNL     1      -5.940  -0.769 124.858  0.00  0.00    +0.000 C 
ATOM     12  O   UNL     1      -5.066  -0.442 125.648  0.00  0.00    +0.000 OA
BRANCH  10  14
ATOM     13  C   UNL     1      -6.413   2.566 123.407  0.00  0.00    +0.000 C 
ATOM     14  C   UNL     1      -6.443   1.576 124.549  0.00  0.00    +0.000 C 
ENDBRANCH  10  14
BRANCH  10  15
ATOM     15  C   UNL     1      -7.852  -0.254 123.335  0.00  0.00    +0.000 C 
ATOM     16  C   UNL     1      -9.315   0.060 123.515  0.00  0.00    +0.000 C 
ENDBRANCH  10  15
ENDBRANCH   1  11
BRANCH   3  17
ATOM     17  C   UNL     1      -4.928  -4.646 123.786  0.00  0.00    +0.000 C 
BRANCH  17  18
ATOM     18  N   UNL     1      -3.679  -5.180 123.254  0.00  0.00    +0.000 NA
ATOM     19  H   UNL     1      -3.578  -6.149 123.552  0.00  0.00    +0.000 HD
ATOM     20  H   UNL     1      -2.901  -4.679 123.685  0.00  0.00    +0.000 HD
ENDBRANCH  17  18
ENDBRANCH   3  17
TORSDOF 6
ENDMDL
MODEL 6
REMARK VINA RESULT:      -5.6      1.823      4.627
REMARK  Name = Milnacipran
REMARK  8 active torsions:
REMARK  status: ('A' for Active; 'I' for Inactive)
REMARK    1  A    between atoms: C_1  and  C_2
REMARK    2  A    between atoms: C_2  and  N_3
REMARK    3  A    between atoms: N_3  and  C_4
REMARK    4  A    between atoms: C_4  and  C_5
REMARK    5  A    between atoms: C_6  and  C_8
REMARK    6  A    between atoms: C_8  and  C_13
REMARK    7  A    between atoms: C_10  and  C_11
REMARK    8  A    between atoms: C_11  and  N_12
REMARK                            x       y       z     vdW  Elec       q    Type
REMARK                         _______ _______ _______ _____ _____    ______ ____
ROOT
ATOM      1  C   UNL     1      -8.373  -0.289 125.677  0.00  0.00    +0.000 C 
ATOM      2  C   UNL     1      -9.698   0.486 125.579  0.00  0.00    +0.000 C 
ATOM      3  C   UNL     1      -8.480   1.218 126.014  0.00  0.00    +0.000 C 
ENDROOT
BRANCH   1   4
ATOM      4  C   UNL     1      -7.345  -0.648 124.593  0.00  0.00    +0.000 A 
ATOM      5  C   UNL     1      -7.706  -0.955 123.281  0.00  0.00    +0.000 A 
ATOM      6  C   UNL     1      -6.918  -1.832 122.521  0.00  0.00    +0.000 A 
ATOM      7  C   UNL     1      -5.748  -2.388 123.045  0.00  0.00    +0.000 A 
ATOM      8  C   UNL     1      -5.329  -2.021 124.310  0.00  0.00    +0.000 A 
ATOM      9  C   UNL     1      -6.068  -1.079 125.015  0.00  0.00    +0.000 A 
ENDBRANCH   1   4
BRANCH   1  11
ATOM     10  N   UNL     1      -7.940  -1.642 127.813  0.00  0.00    +0.000 N 
ATOM     11  C   UNL     1      -8.600  -1.522 126.564  0.00  0.00    +0.000 C 
ATOM     12  O   UNL     1      -9.264  -2.433 126.092  0.00  0.00    +0.000 OA
BRANCH  10  14
ATOM     13  C   UNL     1      -7.850  -3.210 129.853  0.00  0.00    +0.000 C 
ATOM     14  C   UNL     1      -7.959  -3.011 128.359  0.00  0.00    +0.000 C 
ENDBRANCH  10  14
BRANCH  10  15
ATOM     15  C   UNL     1      -7.155  -0.529 128.344  0.00  0.00    +0.000 C 
ATOM     16  C   UNL     1      -7.673   0.415 129.399  0.00  0.00    +0.000 C 
ENDBRANCH  10  15
ENDBRANCH   1  11
BRANCH   3  17
ATOM     17  C   UNL     1      -7.986   2.307 125.093  0.00  0.00    +0.000 C 
BRANCH  17  18
ATOM     18  N   UNL     1      -9.070   3.255 124.864  0.00  0.00    +0.000 NA
ATOM     19  H   UNL     1      -8.758   3.965 124.204  0.00  0.00    +0.000 HD
ATOM     20  H   UNL     1      -9.256   3.755 125.734  0.00  0.00    +0.000 HD
ENDBRANCH  17  18
ENDBRANCH   3  17
TORSDOF 6
ENDMDL
MODEL 7
REMARK VINA RESULT:      -5.5      1.969      4.556
REMARK  Name = Milnacipran
REMARK  8 active torsions:
REMARK  status: ('A' for Active; 'I' for Inactive)
REMARK    1  A    between atoms: C_1  and  C_2
REMARK    2  A    between atoms: C_2  and  N_3
REMARK    3  A    between atoms: N_3  and  C_4
REMARK    4  A    between atoms: C_4  and  C_5
REMARK    5  A    between atoms: C_6  and  C_8
REMARK    6  A    between atoms: C_8  and  C_13
REMARK    7  A    between atoms: C_10  and  C_11
REMARK    8  A    between atoms: C_11  and  N_12
REMARK                            x       y       z     vdW  Elec       q    Type
REMARK                         _______ _______ _______ _____ _____    ______ ____
ROOT
ATOM      1  C   UNL     1      -7.187  -1.818 125.134  0.00  0.00    +0.000 C 
ATOM      2  C   UNL     1      -6.462  -2.695 124.100  0.00  0.00    +0.000 C 
ATOM      3  C   UNL     1      -7.914  -2.920 124.325  0.00  0.00    +0.000 C 
ENDROOT
BRANCH   1   4
ATOM      4  C   UNL     1      -7.783  -0.408 125.003  0.00  0.00    +0.000 A 
ATOM      5  C   UNL     1      -9.027  -0.061 125.533  0.00  0.00    +0.000 A 
ATOM      6  C   UNL     1      -9.799   0.938 124.921  0.00  0.00    +0.000 A 
ATOM      7  C   UNL     1      -9.331   1.623 123.797  0.00  0.00    +0.000 A 
ATOM      8  C   UNL     1      -8.063   1.355 123.316  0.00  0.00    +0.000 A 
ATOM      9  C   UNL     1      -7.273   0.430 123.988  0.00  0.00    +0.000 A 
ENDBRANCH   1   4
BRANCH   1  11
ATOM     10  N   UNL     1      -7.075  -2.339 127.643  0.00  0.00    +0.000 N 
ATOM     11  C   UNL     1      -6.422  -1.905 126.462  0.00  0.00    +0.000 C 
ATOM     12  O   UNL     1      -5.281  -1.467 126.477  0.00  0.00    +0.000 OA
BRANCH  10  14
ATOM     13  C   UNL     1      -5.581  -3.112 129.592  0.00  0.00    +0.000 C 
ATOM     14  C   UNL     1      -6.336  -2.015 128.877  0.00  0.00    +0.000 C 
ENDBRANCH  10  14
BRANCH  10  15
ATOM     15  C   UNL     1      -8.441  -2.856 127.584  0.00  0.00    +0.000 C 
ATOM     16  C   UNL     1      -8.850  -4.176 128.188  0.00  0.00    +0.000 C 
ENDBRANCH  10  15
ENDBRANCH   1  11
BRANCH   3  17
ATOM     17  C   UNL     1      -8.827  -2.624 123.161  0.00  0.00    +0.000 C 
BRANCH  17  18
ATOM     18  N   UNL     1     -10.083  -3.340 123.354  0.00  0.00    +0.000 NA
ATOM     19  H   UNL     1      -9.884  -4.328 123.499  0.00  0.00    +0.000 HD
ATOM     20  H   UNL     1     -10.621  -3.294 122.489  0.00  0.00    +0.000 HD
ENDBRANCH  17  18
ENDBRANCH   3  17
TORSDOF 6
ENDMDL
MODEL 8
REMARK VINA RESULT:      -5.4      1.788      4.738
REMARK  Name = Milnacipran
REMARK  8 active torsions:
REMARK  status: ('A' for Active; 'I' for Inactive)
REMARK    1  A    between atoms: C_1  and  C_2
REMARK    2  A    between atoms: C_2  and  N_3
REMARK    3  A    between atoms: N_3  and  C_4
REMARK    4  A    between atoms: C_4  and  C_5
REMARK    5  A    between atoms: C_6  and  C_8
REMARK    6  A    between atoms: C_8  and  C_13
REMARK    7  A    between atoms: C_10  and  C_11
REMARK    8  A    between atoms: C_11  and  N_12
REMARK                            x       y       z     vdW  Elec       q    Type
REMARK                         _______ _______ _______ _____ _____    ______ ____
ROOT
ATOM      1  C   UNL     1      -7.044  -1.528 126.287  0.00  0.00    +0.000 C 
ATOM      2  C   UNL     1      -7.013  -2.142 127.696  0.00  0.00    +0.000 C 
ATOM      3  C   UNL     1      -8.317  -2.061 126.989  0.00  0.00    +0.000 C 
ENDROOT
BRANCH   1   4
ATOM      4  C   UNL     1      -6.738  -2.157 124.919  0.00  0.00    +0.000 A 
ATOM      5  C   UNL     1      -5.682  -3.045 124.714  0.00  0.00    +0.000 A 
ATOM      6  C   UNL     1      -5.052  -3.114 123.463  0.00  0.00    +0.000 A 
ATOM      7  C   UNL     1      -5.485  -2.325 122.394  0.00  0.00    +0.000 A 
ATOM      8  C   UNL     1      -6.588  -1.509 122.554  0.00  0.00    +0.000 A 
ATOM      9  C   UNL     1      -7.259  -1.520 123.771  0.00  0.00    +0.000 A 
ENDBRANCH   1   4
BRANCH   1  11
ATOM     10  N   UNL     1      -7.174   1.034 126.313  0.00  0.00    +0.000 N 
ATOM     11  C   UNL     1      -6.384  -0.143 126.348  0.00  0.00    +0.000 C 
ATOM     12  O   UNL     1      -5.163  -0.105 126.300  0.00  0.00    +0.000 OA
BRANCH  10  14
ATOM     13  C   UNL     1      -6.325   2.729 124.571  0.00  0.00    +0.000 C 
ATOM     14  C   UNL     1      -6.403   2.251 126.003  0.00  0.00    +0.000 C 
ENDBRANCH  10  14
BRANCH  10  15
ATOM     15  C   UNL     1      -8.632   0.947 126.372  0.00  0.00    +0.000 C 
ATOM     16  C   UNL     1      -9.513   1.025 125.151  0.00  0.00    +0.000 C 
ENDBRANCH  10  15
ENDBRANCH   1  11
BRANCH   3  17
ATOM     17  C   UNL     1      -8.969  -3.374 126.631  0.00  0.00    +0.000 C 
BRANCH  17  18
ATOM     18  N   UNL     1     -10.120  -3.110 125.776  0.00  0.00    +0.000 NA
ATOM     19  H   UNL     1     -10.324  -2.113 125.791  0.00  0.00    +0.000 HD
ATOM     20  H   UNL     1     -10.939  -3.563 126.183  0.00  0.00    +0.000 HD
ENDBRANCH  17  18
ENDBRANCH   3  17
TORSDOF 6
ENDMDL
MODEL 9
REMARK VINA RESULT:      -5.1      2.929      5.036
REMARK  Name = Milnacipran
REMARK  8 active torsions:
REMARK  status: ('A' for Active; 'I' for Inactive)
REMARK    1  A    between atoms: C_1  and  C_2
REMARK    2  A    between atoms: C_2  and  N_3
REMARK    3  A    between atoms: N_3  and  C_4
REMARK    4  A    between atoms: C_4  and  C_5
REMARK    5  A    between atoms: C_6  and  C_8
REMARK    6  A    between atoms: C_8  and  C_13
REMARK    7  A    between atoms: C_10  and  C_11
REMARK    8  A    between atoms: C_11  and  N_12
REMARK                            x       y       z     vdW  Elec       q    Type
REMARK                         _______ _______ _______ _____ _____    ______ ____
ROOT
ATOM      1  C   UNL     1      -6.519  -2.680 129.515  0.00  0.00    +0.000 C 
ATOM      2  C   UNL     1      -5.988  -4.038 130.003  0.00  0.00    +0.000 C 
ATOM      3  C   UNL     1      -5.008  -3.014 129.555  0.00  0.00    +0.000 C 
ENDROOT
BRANCH   1   4
ATOM      4  C   UNL     1      -6.936  -1.430 130.305  0.00  0.00    +0.000 A 
ATOM      5  C   UNL     1      -7.498  -1.494 131.581  0.00  0.00    +0.000 A 
ATOM      6  C   UNL     1      -8.395  -0.503 132.006  0.00  0.00    +0.000 A 
ATOM      7  C   UNL     1      -8.718   0.578 131.181  0.00  0.00    +0.000 A 
ATOM      8  C   UNL     1      -8.099   0.704 129.952  0.00  0.00    +0.000 A 
ATOM      9  C   UNL     1      -7.142  -0.234 129.583  0.00  0.00    +0.000 A 
ENDBRANCH   1   4
BRANCH   1  11
ATOM     10  N   UNL     1      -7.304  -2.559 127.076  0.00  0.00    +0.000 N 
ATOM     11  C   UNL     1      -7.562  -2.936 128.418  0.00  0.00    +0.000 C 
ATOM     12  O   UNL     1      -8.654  -3.354 128.774  0.00  0.00    +0.000 OA
BRANCH  10  14
ATOM     13  C   UNL     1      -8.677  -3.547 125.135  0.00  0.00    +0.000 C 
ATOM     14  C   UNL     1      -8.512  -2.520 126.232  0.00  0.00    +0.000 C 
ENDBRANCH  10  14
BRANCH  10  15
ATOM     15  C   UNL     1      -5.985  -2.062 126.689  0.00  0.00    +0.000 C 
ATOM     16  C   UNL     1      -5.756  -1.173 125.494  0.00  0.00    +0.000 C 
ENDBRANCH  10  15
ENDBRANCH   1  11
BRANCH   3  17
ATOM     17  C   UNL     1      -4.071  -2.476 130.609  0.00  0.00    +0.000 C 
BRANCH  17  18
ATOM     18  N   UNL     1      -2.787  -2.177 129.987  0.00  0.00    +0.000 NA
ATOM     19  H   UNL     1      -2.038  -2.489 130.602  0.00  0.00    +0.000 HD
ATOM     20  H   UNL     1      -2.683  -1.164 129.923  0.00  0.00    +0.000 HD
ENDBRANCH  17  18
ENDBRANCH   3  17
TORSDOF 6
ENDMDL
