MODEL 1
REMARK VINA RESULT:      -6.3      0.000      0.000
REMARK  Name = Milrinone
REMARK  3 active torsions:
REMARK  status: ('A' for Active; 'I' for Inactive)
REMARK    1  A    between atoms: C_1  and  C_2
REMARK    2  A    between atoms: C_3  and  C_11
REMARK    3  A    between atoms: C_5  and  C_6
REMARK                            x       y       z     vdW  Elec       q    Type
REMARK                         _______ _______ _______ _____ _____    ______ ____
ROOT
ATOM      1  C   UNL     1      -9.376   5.081 133.126  0.00  0.00    +0.000 C 
ATOM      2  C   UNL     1      -9.983   5.912 132.029  0.00  0.00    +0.000 A 
ATOM      3  C   UNL     1      -9.329   6.419 130.954  0.00  0.00    +0.000 A 
ATOM      4  C   UNL     1     -10.085   7.279 130.042  0.00  0.00    +0.000 A 
ATOM      5  C   UNL     1     -11.397   7.528 130.198  0.00  0.00    +0.000 A 
ATOM      6  C   UNL     1     -12.111   6.900 131.338  0.00  0.00    +0.000 A 
ATOM      7  O   UNL     1     -13.315   7.034 131.526  0.00  0.00    +0.000 OA
ATOM      8  N   UNL     1     -11.333   6.157 132.190  0.00  0.00    +0.000 N 
ATOM      9  H   UNL     1     -11.830   5.753 132.976  0.00  0.00    +0.000 HD
ENDROOT
BRANCH   3  10
ATOM     10  C   UNL     1      -7.895   6.119 130.710  0.00  0.00    +0.000 A 
ATOM     11  C   UNL     1      -6.894   6.985 131.164  0.00  0.00    +0.000 A 
ATOM     12  C   UNL     1      -5.570   6.672 130.903  0.00  0.00    +0.000 A 
ATOM     13  N   UNL     1      -5.181   5.567 130.237  0.00  0.00    +0.000 NA
ATOM     14  C   UNL     1      -6.158   4.736 129.817  0.00  0.00    +0.000 A 
ATOM     15  C   UNL     1      -7.511   4.961 130.031  0.00  0.00    +0.000 A 
ENDBRANCH   3  10
BRANCH   5  16
ATOM     16  C   UNL     1     -12.117   8.369 129.311  0.00  0.00    +0.000 C 
ATOM     17  N   UNL     1     -12.744   9.059 128.622  0.00  0.00    +0.000 NA
ENDBRANCH   5  16
TORSDOF 2
ENDMDL
MODEL 2
REMARK VINA RESULT:      -5.9      8.651     10.370
REMARK  Name = Milrinone
REMARK  3 active torsions:
REMARK  status: ('A' for Active; 'I' for Inactive)
REMARK    1  A    between atoms: C_1  and  C_2
REMARK    2  A    between atoms: C_3  and  C_11
REMARK    3  A    between atoms: C_5  and  C_6
REMARK                            x       y       z     vdW  Elec       q    Type
REMARK                         _______ _______ _______ _____ _____    ______ ____
ROOT
ATOM      1  C   UNL     1      -5.598   3.149 124.949  0.00  0.00    +0.000 C 
ATOM      2  C   UNL     1      -5.866   3.530 123.520  0.00  0.00    +0.000 A 
ATOM      3  C   UNL     1      -6.835   3.015 122.723  0.00  0.00    +0.000 A 
ATOM      4  C   UNL     1      -6.875   3.457 121.328  0.00  0.00    +0.000 A 
ATOM      5  C   UNL     1      -6.037   4.388 120.836  0.00  0.00    +0.000 A 
ATOM      6  C   UNL     1      -5.034   4.995 121.746  0.00  0.00    +0.000 A 
ATOM      7  O   UNL     1      -4.265   5.882 121.394  0.00  0.00    +0.000 OA
ATOM      8  N   UNL     1      -5.008   4.492 123.022  0.00  0.00    +0.000 N 
ATOM      9  H   UNL     1      -4.303   4.901 123.626  0.00  0.00    +0.000 HD
ENDROOT
BRANCH   3  10
ATOM     10  C   UNL     1      -7.821   2.031 123.241  0.00  0.00    +0.000 A 
ATOM     11  C   UNL     1      -9.092   2.442 123.657  0.00  0.00    +0.000 A 
ATOM     12  C   UNL     1      -9.975   1.492 124.146  0.00  0.00    +0.000 A 
ATOM     13  N   UNL     1      -9.683   0.180 124.239  0.00  0.00    +0.000 NA
ATOM     14  C   UNL     1      -8.457  -0.202 123.821  0.00  0.00    +0.000 A 
ATOM     15  C   UNL     1      -7.505   0.673 123.316  0.00  0.00    +0.000 A 
ENDBRANCH   3  10
BRANCH   5  16
ATOM     16  C   UNL     1      -6.081   4.803 119.481  0.00  0.00    +0.000 C 
ATOM     17  N   UNL     1      -6.163   5.164 118.381  0.00  0.00    +0.000 NA
ENDBRANCH   5  16
TORSDOF 2
ENDMDL
MODEL 3
REMARK VINA RESULT:      -5.6      8.908     10.648
REMARK  Name = Milrinone
REMARK  3 active torsions:
REMARK  status: ('A' for Active; 'I' for Inactive)
REMARK    1  A    between atoms: C_1  and  C_2
REMARK    2  A    between atoms: C_3  and  C_11
REMARK    3  A    between atoms: C_5  and  C_6
REMARK                            x       y       z     vdW  Elec       q    Type
REMARK                         _______ _______ _______ _____ _____    ______ ____
ROOT
ATOM      1  C   UNL     1      -9.717   1.963 122.945  0.00  0.00    +0.000 C 
ATOM      2  C   UNL     1      -8.774   0.825 123.224  0.00  0.00    +0.000 A 
ATOM      3  C   UNL     1      -7.420   0.899 123.261  0.00  0.00    +0.000 A 
ATOM      4  C   UNL     1      -6.676  -0.346 123.463  0.00  0.00    +0.000 A 
ATOM      5  C   UNL     1      -7.282  -1.528 123.672  0.00  0.00    +0.000 A 
ATOM      6  C   UNL     1      -8.766  -1.573 123.704  0.00  0.00    +0.000 A 
ATOM      7  O   UNL     1      -9.397  -2.598 123.935  0.00  0.00    +0.000 OA
ATOM      8  N   UNL     1      -9.401  -0.386 123.446  0.00  0.00    +0.000 N 
ATOM      9  H   UNL     1     -10.415  -0.436 123.449  0.00  0.00    +0.000 HD
ENDROOT
BRANCH   3  10
ATOM     10  C   UNL     1      -6.712   2.195 123.098  0.00  0.00    +0.000 A 
ATOM     11  C   UNL     1      -6.364   2.665 121.827  0.00  0.00    +0.000 A 
ATOM     12  C   UNL     1      -5.693   3.873 121.722  0.00  0.00    +0.000 A 
ATOM     13  N   UNL     1      -5.356   4.635 122.782  0.00  0.00    +0.000 NA
ATOM     14  C   UNL     1      -5.711   4.173 124.000  0.00  0.00    +0.000 A 
ATOM     15  C   UNL     1      -6.385   2.977 124.207  0.00  0.00    +0.000 A 
ENDBRANCH   3  10
BRANCH   5  16
ATOM     16  C   UNL     1      -6.551  -2.729 123.859  0.00  0.00    +0.000 C 
ATOM     17  N   UNL     1      -5.922  -3.697 123.973  0.00  0.00    +0.000 NA
ENDBRANCH   5  16
TORSDOF 2
ENDMDL
MODEL 4
REMARK VINA RESULT:      -5.6      2.395      3.360
REMARK  Name = Milrinone
REMARK  3 active torsions:
REMARK  status: ('A' for Active; 'I' for Inactive)
REMARK    1  A    between atoms: C_1  and  C_2
REMARK    2  A    between atoms: C_3  and  C_11
REMARK    3  A    between atoms: C_5  and  C_6
REMARK                            x       y       z     vdW  Elec       q    Type
REMARK                         _______ _______ _______ _____ _____    ______ ____
ROOT
ATOM      1  C   UNL     1      -7.644   6.780 131.004  0.00  0.00    +0.000 C 
ATOM      2  C   UNL     1      -9.056   6.680 130.497  0.00  0.00    +0.000 A 
ATOM      3  C   UNL     1      -9.928   5.671 130.747  0.00  0.00    +0.000 A 
ATOM      4  C   UNL     1     -11.232   5.720 130.085  0.00  0.00    +0.000 A 
ATOM      5  C   UNL     1     -11.612   6.745 129.301  0.00  0.00    +0.000 A 
ATOM      6  C   UNL     1     -10.672   7.877 129.103  0.00  0.00    +0.000 A 
ATOM      7  O   UNL     1     -10.955   8.871 128.446  0.00  0.00    +0.000 OA
ATOM      8  N   UNL     1      -9.444   7.740 129.700  0.00  0.00    +0.000 N 
ATOM      9  H   UNL     1      -8.805   8.511 129.538  0.00  0.00    +0.000 HD
ENDROOT
BRANCH   3  10
ATOM     10  C   UNL     1      -9.572   4.551 131.655  0.00  0.00    +0.000 A 
ATOM     11  C   UNL     1      -9.394   4.768 133.026  0.00  0.00    +0.000 A 
ATOM     12  C   UNL     1      -9.051   3.696 133.834  0.00  0.00    +0.000 A 
ATOM     13  N   UNL     1      -8.883   2.440 133.376  0.00  0.00    +0.000 NA
ATOM     14  C   UNL     1      -9.072   2.244 132.053  0.00  0.00    +0.000 A 
ATOM     15  C   UNL     1      -9.418   3.252 131.164  0.00  0.00    +0.000 A 
ENDBRANCH   3  10
BRANCH   5  16
ATOM     16  C   UNL     1     -12.877   6.778 128.659  0.00  0.00    +0.000 C 
ATOM     17  N   UNL     1     -13.887   6.787 128.091  0.00  0.00    +0.000 NA
ENDBRANCH   5  16
TORSDOF 2
ENDMDL
MODEL 5
REMARK VINA RESULT:      -5.6      7.141      8.310
REMARK  Name = Milrinone
REMARK  3 active torsions:
REMARK  status: ('A' for Active; 'I' for Inactive)
REMARK    1  A    between atoms: C_1  and  C_2
REMARK    2  A    between atoms: C_3  and  C_11
REMARK    3  A    between atoms: C_5  and  C_6
REMARK                            x       y       z     vdW  Elec       q    Type
REMARK                         _______ _______ _______ _____ _____    ______ ____
ROOT
ATOM      1  C   UNL     1      -4.954   4.491 122.690  0.00  0.00    +0.000 C 
ATOM      2  C   UNL     1      -6.207   3.800 123.150  0.00  0.00    +0.000 A 
ATOM      3  C   UNL     1      -6.458   3.351 124.405  0.00  0.00    +0.000 A 
ATOM      4  C   UNL     1      -7.708   2.623 124.630  0.00  0.00    +0.000 A 
ATOM      5  C   UNL     1      -8.628   2.443 123.665  0.00  0.00    +0.000 A 
ATOM      6  C   UNL     1      -8.367   3.010 122.318  0.00  0.00    +0.000 A 
ATOM      7  O   UNL     1      -9.171   2.934 121.396  0.00  0.00    +0.000 OA
ATOM      8  N   UNL     1      -7.152   3.625 122.157  0.00  0.00    +0.000 N 
ATOM      9  H   UNL     1      -6.979   3.989 121.226  0.00  0.00    +0.000 HD
ENDROOT
BRANCH   3  10
ATOM     10  C   UNL     1      -5.499   3.582 125.516  0.00  0.00    +0.000 A 
ATOM     11  C   UNL     1      -5.408   4.833 126.135  0.00  0.00    +0.000 A 
ATOM     12  C   UNL     1      -4.490   5.008 127.158  0.00  0.00    +0.000 A 
ATOM     13  N   UNL     1      -3.674   4.032 127.604  0.00  0.00    +0.000 NA
ATOM     14  C   UNL     1      -3.783   2.827 127.004  0.00  0.00    +0.000 A 
ATOM     15  C   UNL     1      -4.672   2.554 125.973  0.00  0.00    +0.000 A 
ENDBRANCH   3  10
BRANCH   5  16
ATOM     16  C   UNL     1      -9.833   1.730 123.892  0.00  0.00    +0.000 C 
ATOM     17  N   UNL     1     -10.844   1.185 124.055  0.00  0.00    +0.000 NA
ENDBRANCH   5  16
TORSDOF 2
ENDMDL
MODEL 6
REMARK VINA RESULT:      -5.5      3.147      5.626
REMARK  Name = Milrinone
REMARK  3 active torsions:
REMARK  status: ('A' for Active; 'I' for Inactive)
REMARK    1  A    between atoms: C_1  and  C_2
REMARK    2  A    between atoms: C_3  and  C_11
REMARK    3  A    between atoms: C_5  and  C_6
REMARK                            x       y       z     vdW  Elec       q    Type
REMARK                         _______ _______ _______ _____ _____    ______ ____
ROOT
ATOM      1  C   UNL     1     -10.514   3.508 130.374  0.00  0.00    +0.000 C 
ATOM      2  C   UNL     1      -9.827   4.119 131.563  0.00  0.00    +0.000 A 
ATOM      3  C   UNL     1      -9.868   5.425 131.928  0.00  0.00    +0.000 A 
ATOM      4  C   UNL     1      -9.055   5.837 133.074  0.00  0.00    +0.000 A 
ATOM      5  C   UNL     1      -8.334   4.967 133.803  0.00  0.00    +0.000 A 
ATOM      6  C   UNL     1      -8.365   3.530 133.434  0.00  0.00    +0.000 A 
ATOM      7  O   UNL     1      -7.776   2.665 134.072  0.00  0.00    +0.000 OA
ATOM      8  N   UNL     1      -9.094   3.220 132.314  0.00  0.00    +0.000 N 
ATOM      9  H   UNL     1      -9.088   2.237 132.061  0.00  0.00    +0.000 HD
ENDROOT
BRANCH   3  10
ATOM     10  C   UNL     1     -10.700   6.408 131.188  0.00  0.00    +0.000 A 
ATOM     11  C   UNL     1     -10.193   7.080 130.071  0.00  0.00    +0.000 A 
ATOM     12  C   UNL     1     -11.001   7.998 129.419  0.00  0.00    +0.000 A 
ATOM     13  N   UNL     1     -12.264   8.282 129.796  0.00  0.00    +0.000 NA
ATOM     14  C   UNL     1     -12.742   7.615 130.868  0.00  0.00    +0.000 A 
ATOM     15  C   UNL     1     -12.012   6.677 131.585  0.00  0.00    +0.000 A 
ENDBRANCH   3  10
BRANCH   5  16
ATOM     16  C   UNL     1      -7.545   5.379 134.908  0.00  0.00    +0.000 C 
ATOM     17  N   UNL     1      -6.913   5.672 135.835  0.00  0.00    +0.000 NA
ENDBRANCH   5  16
TORSDOF 2
ENDMDL
MODEL 7
REMARK VINA RESULT:      -5.5      8.395     10.023
REMARK  Name = Milrinone
REMARK  3 active torsions:
REMARK  status: ('A' for Active; 'I' for Inactive)
REMARK    1  A    between atoms: C_1  and  C_2
REMARK    2  A    between atoms: C_3  and  C_11
REMARK    3  A    between atoms: C_5  and  C_6
REMARK                            x       y       z     vdW  Elec       q    Type
REMARK                         _______ _______ _______ _____ _____    ______ ____
ROOT
ATOM      1  C   UNL     1      -6.962   0.267 128.645  0.00  0.00    +0.000 C 
ATOM      2  C   UNL     1      -7.537  -0.660 127.610  0.00  0.00    +0.000 A 
ATOM      3  C   UNL     1      -7.271  -1.984 127.486  0.00  0.00    +0.000 A 
ATOM      4  C   UNL     1      -7.867  -2.694 126.353  0.00  0.00    +0.000 A 
ATOM      5  C   UNL     1      -8.706  -2.102 125.484  0.00  0.00    +0.000 A 
ATOM      6  C   UNL     1      -9.044  -0.670 125.684  0.00  0.00    +0.000 A 
ATOM      7  O   UNL     1      -9.835  -0.066 124.969  0.00  0.00    +0.000 OA
ATOM      8  N   UNL     1      -8.404  -0.048 126.725  0.00  0.00    +0.000 N 
ATOM      9  H   UNL     1      -8.628   0.935 126.836  0.00  0.00    +0.000 HD
ENDROOT
BRANCH   3  10
ATOM     10  C   UNL     1      -6.401  -2.693 128.459  0.00  0.00    +0.000 A 
ATOM     11  C   UNL     1      -5.007  -2.656 128.333  0.00  0.00    +0.000 A 
ATOM     12  C   UNL     1      -4.235  -3.342 129.257  0.00  0.00    +0.000 A 
ATOM     13  N   UNL     1      -4.749  -4.045 130.286  0.00  0.00    +0.000 NA
ATOM     14  C   UNL     1      -6.094  -4.059 130.400  0.00  0.00    +0.000 A 
ATOM     15  C   UNL     1      -6.952  -3.403 129.528  0.00  0.00    +0.000 A 
ENDBRANCH   3  10
BRANCH   5  16
ATOM     16  C   UNL     1      -9.272  -2.798 124.386  0.00  0.00    +0.000 C 
ATOM     17  N   UNL     1      -9.782  -3.364 123.511  0.00  0.00    +0.000 NA
ENDBRANCH   5  16
TORSDOF 2
ENDMDL
MODEL 8
REMARK VINA RESULT:      -5.4      2.341      5.400
REMARK  Name = Milrinone
REMARK  3 active torsions:
REMARK  status: ('A' for Active; 'I' for Inactive)
REMARK    1  A    between atoms: C_1  and  C_2
REMARK    2  A    between atoms: C_3  and  C_11
REMARK    3  A    between atoms: C_5  and  C_6
REMARK                            x       y       z     vdW  Elec       q    Type
REMARK                         _______ _______ _______ _____ _____    ______ ____
ROOT
ATOM      1  C   UNL     1     -11.171   4.295 130.338  0.00  0.00    +0.000 C 
ATOM      2  C   UNL     1      -9.895   5.011 130.682  0.00  0.00    +0.000 A 
ATOM      3  C   UNL     1      -9.611   6.311 130.420  0.00  0.00    +0.000 A 
ATOM      4  C   UNL     1      -8.272   6.797 130.759  0.00  0.00    +0.000 A 
ATOM      5  C   UNL     1      -7.352   6.027 131.368  0.00  0.00    +0.000 A 
ATOM      6  C   UNL     1      -7.711   4.629 131.716  0.00  0.00    +0.000 A 
ATOM      7  O   UNL     1      -6.952   3.875 132.314  0.00  0.00    +0.000 OA
ATOM      8  N   UNL     1      -8.957   4.218 131.316  0.00  0.00    +0.000 N 
ATOM      9  H   UNL     1      -9.180   3.254 131.541  0.00  0.00    +0.000 HD
ENDROOT
BRANCH   3  10
ATOM     10  C   UNL     1     -10.618   7.214 129.805  0.00  0.00    +0.000 A 
ATOM     11  C   UNL     1     -11.734   7.642 130.531  0.00  0.00    +0.000 A 
ATOM     12  C   UNL     1     -12.655   8.473 129.914  0.00  0.00    +0.000 A 
ATOM     13  N   UNL     1     -12.535   8.906 128.643  0.00  0.00    +0.000 NA
ATOM     14  C   UNL     1     -11.446   8.494 127.960  0.00  0.00    +0.000 A 
ATOM     15  C   UNL     1     -10.468   7.664 128.492  0.00  0.00    +0.000 A 
ENDBRANCH   3  10
BRANCH   5  16
ATOM     16  C   UNL     1      -6.055   6.506 131.686  0.00  0.00    +0.000 C 
ATOM     17  N   UNL     1      -4.988   6.855 131.974  0.00  0.00    +0.000 NA
ENDBRANCH   5  16
TORSDOF 2
ENDMDL
MODEL 9
REMARK VINA RESULT:      -5.3      8.437     10.575
REMARK  Name = Milrinone
REMARK  3 active torsions:
REMARK  status: ('A' for Active; 'I' for Inactive)
REMARK    1  A    between atoms: C_1  and  C_2
REMARK    2  A    between atoms: C_3  and  C_11
REMARK    3  A    between atoms: C_5  and  C_6
REMARK                            x       y       z     vdW  Elec       q    Type
REMARK                         _______ _______ _______ _____ _____    ______ ____
ROOT
ATOM      1  C   UNL     1      -9.463   0.546 125.347  0.00  0.00    +0.000 C 
ATOM      2  C   UNL     1      -8.348  -0.405 125.011  0.00  0.00    +0.000 A 
ATOM      3  C   UNL     1      -7.134  -0.069 124.507  0.00  0.00    +0.000 A 
ATOM      4  C   UNL     1      -6.215  -1.156 124.164  0.00  0.00    +0.000 A 
ATOM      5  C   UNL     1      -6.505  -2.450 124.387  0.00  0.00    +0.000 A 
ATOM      6  C   UNL     1      -7.808  -2.791 125.011  0.00  0.00    +0.000 A 
ATOM      7  O   UNL     1      -8.133  -3.939 125.293  0.00  0.00    +0.000 OA
ATOM      8  N   UNL     1      -8.648  -1.732 125.249  0.00  0.00    +0.000 N 
ATOM      9  H   UNL     1      -9.543  -1.983 125.656  0.00  0.00    +0.000 HD
ENDROOT
BRANCH   3  10
ATOM     10  C   UNL     1      -6.748   1.351 124.303  0.00  0.00    +0.000 A 
ATOM     11  C   UNL     1      -6.120   2.077 125.322  0.00  0.00    +0.000 A 
ATOM     12  C   UNL     1      -5.789   3.403 125.092  0.00  0.00    +0.000 A 
ATOM     13  N   UNL     1      -6.031   4.042 123.931  0.00  0.00    +0.000 NA
ATOM     14  C   UNL     1      -6.625   3.324 122.954  0.00  0.00    +0.000 A 
ATOM     15  C   UNL     1      -6.993   1.992 123.087  0.00  0.00    +0.000 A 
ENDBRANCH   3  10
BRANCH   5  16
ATOM     16  C   UNL     1      -5.609  -3.495 124.044  0.00  0.00    +0.000 C 
ATOM     17  N   UNL     1      -4.844  -4.314 123.746  0.00  0.00    +0.000 NA
ENDBRANCH   5  16
TORSDOF 2
ENDMDL
