MODEL 1
REMARK VINA RESULT:      -7.8      0.000      0.000
REMARK  Name = Minaprine
REMARK  5 active torsions:
REMARK  status: ('A' for Active; 'I' for Inactive)
REMARK    1  A    between atoms: C_1  and  C_2
REMARK    2  A    between atoms: C_4  and  C_17
REMARK    3  A    between atoms: N_8  and  C_9
REMARK    4  A    between atoms: C_9  and  C_10
REMARK    5  A    between atoms: C_10  and  N_11
REMARK                            x       y       z     vdW  Elec       q    Type
REMARK                         _______ _______ _______ _____ _____    ______ ____
ROOT
ATOM      1  C   UNL     1      -6.292   1.742 125.076  0.00  0.00    +0.000 C 
ATOM      2  C   UNL     1      -7.264   2.114 123.995  0.00  0.00    +0.000 A 
ATOM      3  C   UNL     1      -6.714   2.856 122.942  0.00  0.00    +0.000 A 
ATOM      4  C   UNL     1      -7.500   3.276 121.893  0.00  0.00    +0.000 A 
ATOM      5  N   UNL     1      -8.810   2.980 121.876  0.00  0.00    +0.000 NA
ATOM      6  N   UNL     1      -9.367   2.228 122.916  0.00  0.00    +0.000 NA
ATOM      7  C   UNL     1      -8.623   1.797 123.959  0.00  0.00    +0.000 A 
ATOM      8  N   UNL     1      -9.298   1.063 124.921  0.00  0.00    +0.000 N 
ATOM      9  H   UNL     1     -10.285   0.929 124.759  0.00  0.00    +0.000 HD
ENDROOT
BRANCH   4  10
ATOM     10  C   UNL     1      -6.918   4.024 120.778  0.00  0.00    +0.000 A 
ATOM     11  C   UNL     1      -5.623   4.553 120.851  0.00  0.00    +0.000 A 
ATOM     12  C   UNL     1      -5.111   5.324 119.804  0.00  0.00    +0.000 A 
ATOM     13  C   UNL     1      -5.852   5.504 118.637  0.00  0.00    +0.000 A 
ATOM     14  C   UNL     1      -7.093   4.891 118.502  0.00  0.00    +0.000 A 
ATOM     15  C   UNL     1      -7.634   4.184 119.575  0.00  0.00    +0.000 A 
ENDBRANCH   4  10
BRANCH   8  16
ATOM     16  C   UNL     1      -8.652   0.564 126.109  0.00  0.00    +0.000 C 
BRANCH  16  17
ATOM     17  C   UNL     1      -8.222  -0.883 126.050  0.00  0.00    +0.000 C 
BRANCH  17  18
ATOM     18  N   UNL     1      -9.214  -1.624 125.231  0.00  0.00    +0.000 NA
ATOM     19  C   UNL     1      -9.631  -2.855 125.927  0.00  0.00    +0.000 C 
ATOM     20  C   UNL     1      -8.458  -3.833 126.074  0.00  0.00    +0.000 C 
ATOM     21  O   UNL     1      -7.924  -4.195 124.791  0.00  0.00    +0.000 OA
ATOM     22  C   UNL     1      -7.504  -3.038 124.053  0.00  0.00    +0.000 C 
ATOM     23  C   UNL     1      -8.651  -2.020 123.915  0.00  0.00    +0.000 C 
ENDBRANCH  17  18
ENDBRANCH  16  17
ENDBRANCH   8  16
TORSDOF 4
ENDMDL
MODEL 2
REMARK VINA RESULT:      -7.3      9.339     10.119
REMARK  Name = Minaprine
REMARK  5 active torsions:
REMARK  status: ('A' for Active; 'I' for Inactive)
REMARK    1  A    between atoms: C_1  and  C_2
REMARK    2  A    between atoms: C_4  and  C_17
REMARK    3  A    between atoms: N_8  and  C_9
REMARK    4  A    between atoms: C_9  and  C_10
REMARK    5  A    between atoms: C_10  and  N_11
REMARK                            x       y       z     vdW  Elec       q    Type
REMARK                         _______ _______ _______ _____ _____    ______ ____
ROOT
ATOM      1  C   UNL     1      -7.240   6.817 130.781  0.00  0.00    +0.000 C 
ATOM      2  C   UNL     1      -8.657   6.646 131.245  0.00  0.00    +0.000 A 
ATOM      3  C   UNL     1      -9.629   7.081 130.335  0.00  0.00    +0.000 A 
ATOM      4  C   UNL     1     -10.968   6.996 130.643  0.00  0.00    +0.000 A 
ATOM      5  N   UNL     1     -11.352   6.497 131.829  0.00  0.00    +0.000 NA
ATOM      6  N   UNL     1     -10.391   6.046 132.740  0.00  0.00    +0.000 NA
ATOM      7  C   UNL     1      -9.068   6.113 132.467  0.00  0.00    +0.000 A 
ATOM      8  N   UNL     1      -8.223   5.634 133.456  0.00  0.00    +0.000 N 
ATOM      9  H   UNL     1      -8.674   5.291 134.291  0.00  0.00    +0.000 HD
ENDROOT
BRANCH   4  10
ATOM     10  C   UNL     1     -11.983   7.422 129.678  0.00  0.00    +0.000 A 
ATOM     11  C   UNL     1     -12.782   6.491 129.001  0.00  0.00    +0.000 A 
ATOM     12  C   UNL     1     -13.697   6.913 128.033  0.00  0.00    +0.000 A 
ATOM     13  C   UNL     1     -13.887   8.273 127.792  0.00  0.00    +0.000 A 
ATOM     14  C   UNL     1     -13.184   9.215 128.536  0.00  0.00    +0.000 A 
ATOM     15  C   UNL     1     -12.218   8.791 129.448  0.00  0.00    +0.000 A 
ENDBRANCH   4  10
BRANCH   8  16
ATOM     16  C   UNL     1      -6.787   5.668 133.330  0.00  0.00    +0.000 C 
BRANCH  16  17
ATOM     17  C   UNL     1      -6.111   4.319 133.292  0.00  0.00    +0.000 C 
BRANCH  17  18
ATOM     18  N   UNL     1      -7.012   3.373 132.584  0.00  0.00    +0.000 NA
ATOM     19  C   UNL     1      -7.194   2.148 133.384  0.00  0.00    +0.000 C 
ATOM     20  C   UNL     1      -5.876   1.377 133.526  0.00  0.00    +0.000 C 
ATOM     21  O   UNL     1      -5.354   1.007 132.241  0.00  0.00    +0.000 OA
ATOM     22  C   UNL     1      -5.159   2.156 131.404  0.00  0.00    +0.000 C 
ATOM     23  C   UNL     1      -6.457   2.971 131.267  0.00  0.00    +0.000 C 
ENDBRANCH  17  18
ENDBRANCH  16  17
ENDBRANCH   8  16
TORSDOF 4
ENDMDL
MODEL 3
REMARK VINA RESULT:      -7.3      4.051      9.340
REMARK  Name = Minaprine
REMARK  5 active torsions:
REMARK  status: ('A' for Active; 'I' for Inactive)
REMARK    1  A    between atoms: C_1  and  C_2
REMARK    2  A    between atoms: C_4  and  C_17
REMARK    3  A    between atoms: N_8  and  C_9
REMARK    4  A    between atoms: C_9  and  C_10
REMARK    5  A    between atoms: C_10  and  N_11
REMARK                            x       y       z     vdW  Elec       q    Type
REMARK                         _______ _______ _______ _____ _____    ______ ____
ROOT
ATOM      1  C   UNL     1      -9.323  -3.034 126.363  0.00  0.00    +0.000 C 
ATOM      2  C   UNL     1      -7.960  -2.821 126.955  0.00  0.00    +0.000 A 
ATOM      3  C   UNL     1      -7.841  -3.194 128.299  0.00  0.00    +0.000 A 
ATOM      4  C   UNL     1      -6.648  -3.036 128.968  0.00  0.00    +0.000 A 
ATOM      5  N   UNL     1      -5.587  -2.513 128.333  0.00  0.00    +0.000 NA
ATOM      6  N   UNL     1      -5.691  -2.150 126.986  0.00  0.00    +0.000 NA
ATOM      7  C   UNL     1      -6.847  -2.295 126.298  0.00  0.00    +0.000 A 
ATOM      8  N   UNL     1      -6.815  -1.894 124.972  0.00  0.00    +0.000 N 
ATOM      9  H   UNL     1      -5.936  -1.521 124.647  0.00  0.00    +0.000 HD
ENDROOT
BRANCH   4  10
ATOM     10  C   UNL     1      -6.515  -3.456 130.364  0.00  0.00    +0.000 A 
ATOM     11  C   UNL     1      -7.298  -2.885 131.376  0.00  0.00    +0.000 A 
ATOM     12  C   UNL     1      -7.108  -3.248 132.711  0.00  0.00    +0.000 A 
ATOM     13  C   UNL     1      -6.195  -4.248 133.044  0.00  0.00    +0.000 A 
ATOM     14  C   UNL     1      -5.490  -4.905 132.041  0.00  0.00    +0.000 A 
ATOM     15  C   UNL     1      -5.626  -4.490 130.716  0.00  0.00    +0.000 A 
ENDBRANCH   4  10
BRANCH   8  16
ATOM     16  C   UNL     1      -7.974  -1.953 124.118  0.00  0.00    +0.000 C 
BRANCH  16  17
ATOM     17  C   UNL     1      -8.284  -0.683 123.361  0.00  0.00    +0.000 C 
BRANCH  17  18
ATOM     18  N   UNL     1      -9.580  -0.156 123.860  0.00  0.00    +0.000 NA
ATOM     19  C   UNL     1     -10.112   0.853 122.925  0.00  0.00    +0.000 C 
ATOM     20  C   UNL     1      -9.203   2.086 122.864  0.00  0.00    +0.000 C 
ATOM     21  O   UNL     1      -9.068   2.693 124.158  0.00  0.00    +0.000 OA
ATOM     22  C   UNL     1      -8.559   1.759 125.123  0.00  0.00    +0.000 C 
ATOM     23  C   UNL     1      -9.433   0.494 125.187  0.00  0.00    +0.000 C 
ENDBRANCH  17  18
ENDBRANCH  16  17
ENDBRANCH   8  16
TORSDOF 4
ENDMDL
MODEL 4
REMARK VINA RESULT:      -7.3      7.641     10.633
REMARK  Name = Minaprine
REMARK  5 active torsions:
REMARK  status: ('A' for Active; 'I' for Inactive)
REMARK    1  A    between atoms: C_1  and  C_2
REMARK    2  A    between atoms: C_4  and  C_17
REMARK    3  A    between atoms: N_8  and  C_9
REMARK    4  A    between atoms: C_9  and  C_10
REMARK    5  A    between atoms: C_10  and  N_11
REMARK                            x       y       z     vdW  Elec       q    Type
REMARK                         _______ _______ _______ _____ _____    ______ ____
ROOT
ATOM      1  C   UNL     1      -8.261   3.315 129.180  0.00  0.00    +0.000 C 
ATOM      2  C   UNL     1      -8.711   2.278 130.168  0.00  0.00    +0.000 A 
ATOM      3  C   UNL     1      -8.143   1.011 129.986  0.00  0.00    +0.000 A 
ATOM      4  C   UNL     1      -8.482  -0.035 130.814  0.00  0.00    +0.000 A 
ATOM      5  N   UNL     1      -9.370   0.153 131.804  0.00  0.00    +0.000 NA
ATOM      6  N   UNL     1      -9.933   1.419 132.003  0.00  0.00    +0.000 NA
ATOM      7  C   UNL     1      -9.619   2.468 131.210  0.00  0.00    +0.000 A 
ATOM      8  N   UNL     1     -10.248   3.665 131.514  0.00  0.00    +0.000 N 
ATOM      9  H   UNL     1     -10.891   3.638 132.292  0.00  0.00    +0.000 HD
ENDROOT
BRANCH   4  10
ATOM     10  C   UNL     1      -7.865  -1.352 130.643  0.00  0.00    +0.000 A 
ATOM     11  C   UNL     1      -7.315  -2.046 131.729  0.00  0.00    +0.000 A 
ATOM     12  C   UNL     1      -6.668  -3.269 131.535  0.00  0.00    +0.000 A 
ATOM     13  C   UNL     1      -6.639  -3.855 130.270  0.00  0.00    +0.000 A 
ATOM     14  C   UNL     1      -7.279  -3.234 129.202  0.00  0.00    +0.000 A 
ATOM     15  C   UNL     1      -7.859  -1.978 129.382  0.00  0.00    +0.000 A 
ENDBRANCH   4  10
BRANCH   8  16
ATOM     16  C   UNL     1     -10.046   4.865 130.742  0.00  0.00    +0.000 C 
BRANCH  16  17
ATOM     17  C   UNL     1     -11.268   5.735 130.569  0.00  0.00    +0.000 C 
BRANCH  17  18
ATOM     18  N   UNL     1     -11.526   5.880 129.113  0.00  0.00    +0.000 NA
ATOM     19  C   UNL     1     -10.459   6.681 128.484  0.00  0.00    +0.000 C 
ATOM     20  C   UNL     1     -10.462   8.120 129.012  0.00  0.00    +0.000 C 
ATOM     21  O   UNL     1     -11.721   8.762 128.757  0.00  0.00    +0.000 OA
ATOM     22  C   UNL     1     -12.809   8.028 129.338  0.00  0.00    +0.000 C 
ATOM     23  C   UNL     1     -12.816   6.567 128.853  0.00  0.00    +0.000 C 
ENDBRANCH  17  18
ENDBRANCH  16  17
ENDBRANCH   8  16
TORSDOF 4
ENDMDL
MODEL 5
REMARK VINA RESULT:      -7.1      8.471     10.107
REMARK  Name = Minaprine
REMARK  5 active torsions:
REMARK  status: ('A' for Active; 'I' for Inactive)
REMARK    1  A    between atoms: C_1  and  C_2
REMARK    2  A    between atoms: C_4  and  C_17
REMARK    3  A    between atoms: N_8  and  C_9
REMARK    4  A    between atoms: C_9  and  C_10
REMARK    5  A    between atoms: C_10  and  N_11
REMARK                            x       y       z     vdW  Elec       q    Type
REMARK                         _______ _______ _______ _____ _____    ______ ____
ROOT
ATOM      1  C   UNL     1      -7.455   6.357 131.952  0.00  0.00    +0.000 C 
ATOM      2  C   UNL     1      -8.119   6.038 130.644  0.00  0.00    +0.000 A 
ATOM      3  C   UNL     1      -9.286   6.768 130.386  0.00  0.00    +0.000 A 
ATOM      4  C   UNL     1     -10.001   6.562 129.228  0.00  0.00    +0.000 A 
ATOM      5  N   UNL     1      -9.584   5.649 128.336  0.00  0.00    +0.000 NA
ATOM      6  N   UNL     1      -8.412   4.924 128.577  0.00  0.00    +0.000 NA
ATOM      7  C   UNL     1      -7.684   5.104 129.702  0.00  0.00    +0.000 A 
ATOM      8  N   UNL     1      -6.547   4.321 129.818  0.00  0.00    +0.000 N 
ATOM      9  H   UNL     1      -6.375   3.682 129.056  0.00  0.00    +0.000 HD
ENDROOT
BRANCH   4  10
ATOM     10  C   UNL     1     -11.203   7.347 128.945  0.00  0.00    +0.000 A 
ATOM     11  C   UNL     1     -11.891   7.216 127.732  0.00  0.00    +0.000 A 
ATOM     12  C   UNL     1     -12.996   8.024 127.451  0.00  0.00    +0.000 A 
ATOM     13  C   UNL     1     -13.479   8.912 128.412  0.00  0.00    +0.000 A 
ATOM     14  C   UNL     1     -12.876   8.974 129.664  0.00  0.00    +0.000 A 
ATOM     15  C   UNL     1     -11.729   8.221 129.916  0.00  0.00    +0.000 A 
ENDBRANCH   4  10
BRANCH   8  16
ATOM     16  C   UNL     1      -5.686   4.372 130.973  0.00  0.00    +0.000 C 
BRANCH  16  17
ATOM     17  C   UNL     1      -4.253   4.758 130.693  0.00  0.00    +0.000 C 
BRANCH  17  18
ATOM     18  N   UNL     1      -4.238   6.176 130.248  0.00  0.00    +0.000 NA
ATOM     19  C   UNL     1      -3.863   6.258 128.824  0.00  0.00    +0.000 C 
ATOM     20  C   UNL     1      -2.423   5.778 128.602  0.00  0.00    +0.000 C 
ATOM     21  O   UNL     1      -1.494   6.564 129.363  0.00  0.00    +0.000 OA
ATOM     22  C   UNL     1      -1.806   6.535 130.764  0.00  0.00    +0.000 C 
ATOM     23  C   UNL     1      -3.257   6.981 131.019  0.00  0.00    +0.000 C 
ENDBRANCH  17  18
ENDBRANCH  16  17
ENDBRANCH   8  16
TORSDOF 4
ENDMDL
MODEL 6
REMARK VINA RESULT:      -7.1      2.279      2.718
REMARK  Name = Minaprine
REMARK  5 active torsions:
REMARK  status: ('A' for Active; 'I' for Inactive)
REMARK    1  A    between atoms: C_1  and  C_2
REMARK    2  A    between atoms: C_4  and  C_17
REMARK    3  A    between atoms: N_8  and  C_9
REMARK    4  A    between atoms: C_9  and  C_10
REMARK    5  A    between atoms: C_10  and  N_11
REMARK                            x       y       z     vdW  Elec       q    Type
REMARK                         _______ _______ _______ _____ _____    ______ ____
ROOT
ATOM      1  C   UNL     1      -5.541   1.464 125.857  0.00  0.00    +0.000 C 
ATOM      2  C   UNL     1      -6.830   1.882 125.210  0.00  0.00    +0.000 A 
ATOM      3  C   UNL     1      -6.694   2.411 123.921  0.00  0.00    +0.000 A 
ATOM      4  C   UNL     1      -7.796   2.848 123.222  0.00  0.00    +0.000 A 
ATOM      5  N   UNL     1      -9.016   2.774 123.779  0.00  0.00    +0.000 NA
ATOM      6  N   UNL     1      -9.165   2.234 125.061  0.00  0.00    +0.000 NA
ATOM      7  C   UNL     1      -8.104   1.793 125.773  0.00  0.00    +0.000 A 
ATOM      8  N   UNL     1      -8.389   1.283 127.030  0.00  0.00    +0.000 N 
ATOM      9  H   UNL     1      -9.361   1.299 127.300  0.00  0.00    +0.000 HD
ENDROOT
BRANCH   4  10
ATOM     10  C   UNL     1      -7.657   3.373 121.862  0.00  0.00    +0.000 A 
ATOM     11  C   UNL     1      -6.398   3.641 121.309  0.00  0.00    +0.000 A 
ATOM     12  C   UNL     1      -6.289   4.207 120.036  0.00  0.00    +0.000 A 
ATOM     13  C   UNL     1      -7.429   4.431 119.267  0.00  0.00    +0.000 A 
ATOM     14  C   UNL     1      -8.679   4.065 119.756  0.00  0.00    +0.000 A 
ATOM     15  C   UNL     1      -8.794   3.570 121.055  0.00  0.00    +0.000 A 
ENDBRANCH   4  10
BRANCH   8  16
ATOM     16  C   UNL     1      -7.364   0.806 127.923  0.00  0.00    +0.000 C 
BRANCH  16  17
ATOM     17  C   UNL     1      -7.711  -0.445 128.695  0.00  0.00    +0.000 C 
BRANCH  17  18
ATOM     18  N   UNL     1      -7.497  -1.611 127.799  0.00  0.00    +0.000 NA
ATOM     19  C   UNL     1      -8.073  -2.827 128.401  0.00  0.00    +0.000 C 
ATOM     20  C   UNL     1      -7.341  -3.206 129.694  0.00  0.00    +0.000 C 
ATOM     21  O   UNL     1      -5.946  -3.439 129.449  0.00  0.00    +0.000 OA
ATOM     22  C   UNL     1      -5.321  -2.291 128.853  0.00  0.00    +0.000 C 
ATOM     23  C   UNL     1      -6.052  -1.865 127.568  0.00  0.00    +0.000 C 
ENDBRANCH  17  18
ENDBRANCH  16  17
ENDBRANCH   8  16
TORSDOF 4
ENDMDL
MODEL 7
REMARK VINA RESULT:      -7.0      8.624      9.341
REMARK  Name = Minaprine
REMARK  5 active torsions:
REMARK  status: ('A' for Active; 'I' for Inactive)
REMARK    1  A    between atoms: C_1  and  C_2
REMARK    2  A    between atoms: C_4  and  C_17
REMARK    3  A    between atoms: N_8  and  C_9
REMARK    4  A    between atoms: C_9  and  C_10
REMARK    5  A    between atoms: C_10  and  N_11
REMARK                            x       y       z     vdW  Elec       q    Type
REMARK                         _______ _______ _______ _____ _____    ______ ____
ROOT
ATOM      1  C   UNL     1      -9.020   5.707 132.957  0.00  0.00    +0.000 C 
ATOM      2  C   UNL     1      -9.890   5.249 131.822  0.00  0.00    +0.000 A 
ATOM      3  C   UNL     1     -10.622   6.267 131.198  0.00  0.00    +0.000 A 
ATOM      4  C   UNL     1     -11.471   5.981 130.153  0.00  0.00    +0.000 A 
ATOM      5  N   UNL     1     -11.608   4.715 129.727  0.00  0.00    +0.000 NA
ATOM      6  N   UNL     1     -10.871   3.693 130.334  0.00  0.00    +0.000 NA
ATOM      7  C   UNL     1     -10.026   3.939 131.361  0.00  0.00    +0.000 A 
ATOM      8  N   UNL     1      -9.359   2.838 131.872  0.00  0.00    +0.000 N 
ATOM      9  H   UNL     1      -9.575   1.953 131.438  0.00  0.00    +0.000 HD
ENDROOT
BRANCH   4  10
ATOM     10  C   UNL     1     -12.212   7.050 129.481  0.00  0.00    +0.000 A 
ATOM     11  C   UNL     1     -12.088   8.387 129.880  0.00  0.00    +0.000 A 
ATOM     12  C   UNL     1     -12.856   9.384 129.273  0.00  0.00    +0.000 A 
ATOM     13  C   UNL     1     -13.692   9.071 128.202  0.00  0.00    +0.000 A 
ATOM     14  C   UNL     1     -13.743   7.767 127.719  0.00  0.00    +0.000 A 
ATOM     15  C   UNL     1     -13.033   6.761 128.374  0.00  0.00    +0.000 A 
ENDBRANCH   4  10
BRANCH   8  16
ATOM     16  C   UNL     1      -8.451   2.931 132.988  0.00  0.00    +0.000 C 
BRANCH  16  17
ATOM     17  C   UNL     1      -7.242   2.030 132.914  0.00  0.00    +0.000 C 
BRANCH  17  18
ATOM     18  N   UNL     1      -7.480   1.030 131.841  0.00  0.00    +0.000 NA
ATOM     19  C   UNL     1      -7.783  -0.286 132.431  0.00  0.00    +0.000 C 
ATOM     20  C   UNL     1      -6.578  -0.840 133.202  0.00  0.00    +0.000 C 
ATOM     21  O   UNL     1      -5.436  -0.980 132.343  0.00  0.00    +0.000 OA
ATOM     22  C   UNL     1      -5.088   0.269 131.727  0.00  0.00    +0.000 C 
ATOM     23  C   UNL     1      -6.288   0.868 130.970  0.00  0.00    +0.000 C 
ENDBRANCH  17  18
ENDBRANCH  16  17
ENDBRANCH   8  16
TORSDOF 4
ENDMDL
MODEL 8
REMARK VINA RESULT:      -7.0     10.213     11.468
REMARK  Name = Minaprine
REMARK  5 active torsions:
REMARK  status: ('A' for Active; 'I' for Inactive)
REMARK    1  A    between atoms: C_1  and  C_2
REMARK    2  A    between atoms: C_4  and  C_17
REMARK    3  A    between atoms: N_8  and  C_9
REMARK    4  A    between atoms: C_9  and  C_10
REMARK    5  A    between atoms: C_10  and  N_11
REMARK                            x       y       z     vdW  Elec       q    Type
REMARK                         _______ _______ _______ _____ _____    ______ ____
ROOT
ATOM      1  C   UNL     1      -6.316   6.635 131.155  0.00  0.00    +0.000 C 
ATOM      2  C   UNL     1      -7.748   6.506 131.588  0.00  0.00    +0.000 A 
ATOM      3  C   UNL     1      -8.688   6.901 130.628  0.00  0.00    +0.000 A 
ATOM      4  C   UNL     1     -10.036   6.848 130.902  0.00  0.00    +0.000 A 
ATOM      5  N   UNL     1     -10.460   6.419 132.102  0.00  0.00    +0.000 NA
ATOM      6  N   UNL     1      -9.530   6.008 133.064  0.00  0.00    +0.000 NA
ATOM      7  C   UNL     1      -8.199   6.045 132.826  0.00  0.00    +0.000 A 
ATOM      8  N   UNL     1      -7.388   5.612 133.862  0.00  0.00    +0.000 N 
ATOM      9  H   UNL     1      -7.866   5.321 134.702  0.00  0.00    +0.000 HD
ENDROOT
BRANCH   4  10
ATOM     10  C   UNL     1     -11.019   7.232 129.888  0.00  0.00    +0.000 A 
ATOM     11  C   UNL     1     -12.373   6.900 130.022  0.00  0.00    +0.000 A 
ATOM     12  C   UNL     1     -13.284   7.213 129.010  0.00  0.00    +0.000 A 
ATOM     13  C   UNL     1     -12.871   7.938 127.893  0.00  0.00    +0.000 A 
ATOM     14  C   UNL     1     -11.553   8.375 127.797  0.00  0.00    +0.000 A 
ATOM     15  C   UNL     1     -10.629   7.997 128.771  0.00  0.00    +0.000 A 
ENDBRANCH   4  10
BRANCH   8  16
ATOM     16  C   UNL     1      -5.949   5.623 133.776  0.00  0.00    +0.000 C 
BRANCH  16  17
ATOM     17  C   UNL     1      -5.223   5.557 135.098  0.00  0.00    +0.000 C 
BRANCH  17  18
ATOM     18  N   UNL     1      -5.819   4.454 135.895  0.00  0.00    +0.000 NA
ATOM     19  C   UNL     1      -5.370   4.539 137.297  0.00  0.00    +0.000 C 
ATOM     20  C   UNL     1      -3.858   4.310 137.410  0.00  0.00    +0.000 C 
ATOM     21  O   UNL     1      -3.490   3.022 136.893  0.00  0.00    +0.000 OA
ATOM     22  C   UNL     1      -3.906   2.868 135.527  0.00  0.00    +0.000 C 
ATOM     23  C   UNL     1      -5.416   3.123 135.374  0.00  0.00    +0.000 C 
ENDBRANCH  17  18
ENDBRANCH  16  17
ENDBRANCH   8  16
TORSDOF 4
ENDMDL
MODEL 9
REMARK VINA RESULT:      -6.9      8.151      9.520
REMARK  Name = Minaprine
REMARK  5 active torsions:
REMARK  status: ('A' for Active; 'I' for Inactive)
REMARK    1  A    between atoms: C_1  and  C_2
REMARK    2  A    between atoms: C_4  and  C_17
REMARK    3  A    between atoms: N_8  and  C_9
REMARK    4  A    between atoms: C_9  and  C_10
REMARK    5  A    between atoms: C_10  and  N_11
REMARK                            x       y       z     vdW  Elec       q    Type
REMARK                         _______ _______ _______ _____ _____    ______ ____
ROOT
ATOM      1  C   UNL     1      -8.230   6.100 132.028  0.00  0.00    +0.000 C 
ATOM      2  C   UNL     1      -9.395   5.551 131.257  0.00  0.00    +0.000 A 
ATOM      3  C   UNL     1     -10.227   6.521 130.684  0.00  0.00    +0.000 A 
ATOM      4  C   UNL     1     -11.340   6.152 129.963  0.00  0.00    +0.000 A 
ATOM      5  N   UNL     1     -11.640   4.852 129.808  0.00  0.00    +0.000 NA
ATOM      6  N   UNL     1     -10.807   3.875 130.365  0.00  0.00    +0.000 NA
ATOM      7  C   UNL     1      -9.704   4.202 131.076  0.00  0.00    +0.000 A 
ATOM      8  N   UNL     1      -8.968   3.139 131.573  0.00  0.00    +0.000 N 
ATOM      9  H   UNL     1      -9.330   2.220 131.367  0.00  0.00    +0.000 HD
ENDROOT
BRANCH   4  10
ATOM     10  C   UNL     1     -12.193   7.165 129.338  0.00  0.00    +0.000 A 
ATOM     11  C   UNL     1     -13.126   6.824 128.350  0.00  0.00    +0.000 A 
ATOM     12  C   UNL     1     -13.882   7.814 127.716  0.00  0.00    +0.000 A 
ATOM     13  C   UNL     1     -13.776   9.144 128.119  0.00  0.00    +0.000 A 
ATOM     14  C   UNL     1     -12.937   9.485 129.176  0.00  0.00    +0.000 A 
ATOM     15  C   UNL     1     -12.130   8.508 129.758  0.00  0.00    +0.000 A 
ENDBRANCH   4  10
BRANCH   8  16
ATOM     16  C   UNL     1      -7.788   3.324 132.379  0.00  0.00    +0.000 C 
BRANCH  16  17
ATOM     17  C   UNL     1      -6.665   2.349 132.113  0.00  0.00    +0.000 C 
BRANCH  17  18
ATOM     18  N   UNL     1      -5.404   3.124 131.987  0.00  0.00    +0.000 NA
ATOM     19  C   UNL     1      -5.398   3.883 130.723  0.00  0.00    +0.000 C 
ATOM     20  C   UNL     1      -5.385   2.944 129.511  0.00  0.00    +0.000 C 
ATOM     21  O   UNL     1      -4.232   2.089 129.533  0.00  0.00    +0.000 OA
ATOM     22  C   UNL     1      -4.171   1.322 130.745  0.00  0.00    +0.000 C 
ATOM     23  C   UNL     1      -4.214   2.235 131.983  0.00  0.00    +0.000 C 
ENDBRANCH  17  18
ENDBRANCH  16  17
ENDBRANCH   8  16
TORSDOF 4
ENDMDL
